data_job_04843
_audit_creation_date              2018-12-19
_audit_creation_method            'Materials Studio'
_symmetry_space_group_name_H-M    'P1'
_symmetry_Int_Tables_number       1
_symmetry_cell_setting            triclinic
loop_
_symmetry_equiv_pos_as_xyz
  x,y,z
_cell_length_a                    11.6787
_cell_length_b                    12.5364
_cell_length_c                    39.5378
_cell_angle_alpha                 90.0000
_cell_angle_beta                  90.0000
_cell_angle_gamma                 90.0000
loop_
_atom_site_label
_atom_site_type_symbol
_atom_site_fract_x
_atom_site_fract_y
_atom_site_fract_z
_atom_site_U_iso_or_equiv
_atom_site_adp_type
_atom_site_occupancy
C1     C     0.04196   0.37282   0.64448   0.00000  Uiso   1.00
C2     C     0.03161   0.29426   0.61519   0.00000  Uiso   1.00
C3     C     0.96600   0.20197   0.61510   0.00000  Uiso   1.00
C4     C     0.96798   0.14075   0.58584   0.00000  Uiso   1.00
C5     C     0.94203   0.01417   0.54465   0.00000  Uiso   1.00
C6     C     0.16945   0.38088   0.65240   0.00000  Uiso   1.00
C7     C     0.21972   0.36143   0.68361   0.00000  Uiso   1.00
C8     C     0.33773   0.37315   0.68568   0.00000  Uiso   1.00
C9     C     0.52576   0.38112   0.70227   0.00000  Uiso   1.00
C10    C     0.00718   0.48125   0.63034   0.00000  Uiso   1.00
C11    C     0.92104   0.54622   0.64301   0.00000  Uiso   1.00
C12    C     0.90245   0.64245   0.62651   0.00000  Uiso   1.00
C13    C     0.83855   0.80627   0.60885   0.00000  Uiso   1.00
C14    C     0.16215   0.42821   0.59268   0.00000  Uiso   1.00
C15    C     0.09690   0.32435   0.58705   0.00000  Uiso   1.00
C16    C     0.09898   0.26326   0.55779   0.00000  Uiso   1.00
C17    C     0.03338   0.17089   0.55766   0.00000  Uiso   1.00
C18    C     0.23474   0.41097   0.62427   0.00000  Uiso   1.00
C19    C     0.35270   0.42272   0.62629   0.00000  Uiso   1.00
C20    C     0.40313   0.40329   0.65749   0.00000  Uiso   1.00
C21    C     0.07247   0.51134   0.60221   0.00000  Uiso   1.00
C22    C     0.05402   0.60750   0.58569   0.00000  Uiso   1.00
C23    C     0.96786   0.67259   0.59832   0.00000  Uiso   1.00
H24    H     0.99114   0.34939   0.66638   0.00000  Uiso   1.00
H25    H     0.91549   0.17871   0.63688   0.00000  Uiso   1.00
H26    H     0.16917   0.33816   0.70538   0.00000  Uiso   1.00
H27    H     0.87054   0.52291   0.66478   0.00000  Uiso   1.00
H28    H     0.86046   0.00273   0.59177   0.00000  Uiso   1.00
H29    H     0.39534   0.33897   0.73619   0.00000  Uiso   1.00
H30    H     0.76561   0.72855   0.65059   0.00000  Uiso   1.00
H31    H     0.21298   0.45164   0.57077   0.00000  Uiso   1.00
H32    H     0.14951   0.28656   0.53602   0.00000  Uiso   1.00
H33    H     0.40319   0.44601   0.60451   0.00000  Uiso   1.00
H34    H     0.10456   0.63076   0.56392   0.00000  Uiso   1.00
H35    H     0.05040   0.09026   0.50990   0.00000  Uiso   1.00
H36    H     0.58529   0.42651   0.65433   0.00000  Uiso   1.00
H37    H     0.95556   0.81608   0.56873   0.00000  Uiso   1.00
O38    O     0.90970   0.93604   0.52970   0.00000  Uiso   1.00
O39    O     0.61145   0.37720   0.71919   0.00000  Uiso   1.00
O40    O     0.78525   0.88831   0.60688   0.00000  Uiso   1.00
N41    N     0.91385   0.04599   0.57727   0.00000  Uiso   1.00
N42    N     0.41394   0.36034   0.71230   0.00000  Uiso   1.00
N43    N     0.82522   0.72458   0.63227   0.00000  Uiso   1.00
N44    N     0.01606   0.09309   0.53322   0.00000  Uiso   1.00
N45    N     0.51615   0.40745   0.66825   0.00000  Uiso   1.00
N46    N     0.92742   0.77168   0.58822   0.00000  Uiso   1.00
C47    C     0.45804   0.12718   0.14448   0.00000  Uiso   1.00
C48    C     0.46839   0.20574   0.11519   0.00000  Uiso   1.00
C49    C     0.53400   0.29803   0.11510   0.00000  Uiso   1.00
C50    C     0.53202   0.35925   0.08584   0.00000  Uiso   1.00
C51    C     0.55797   0.48583   0.04465   0.00000  Uiso   1.00
C52    C     0.33055   0.11912   0.15240   0.00000  Uiso   1.00
C53    C     0.28028   0.13857   0.18361   0.00000  Uiso   1.00
C54    C     0.16227   0.12685   0.18568   0.00000  Uiso   1.00
C55    C     0.97424   0.11888   0.20227   0.00000  Uiso   1.00
C56    C     0.49282   0.01875   0.13034   0.00000  Uiso   1.00
C57    C     0.57896   0.95378   0.14301   0.00000  Uiso   1.00
C58    C     0.59755   0.85755   0.12651   0.00000  Uiso   1.00
C59    C     0.66145   0.69373   0.10885   0.00000  Uiso   1.00
C60    C     0.33785   0.07179   0.09268   0.00000  Uiso   1.00
C61    C     0.40310   0.17565   0.08705   0.00000  Uiso   1.00
C62    C     0.40102   0.23674   0.05779   0.00000  Uiso   1.00
C63    C     0.46662   0.32911   0.05766   0.00000  Uiso   1.00
C64    C     0.26526   0.08903   0.12427   0.00000  Uiso   1.00
C65    C     0.14730   0.07728   0.12629   0.00000  Uiso   1.00
C66    C     0.09687   0.09671   0.15749   0.00000  Uiso   1.00
C67    C     0.42753   0.98866   0.10221   0.00000  Uiso   1.00
C68    C     0.44598   0.89250   0.08569   0.00000  Uiso   1.00
C69    C     0.53214   0.82741   0.09832   0.00000  Uiso   1.00
H70    H     0.50886   0.15061   0.16638   0.00000  Uiso   1.00
H71    H     0.58451   0.32129   0.13688   0.00000  Uiso   1.00
H72    H     0.33083   0.16184   0.20538   0.00000  Uiso   1.00
H73    H     0.62946   0.97709   0.16478   0.00000  Uiso   1.00
H74    H     0.63954   0.49727   0.09177   0.00000  Uiso   1.00
H75    H     0.10466   0.16103   0.23619   0.00000  Uiso   1.00
H76    H     0.73439   0.77145   0.15059   0.00000  Uiso   1.00
H77    H     0.28702   0.04836   0.07077   0.00000  Uiso   1.00
H78    H     0.35049   0.21344   0.03602   0.00000  Uiso   1.00
H79    H     0.09681   0.05399   0.10451   0.00000  Uiso   1.00
H80    H     0.39544   0.86924   0.06392   0.00000  Uiso   1.00
H81    H     0.44960   0.40974   0.00990   0.00000  Uiso   1.00
H82    H     0.91471   0.07349   0.15433   0.00000  Uiso   1.00
H83    H     0.54444   0.68392   0.06873   0.00000  Uiso   1.00
O84    O     0.59030   0.56396   0.02970   0.00000  Uiso   1.00
O85    O     0.88855   0.12280   0.21919   0.00000  Uiso   1.00
O86    O     0.71475   0.61169   0.10688   0.00000  Uiso   1.00
N87    N     0.58615   0.45401   0.07727   0.00000  Uiso   1.00
N88    N     0.08606   0.13966   0.21230   0.00000  Uiso   1.00
N89    N     0.67478   0.77542   0.13227   0.00000  Uiso   1.00
N90    N     0.48394   0.40691   0.03322   0.00000  Uiso   1.00
N91    N     0.98385   0.09255   0.16825   0.00000  Uiso   1.00
N92    N     0.57258   0.72832   0.08822   0.00000  Uiso   1.00
C93    C     0.95804   0.37282   0.85552   0.00000  Uiso   1.00
C94    C     0.96839   0.29426   0.88481   0.00000  Uiso   1.00
C95    C     0.03400   0.20197   0.88490   0.00000  Uiso   1.00
C96    C     0.03202   0.14075   0.91416   0.00000  Uiso   1.00
C97    C     0.05797   0.01417   0.95535   0.00000  Uiso   1.00
C98    C     0.83055   0.38088   0.84760   0.00000  Uiso   1.00
C99    C     0.78028   0.36143   0.81639   0.00000  Uiso   1.00
C100   C     0.66227   0.37315   0.81432   0.00000  Uiso   1.00
C101   C     0.47424   0.38112   0.79773   0.00000  Uiso   1.00
C102   C     0.99282   0.48125   0.86966   0.00000  Uiso   1.00
C103   C     0.07896   0.54622   0.85699   0.00000  Uiso   1.00
C104   C     0.09755   0.64245   0.87349   0.00000  Uiso   1.00
C105   C     0.16145   0.80627   0.89115   0.00000  Uiso   1.00
C106   C     0.83785   0.42821   0.90732   0.00000  Uiso   1.00
C107   C     0.90310   0.32435   0.91295   0.00000  Uiso   1.00
C108   C     0.90102   0.26326   0.94221   0.00000  Uiso   1.00
C109   C     0.96662   0.17089   0.94234   0.00000  Uiso   1.00
C110   C     0.76526   0.41097   0.87573   0.00000  Uiso   1.00
C111   C     0.64730   0.42272   0.87371   0.00000  Uiso   1.00
C112   C     0.59687   0.40329   0.84251   0.00000  Uiso   1.00
C113   C     0.92753   0.51134   0.89779   0.00000  Uiso   1.00
C114   C     0.94598   0.60750   0.91431   0.00000  Uiso   1.00
C115   C     0.03214   0.67259   0.90168   0.00000  Uiso   1.00
H116   H     0.00886   0.34939   0.83362   0.00000  Uiso   1.00
H117   H     0.08451   0.17871   0.86312   0.00000  Uiso   1.00
H118   H     0.83083   0.33816   0.79462   0.00000  Uiso   1.00
H119   H     0.12946   0.52291   0.83522   0.00000  Uiso   1.00
H120   H     0.13954   0.00273   0.90823   0.00000  Uiso   1.00
H121   H     0.60466   0.33897   0.76381   0.00000  Uiso   1.00
H122   H     0.23439   0.72855   0.84941   0.00000  Uiso   1.00
H123   H     0.78702   0.45164   0.92923   0.00000  Uiso   1.00
H124   H     0.85049   0.28656   0.96398   0.00000  Uiso   1.00
H125   H     0.59681   0.44601   0.89549   0.00000  Uiso   1.00
H126   H     0.89544   0.63076   0.93608   0.00000  Uiso   1.00
H127   H     0.94960   0.09026   0.99010   0.00000  Uiso   1.00
H128   H     0.41471   0.42651   0.84567   0.00000  Uiso   1.00
H129   H     0.04444   0.81608   0.93127   0.00000  Uiso   1.00
O130   O     0.09030   0.93604   0.97030   0.00000  Uiso   1.00
O131   O     0.38855   0.37720   0.78081   0.00000  Uiso   1.00
O132   O     0.21475   0.88831   0.89312   0.00000  Uiso   1.00
N133   N     0.08615   0.04599   0.92273   0.00000  Uiso   1.00
N134   N     0.58606   0.36034   0.78770   0.00000  Uiso   1.00
N135   N     0.17478   0.72458   0.86773   0.00000  Uiso   1.00
N136   N     0.98394   0.09309   0.96678   0.00000  Uiso   1.00
N137   N     0.48385   0.40745   0.83175   0.00000  Uiso   1.00
N138   N     0.07258   0.77168   0.91178   0.00000  Uiso   1.00
C139   C     0.54196   0.12718   0.35552   0.00000  Uiso   1.00
C140   C     0.53161   0.20574   0.38481   0.00000  Uiso   1.00
C141   C     0.46600   0.29803   0.38490   0.00000  Uiso   1.00
C142   C     0.46798   0.35925   0.41416   0.00000  Uiso   1.00
C143   C     0.44203   0.48583   0.45535   0.00000  Uiso   1.00
C144   C     0.66945   0.11912   0.34760   0.00000  Uiso   1.00
C145   C     0.71972   0.13857   0.31639   0.00000  Uiso   1.00
C146   C     0.83773   0.12685   0.31432   0.00000  Uiso   1.00
C147   C     0.02576   0.11888   0.29773   0.00000  Uiso   1.00
C148   C     0.50718   0.01875   0.36966   0.00000  Uiso   1.00
C149   C     0.42104   0.95378   0.35699   0.00000  Uiso   1.00
C150   C     0.40245   0.85755   0.37349   0.00000  Uiso   1.00
C151   C     0.33855   0.69373   0.39115   0.00000  Uiso   1.00
C152   C     0.66215   0.07179   0.40732   0.00000  Uiso   1.00
C153   C     0.59690   0.17565   0.41295   0.00000  Uiso   1.00
C154   C     0.59898   0.23674   0.44221   0.00000  Uiso   1.00
C155   C     0.53338   0.32911   0.44234   0.00000  Uiso   1.00
C156   C     0.73474   0.08903   0.37573   0.00000  Uiso   1.00
C157   C     0.85270   0.07728   0.37371   0.00000  Uiso   1.00
C158   C     0.90313   0.09671   0.34251   0.00000  Uiso   1.00
C159   C     0.57247   0.98866   0.39779   0.00000  Uiso   1.00
C160   C     0.55402   0.89250   0.41431   0.00000  Uiso   1.00
C161   C     0.46786   0.82741   0.40168   0.00000  Uiso   1.00
H162   H     0.49114   0.15061   0.33362   0.00000  Uiso   1.00
H163   H     0.41549   0.32129   0.36312   0.00000  Uiso   1.00
H164   H     0.66917   0.16184   0.29462   0.00000  Uiso   1.00
H165   H     0.37054   0.97709   0.33522   0.00000  Uiso   1.00
H166   H     0.36046   0.49727   0.40823   0.00000  Uiso   1.00
H167   H     0.89534   0.16103   0.26381   0.00000  Uiso   1.00
H168   H     0.26561   0.77145   0.34941   0.00000  Uiso   1.00
H169   H     0.71298   0.04836   0.42923   0.00000  Uiso   1.00
H170   H     0.64951   0.21344   0.46398   0.00000  Uiso   1.00
H171   H     0.90319   0.05399   0.39549   0.00000  Uiso   1.00
H172   H     0.60456   0.86924   0.43608   0.00000  Uiso   1.00
H173   H     0.55040   0.40974   0.49010   0.00000  Uiso   1.00
H174   H     0.08529   0.07349   0.34567   0.00000  Uiso   1.00
H175   H     0.45556   0.68392   0.43127   0.00000  Uiso   1.00
O176   O     0.40970   0.56396   0.47030   0.00000  Uiso   1.00
O177   O     0.11145   0.12280   0.28081   0.00000  Uiso   1.00
O178   O     0.28525   0.61169   0.39312   0.00000  Uiso   1.00
N179   N     0.41385   0.45401   0.42273   0.00000  Uiso   1.00
N180   N     0.91394   0.13966   0.28770   0.00000  Uiso   1.00
N181   N     0.32522   0.77542   0.36773   0.00000  Uiso   1.00
N182   N     0.51606   0.40691   0.46678   0.00000  Uiso   1.00
N183   N     0.01615   0.09255   0.33175   0.00000  Uiso   1.00
N184   N     0.42742   0.72832   0.41178   0.00000  Uiso   1.00
C185   C     0.95804   0.62718   0.35552   0.00000  Uiso   1.00
C186   C     0.96839   0.70574   0.38481   0.00000  Uiso   1.00
C187   C     0.03400   0.79803   0.38490   0.00000  Uiso   1.00
C188   C     0.03202   0.85925   0.41416   0.00000  Uiso   1.00
C189   C     0.05797   0.98583   0.45535   0.00000  Uiso   1.00
C190   C     0.83055   0.61912   0.34760   0.00000  Uiso   1.00
C191   C     0.78028   0.63857   0.31639   0.00000  Uiso   1.00
C192   C     0.66227   0.62685   0.31432   0.00000  Uiso   1.00
C193   C     0.47424   0.61888   0.29773   0.00000  Uiso   1.00
C194   C     0.99282   0.51875   0.36966   0.00000  Uiso   1.00
C195   C     0.07896   0.45378   0.35699   0.00000  Uiso   1.00
C196   C     0.09755   0.35755   0.37349   0.00000  Uiso   1.00
C197   C     0.16145   0.19373   0.39115   0.00000  Uiso   1.00
C198   C     0.83785   0.57179   0.40732   0.00000  Uiso   1.00
C199   C     0.90310   0.67565   0.41295   0.00000  Uiso   1.00
C200   C     0.90102   0.73674   0.44221   0.00000  Uiso   1.00
C201   C     0.96662   0.82911   0.44234   0.00000  Uiso   1.00
C202   C     0.76526   0.58903   0.37573   0.00000  Uiso   1.00
C203   C     0.64730   0.57728   0.37371   0.00000  Uiso   1.00
C204   C     0.59687   0.59671   0.34251   0.00000  Uiso   1.00
C205   C     0.92753   0.48866   0.39779   0.00000  Uiso   1.00
C206   C     0.94598   0.39250   0.41431   0.00000  Uiso   1.00
C207   C     0.03214   0.32741   0.40168   0.00000  Uiso   1.00
H208   H     0.00886   0.65061   0.33362   0.00000  Uiso   1.00
H209   H     0.08451   0.82129   0.36312   0.00000  Uiso   1.00
H210   H     0.83083   0.66184   0.29462   0.00000  Uiso   1.00
H211   H     0.12946   0.47709   0.33522   0.00000  Uiso   1.00
H212   H     0.13954   0.99727   0.40823   0.00000  Uiso   1.00
H213   H     0.60466   0.66103   0.26381   0.00000  Uiso   1.00
H214   H     0.23439   0.27145   0.34941   0.00000  Uiso   1.00
H215   H     0.78702   0.54836   0.42923   0.00000  Uiso   1.00
H216   H     0.85049   0.71344   0.46398   0.00000  Uiso   1.00
H217   H     0.59681   0.55399   0.39549   0.00000  Uiso   1.00
H218   H     0.89544   0.36924   0.43608   0.00000  Uiso   1.00
H219   H     0.94960   0.90974   0.49010   0.00000  Uiso   1.00
H220   H     0.41471   0.57349   0.34567   0.00000  Uiso   1.00
H221   H     0.04444   0.18392   0.43127   0.00000  Uiso   1.00
O222   O     0.09030   0.06396   0.47030   0.00000  Uiso   1.00
O223   O     0.38855   0.62280   0.28081   0.00000  Uiso   1.00
O224   O     0.21475   0.11169   0.39312   0.00000  Uiso   1.00
N225   N     0.08615   0.95401   0.42273   0.00000  Uiso   1.00
N226   N     0.58606   0.63966   0.28770   0.00000  Uiso   1.00
N227   N     0.17478   0.27542   0.36773   0.00000  Uiso   1.00
N228   N     0.98394   0.90691   0.46678   0.00000  Uiso   1.00
N229   N     0.48385   0.59255   0.33175   0.00000  Uiso   1.00
N230   N     0.07258   0.22832   0.41178   0.00000  Uiso   1.00
C231   C     0.54196   0.87282   0.85552   0.00000  Uiso   1.00
C232   C     0.53161   0.79426   0.88481   0.00000  Uiso   1.00
C233   C     0.46600   0.70197   0.88490   0.00000  Uiso   1.00
C234   C     0.46798   0.64075   0.91416   0.00000  Uiso   1.00
C235   C     0.44203   0.51417   0.95535   0.00000  Uiso   1.00
C236   C     0.66945   0.88088   0.84760   0.00000  Uiso   1.00
C237   C     0.71972   0.86143   0.81639   0.00000  Uiso   1.00
C238   C     0.83773   0.87315   0.81432   0.00000  Uiso   1.00
C239   C     0.02576   0.88112   0.79773   0.00000  Uiso   1.00
C240   C     0.50718   0.98125   0.86966   0.00000  Uiso   1.00
C241   C     0.42104   0.04622   0.85699   0.00000  Uiso   1.00
C242   C     0.40245   0.14245   0.87349   0.00000  Uiso   1.00
C243   C     0.33855   0.30627   0.89115   0.00000  Uiso   1.00
C244   C     0.66215   0.92821   0.90732   0.00000  Uiso   1.00
C245   C     0.59690   0.82435   0.91295   0.00000  Uiso   1.00
C246   C     0.59898   0.76326   0.94221   0.00000  Uiso   1.00
C247   C     0.53338   0.67089   0.94234   0.00000  Uiso   1.00
C248   C     0.73474   0.91097   0.87573   0.00000  Uiso   1.00
C249   C     0.85270   0.92272   0.87371   0.00000  Uiso   1.00
C250   C     0.90313   0.90329   0.84251   0.00000  Uiso   1.00
C251   C     0.57247   0.01134   0.89779   0.00000  Uiso   1.00
C252   C     0.55402   0.10750   0.91431   0.00000  Uiso   1.00
C253   C     0.46786   0.17259   0.90168   0.00000  Uiso   1.00
H254   H     0.49114   0.84939   0.83362   0.00000  Uiso   1.00
H255   H     0.41549   0.67871   0.86312   0.00000  Uiso   1.00
H256   H     0.66917   0.83816   0.79462   0.00000  Uiso   1.00
H257   H     0.37054   0.02291   0.83522   0.00000  Uiso   1.00
H258   H     0.36046   0.50273   0.90823   0.00000  Uiso   1.00
H259   H     0.89534   0.83897   0.76381   0.00000  Uiso   1.00
H260   H     0.26561   0.22855   0.84941   0.00000  Uiso   1.00
H261   H     0.71298   0.95164   0.92923   0.00000  Uiso   1.00
H262   H     0.64951   0.78656   0.96398   0.00000  Uiso   1.00
H263   H     0.90319   0.94601   0.89549   0.00000  Uiso   1.00
H264   H     0.60456   0.13076   0.93608   0.00000  Uiso   1.00
H265   H     0.55040   0.59026   0.99010   0.00000  Uiso   1.00
H266   H     0.08529   0.92651   0.84567   0.00000  Uiso   1.00
H267   H     0.45556   0.31608   0.93127   0.00000  Uiso   1.00
O268   O     0.40970   0.43604   0.97030   0.00000  Uiso   1.00
O269   O     0.11145   0.87720   0.78081   0.00000  Uiso   1.00
O270   O     0.28525   0.38831   0.89312   0.00000  Uiso   1.00
N271   N     0.41385   0.54599   0.92273   0.00000  Uiso   1.00
N272   N     0.91394   0.86034   0.78770   0.00000  Uiso   1.00
N273   N     0.32522   0.22458   0.86773   0.00000  Uiso   1.00
N274   N     0.51606   0.59309   0.96678   0.00000  Uiso   1.00
N275   N     0.01615   0.90745   0.83175   0.00000  Uiso   1.00
N276   N     0.42742   0.27168   0.91178   0.00000  Uiso   1.00
C277   C     0.04196   0.62718   0.14448   0.00000  Uiso   1.00
C278   C     0.03161   0.70574   0.11519   0.00000  Uiso   1.00
C279   C     0.96600   0.79803   0.11510   0.00000  Uiso   1.00
C280   C     0.96798   0.85925   0.08584   0.00000  Uiso   1.00
C281   C     0.94203   0.98583   0.04465   0.00000  Uiso   1.00
C282   C     0.16945   0.61912   0.15240   0.00000  Uiso   1.00
C283   C     0.21972   0.63857   0.18361   0.00000  Uiso   1.00
C284   C     0.33773   0.62685   0.18568   0.00000  Uiso   1.00
C285   C     0.52576   0.61888   0.20227   0.00000  Uiso   1.00
C286   C     0.00718   0.51875   0.13034   0.00000  Uiso   1.00
C287   C     0.92104   0.45378   0.14301   0.00000  Uiso   1.00
C288   C     0.90245   0.35755   0.12651   0.00000  Uiso   1.00
C289   C     0.83855   0.19373   0.10885   0.00000  Uiso   1.00
C290   C     0.16215   0.57179   0.09268   0.00000  Uiso   1.00
C291   C     0.09690   0.67565   0.08705   0.00000  Uiso   1.00
C292   C     0.09898   0.73674   0.05779   0.00000  Uiso   1.00
C293   C     0.03338   0.82911   0.05766   0.00000  Uiso   1.00
C294   C     0.23474   0.58903   0.12427   0.00000  Uiso   1.00
C295   C     0.35270   0.57728   0.12629   0.00000  Uiso   1.00
C296   C     0.40313   0.59671   0.15749   0.00000  Uiso   1.00
C297   C     0.07247   0.48866   0.10221   0.00000  Uiso   1.00
C298   C     0.05402   0.39250   0.08569   0.00000  Uiso   1.00
C299   C     0.96786   0.32741   0.09832   0.00000  Uiso   1.00
H300   H     0.99114   0.65061   0.16638   0.00000  Uiso   1.00
H301   H     0.91549   0.82129   0.13688   0.00000  Uiso   1.00
H302   H     0.16917   0.66184   0.20538   0.00000  Uiso   1.00
H303   H     0.87054   0.47709   0.16478   0.00000  Uiso   1.00
H304   H     0.86046   0.99727   0.09177   0.00000  Uiso   1.00
H305   H     0.39534   0.66103   0.23619   0.00000  Uiso   1.00
H306   H     0.76561   0.27145   0.15059   0.00000  Uiso   1.00
H307   H     0.21298   0.54836   0.07077   0.00000  Uiso   1.00
H308   H     0.14951   0.71344   0.03602   0.00000  Uiso   1.00
H309   H     0.40319   0.55399   0.10451   0.00000  Uiso   1.00
H310   H     0.10456   0.36924   0.06392   0.00000  Uiso   1.00
H311   H     0.05040   0.90974   0.00990   0.00000  Uiso   1.00
H312   H     0.58529   0.57349   0.15433   0.00000  Uiso   1.00
H313   H     0.95556   0.18392   0.06873   0.00000  Uiso   1.00
O314   O     0.90970   0.06396   0.02970   0.00000  Uiso   1.00
O315   O     0.61145   0.62280   0.21919   0.00000  Uiso   1.00
O316   O     0.78525   0.11169   0.10688   0.00000  Uiso   1.00
N317   N     0.91385   0.95401   0.07727   0.00000  Uiso   1.00
N318   N     0.41394   0.63966   0.21230   0.00000  Uiso   1.00
N319   N     0.82522   0.27542   0.13227   0.00000  Uiso   1.00
N320   N     0.01606   0.90691   0.03322   0.00000  Uiso   1.00
N321   N     0.51615   0.59255   0.16825   0.00000  Uiso   1.00
N322   N     0.92742   0.22832   0.08822   0.00000  Uiso   1.00
C323   C     0.45804   0.87282   0.64448   0.00000  Uiso   1.00
C324   C     0.46839   0.79426   0.61519   0.00000  Uiso   1.00
C325   C     0.53400   0.70197   0.61510   0.00000  Uiso   1.00
C326   C     0.53202   0.64075   0.58584   0.00000  Uiso   1.00
C327   C     0.55797   0.51417   0.54465   0.00000  Uiso   1.00
C328   C     0.33055   0.88088   0.65240   0.00000  Uiso   1.00
C329   C     0.28028   0.86143   0.68361   0.00000  Uiso   1.00
C330   C     0.16227   0.87315   0.68568   0.00000  Uiso   1.00
C331   C     0.97424   0.88112   0.70227   0.00000  Uiso   1.00
C332   C     0.49282   0.98125   0.63034   0.00000  Uiso   1.00
C333   C     0.57896   0.04622   0.64301   0.00000  Uiso   1.00
C334   C     0.59755   0.14245   0.62651   0.00000  Uiso   1.00
C335   C     0.66145   0.30627   0.60885   0.00000  Uiso   1.00
C336   C     0.33785   0.92821   0.59268   0.00000  Uiso   1.00
C337   C     0.40310   0.82435   0.58705   0.00000  Uiso   1.00
C338   C     0.40102   0.76326   0.55779   0.00000  Uiso   1.00
C339   C     0.46662   0.67089   0.55766   0.00000  Uiso   1.00
C340   C     0.26526   0.91097   0.62427   0.00000  Uiso   1.00
C341   C     0.14730   0.92272   0.62629   0.00000  Uiso   1.00
C342   C     0.09687   0.90329   0.65749   0.00000  Uiso   1.00
C343   C     0.42753   0.01134   0.60221   0.00000  Uiso   1.00
C344   C     0.44598   0.10750   0.58569   0.00000  Uiso   1.00
C345   C     0.53214   0.17259   0.59832   0.00000  Uiso   1.00
H346   H     0.50886   0.84939   0.66638   0.00000  Uiso   1.00
H347   H     0.58451   0.67871   0.63688   0.00000  Uiso   1.00
H348   H     0.33083   0.83816   0.70538   0.00000  Uiso   1.00
H349   H     0.62946   0.02291   0.66478   0.00000  Uiso   1.00
H350   H     0.63954   0.50273   0.59177   0.00000  Uiso   1.00
H351   H     0.10466   0.83897   0.73619   0.00000  Uiso   1.00
H352   H     0.73439   0.22855   0.65059   0.00000  Uiso   1.00
H353   H     0.28702   0.95164   0.57077   0.00000  Uiso   1.00
H354   H     0.35049   0.78656   0.53602   0.00000  Uiso   1.00
H355   H     0.09681   0.94601   0.60451   0.00000  Uiso   1.00
H356   H     0.39544   0.13076   0.56392   0.00000  Uiso   1.00
H357   H     0.44960   0.59026   0.50990   0.00000  Uiso   1.00
H358   H     0.91471   0.92651   0.65433   0.00000  Uiso   1.00
H359   H     0.54444   0.31608   0.56873   0.00000  Uiso   1.00
O360   O     0.59030   0.43604   0.52970   0.00000  Uiso   1.00
O361   O     0.88855   0.87720   0.71919   0.00000  Uiso   1.00
O362   O     0.71475   0.38831   0.60688   0.00000  Uiso   1.00
N363   N     0.58615   0.54599   0.57727   0.00000  Uiso   1.00
N364   N     0.08606   0.86034   0.71230   0.00000  Uiso   1.00
N365   N     0.67478   0.22458   0.63227   0.00000  Uiso   1.00
N366   N     0.48394   0.59309   0.53322   0.00000  Uiso   1.00
N367   N     0.98385   0.90745   0.66825   0.00000  Uiso   1.00
N368   N     0.57258   0.27168   0.58822   0.00000  Uiso   1.00
