data_job_00629
_audit_creation_date              2018-12-19
_audit_creation_method            'Materials Studio'
_symmetry_space_group_name_H-M    'P1'
_symmetry_Int_Tables_number       1
_symmetry_cell_setting            triclinic
loop_
_symmetry_equiv_pos_as_xyz
  x,y,z
_cell_length_a                    12.6870
_cell_length_b                    12.0637
_cell_length_c                    38.2490
_cell_angle_alpha                 90.0000
_cell_angle_beta                  113.7835
_cell_angle_gamma                 90.0000
loop_
_atom_site_label
_atom_site_type_symbol
_atom_site_fract_x
_atom_site_fract_y
_atom_site_fract_z
_atom_site_U_iso_or_equiv
_atom_site_adp_type
_atom_site_occupancy
C1     C     0.45182   0.10355   0.91962   0.00000  Uiso   1.00
C2     C     0.46231   0.21951   0.90548   0.00000  Uiso   1.00
C3     C     0.44765   0.31830   0.92157   0.00000  Uiso   1.00
C4     C     0.46087   0.41569   0.90442   0.00000  Uiso   1.00
C5     C     0.47302   0.59598   0.88733   0.00000  Uiso   1.00
C6     C     0.36126   0.04365   0.88566   0.00000  Uiso   1.00
C7     C     0.26165   0.99456   0.88509   0.00000  Uiso   1.00
C8     C     0.18981   0.94389   0.85126   0.00000  Uiso   1.00
C9     C     0.04512   0.85108   0.80342   0.00000  Uiso   1.00
C10    C     0.56581   0.04562   0.92723   0.00000  Uiso   1.00
C11    C     0.63818   0.99816   0.96160   0.00000  Uiso   1.00
C12    C     0.73855   0.94913   0.96276   0.00000  Uiso   1.00
C13    C     0.91146   0.85938   0.97945   0.00000  Uiso   1.00
C14    C     0.50136   0.10084   0.86054   0.00000  Uiso   1.00
C15    C     0.48922   0.21804   0.87339   0.00000  Uiso   1.00
C16    C     0.50247   0.31530   0.85621   0.00000  Uiso   1.00
C17    C     0.48783   0.41422   0.87227   0.00000  Uiso   1.00
C18    C     0.38816   0.04218   0.85357   0.00000  Uiso   1.00
C19    C     0.31646   0.99156   0.81973   0.00000  Uiso   1.00
C20    C     0.21677   0.94242   0.81911   0.00000  Uiso   1.00
C21    C     0.59273   0.04415   0.89514   0.00000  Uiso   1.00
C22    C     0.69300   0.99518   0.89624   0.00000  Uiso   1.00
C23    C     0.76551   0.94766   0.93061   0.00000  Uiso   1.00
H24    H     0.43086   0.10468   0.94460   0.00000  Uiso   1.00
H25    H     0.42682   0.31940   0.94640   0.00000  Uiso   1.00
H26    H     0.24085   0.99570   0.90993   0.00000  Uiso   1.00
H27    H     0.61733   0.99931   0.98643   0.00000  Uiso   1.00
H28    H     0.43416   0.55680   0.93424   0.00000  Uiso   1.00
H29    H     0.04207   0.87423   0.85734   0.00000  Uiso   1.00
H30    H     0.83594   0.88184   0.01866   0.00000  Uiso   1.00
H31    H     0.52231   0.09969   0.83556   0.00000  Uiso   1.00
H32    H     0.52329   0.31414   0.83138   0.00000  Uiso   1.00
H33    H     0.33732   0.99044   0.79491   0.00000  Uiso   1.00
H34    H     0.71379   0.99405   0.87140   0.00000  Uiso   1.00
H35    H     0.51246   0.55253   0.84088   0.00000  Uiso   1.00
H36    H     0.12036   0.86996   0.76399   0.00000  Uiso   1.00
H37    H     0.91423   0.87757   0.92530   0.00000  Uiso   1.00
O38    O     0.47227   0.69583   0.88677   0.00000  Uiso   1.00
O39    O     0.95786   0.80030   0.78589   0.00000  Uiso   1.00
O40    O     0.99940   0.81030   0.99753   0.00000  Uiso   1.00
N41    N     0.45248   0.52637   0.91285   0.00000  Uiso   1.00
N42    N     0.08588   0.88822   0.84095   0.00000  Uiso   1.00
N43    N     0.82807   0.89531   0.99176   0.00000  Uiso   1.00
N44    N     0.49461   0.52407   0.86261   0.00000  Uiso   1.00
N45    N     0.12801   0.88592   0.79072   0.00000  Uiso   1.00
N46    N     0.87020   0.89301   0.94153   0.00000  Uiso   1.00
C47    C     0.95494   0.45305   0.41954   0.00000  Uiso   1.00
C48    C     0.96508   0.57025   0.40628   0.00000  Uiso   1.00
C49    C     0.95209   0.66753   0.42350   0.00000  Uiso   1.00
C50    C     0.96464   0.76643   0.40701   0.00000  Uiso   1.00
C51    C     0.97658   0.94819   0.39136   0.00000  Uiso   1.00
C52    C     0.86271   0.39544   0.38539   0.00000  Uiso   1.00
C53    C     0.76365   0.34573   0.38506   0.00000  Uiso   1.00
C54    C     0.69004   0.29746   0.35099   0.00000  Uiso   1.00
C55    C     0.54309   0.20775   0.30292   0.00000  Uiso   1.00
C56    C     0.06812   0.39529   0.42589   0.00000  Uiso   1.00
C57    C     0.14177   0.34542   0.45961   0.00000  Uiso   1.00
C58    C     0.24109   0.29700   0.45963   0.00000  Uiso   1.00
C59    C     0.41307   0.20705   0.47445   0.00000  Uiso   1.00
C60    C     0.00034   0.45570   0.35963   0.00000  Uiso   1.00
C61    C     0.98974   0.57169   0.37374   0.00000  Uiso   1.00
C62    C     0.00232   0.67047   0.35722   0.00000  Uiso   1.00
C63    C     0.98935   0.76788   0.37441   0.00000  Uiso   1.00
C64    C     0.88737   0.39688   0.35285   0.00000  Uiso   1.00
C65    C     0.81389   0.34866   0.31878   0.00000  Uiso   1.00
C66    C     0.71474   0.29890   0.31839   0.00000  Uiso   1.00
C67    C     0.09279   0.39673   0.39335   0.00000  Uiso   1.00
C68    C     0.19201   0.34836   0.39333   0.00000  Uiso   1.00
C69    C     0.26579   0.29844   0.42704   0.00000  Uiso   1.00
H70    H     0.93573   0.45192   0.44487   0.00000  Uiso   1.00
H71    H     0.93299   0.66638   0.44868   0.00000  Uiso   1.00
H72    H     0.74460   0.34462   0.41024   0.00000  Uiso   1.00
H73    H     0.12266   0.34432   0.48478   0.00000  Uiso   1.00
H74    H     0.94079   0.90477   0.43854   0.00000  Uiso   1.00
H75    H     0.54357   0.22629   0.35750   0.00000  Uiso   1.00
H76    H     0.34078   0.22566   0.51468   0.00000  Uiso   1.00
H77    H     0.01954   0.45682   0.33430   0.00000  Uiso   1.00
H78    H     0.02141   0.67155   0.33204   0.00000  Uiso   1.00
H79    H     0.83300   0.34979   0.29360   0.00000  Uiso   1.00
H80    H     0.21106   0.34949   0.36814   0.00000  Uiso   1.00
H81    H     0.01254   0.90898   0.34387   0.00000  Uiso   1.00
H82    H     0.61532   0.23049   0.26283   0.00000  Uiso   1.00
H83    H     0.41253   0.22986   0.42001   0.00000  Uiso   1.00
O84    O     0.97634   0.04804   0.39171   0.00000  Uiso   1.00
O85    O     0.45521   0.15788   0.28539   0.00000  Uiso   1.00
O86    O     0.50113   0.15706   0.49161   0.00000  Uiso   1.00
N87    N     0.95744   0.87630   0.41657   0.00000  Uiso   1.00
N88    N     0.58605   0.24197   0.34081   0.00000  Uiso   1.00
N89    N     0.33136   0.24135   0.48776   0.00000  Uiso   1.00
N90    N     0.99606   0.87856   0.36563   0.00000  Uiso   1.00
N91    N     0.62467   0.24423   0.28987   0.00000  Uiso   1.00
N92    N     0.36998   0.24361   0.43681   0.00000  Uiso   1.00
C93    C     0.54818   0.10355   0.58038   0.00000  Uiso   1.00
C94    C     0.53769   0.21951   0.59452   0.00000  Uiso   1.00
C95    C     0.55235   0.31830   0.57843   0.00000  Uiso   1.00
C96    C     0.53913   0.41569   0.59558   0.00000  Uiso   1.00
C97    C     0.52698   0.59598   0.61267   0.00000  Uiso   1.00
C98    C     0.63874   0.04365   0.61434   0.00000  Uiso   1.00
C99    C     0.73835   0.99456   0.61491   0.00000  Uiso   1.00
C100   C     0.81019   0.94389   0.64874   0.00000  Uiso   1.00
C101   C     0.95488   0.85108   0.69658   0.00000  Uiso   1.00
C102   C     0.43419   0.04562   0.57277   0.00000  Uiso   1.00
C103   C     0.36182   0.99816   0.53840   0.00000  Uiso   1.00
C104   C     0.26145   0.94913   0.53724   0.00000  Uiso   1.00
C105   C     0.08854   0.85938   0.52055   0.00000  Uiso   1.00
C106   C     0.49864   0.10084   0.63946   0.00000  Uiso   1.00
C107   C     0.51078   0.21804   0.62661   0.00000  Uiso   1.00
C108   C     0.49753   0.31530   0.64379   0.00000  Uiso   1.00
C109   C     0.51217   0.41422   0.62773   0.00000  Uiso   1.00
C110   C     0.61184   0.04218   0.64643   0.00000  Uiso   1.00
C111   C     0.68354   0.99156   0.68027   0.00000  Uiso   1.00
C112   C     0.78323   0.94242   0.68089   0.00000  Uiso   1.00
C113   C     0.40727   0.04415   0.60486   0.00000  Uiso   1.00
C114   C     0.30700   0.99518   0.60376   0.00000  Uiso   1.00
C115   C     0.23449   0.94766   0.56939   0.00000  Uiso   1.00
H116   H     0.56914   0.10468   0.55540   0.00000  Uiso   1.00
H117   H     0.57318   0.31940   0.55360   0.00000  Uiso   1.00
H118   H     0.75915   0.99570   0.59007   0.00000  Uiso   1.00
H119   H     0.38267   0.99931   0.51357   0.00000  Uiso   1.00
H120   H     0.56584   0.55680   0.56576   0.00000  Uiso   1.00
H121   H     0.95793   0.87423   0.64266   0.00000  Uiso   1.00
H122   H     0.16406   0.88184   0.48134   0.00000  Uiso   1.00
H123   H     0.47769   0.09969   0.66444   0.00000  Uiso   1.00
H124   H     0.47671   0.31414   0.66862   0.00000  Uiso   1.00
H125   H     0.66268   0.99044   0.70509   0.00000  Uiso   1.00
H126   H     0.28621   0.99405   0.62860   0.00000  Uiso   1.00
H127   H     0.48754   0.55253   0.65912   0.00000  Uiso   1.00
H128   H     0.87964   0.86996   0.73601   0.00000  Uiso   1.00
H129   H     0.08577   0.87757   0.57470   0.00000  Uiso   1.00
O130   O     0.52773   0.69583   0.61323   0.00000  Uiso   1.00
O131   O     0.04214   0.80030   0.71411   0.00000  Uiso   1.00
O132   O     0.00060   0.81030   0.50247   0.00000  Uiso   1.00
N133   N     0.54752   0.52637   0.58715   0.00000  Uiso   1.00
N134   N     0.91412   0.88822   0.65905   0.00000  Uiso   1.00
N135   N     0.17193   0.89531   0.50824   0.00000  Uiso   1.00
N136   N     0.50539   0.52407   0.63739   0.00000  Uiso   1.00
N137   N     0.87199   0.88592   0.70928   0.00000  Uiso   1.00
N138   N     0.12980   0.89301   0.55847   0.00000  Uiso   1.00
C139   C     0.04506   0.45305   0.08046   0.00000  Uiso   1.00
C140   C     0.03492   0.57025   0.09372   0.00000  Uiso   1.00
C141   C     0.04791   0.66753   0.07650   0.00000  Uiso   1.00
C142   C     0.03536   0.76643   0.09299   0.00000  Uiso   1.00
C143   C     0.02342   0.94819   0.10864   0.00000  Uiso   1.00
C144   C     0.13729   0.39544   0.11461   0.00000  Uiso   1.00
C145   C     0.23635   0.34573   0.11494   0.00000  Uiso   1.00
C146   C     0.30996   0.29746   0.14901   0.00000  Uiso   1.00
C147   C     0.45691   0.20775   0.19708   0.00000  Uiso   1.00
C148   C     0.93188   0.39529   0.07411   0.00000  Uiso   1.00
C149   C     0.85823   0.34542   0.04039   0.00000  Uiso   1.00
C150   C     0.75891   0.29700   0.04037   0.00000  Uiso   1.00
C151   C     0.58693   0.20705   0.02555   0.00000  Uiso   1.00
C152   C     0.99966   0.45570   0.14037   0.00000  Uiso   1.00
C153   C     0.01026   0.57169   0.12626   0.00000  Uiso   1.00
C154   C     0.99768   0.67047   0.14278   0.00000  Uiso   1.00
C155   C     0.01065   0.76788   0.12559   0.00000  Uiso   1.00
C156   C     0.11263   0.39688   0.14715   0.00000  Uiso   1.00
C157   C     0.18611   0.34866   0.18122   0.00000  Uiso   1.00
C158   C     0.28526   0.29890   0.18161   0.00000  Uiso   1.00
C159   C     0.90721   0.39673   0.10665   0.00000  Uiso   1.00
C160   C     0.80799   0.34836   0.10667   0.00000  Uiso   1.00
C161   C     0.73421   0.29844   0.07296   0.00000  Uiso   1.00
H162   H     0.06427   0.45192   0.05513   0.00000  Uiso   1.00
H163   H     0.06701   0.66638   0.05132   0.00000  Uiso   1.00
H164   H     0.25540   0.34462   0.08976   0.00000  Uiso   1.00
H165   H     0.87734   0.34432   0.01522   0.00000  Uiso   1.00
H166   H     0.05921   0.90477   0.06146   0.00000  Uiso   1.00
H167   H     0.45643   0.22629   0.14250   0.00000  Uiso   1.00
H168   H     0.65922   0.22566   0.98532   0.00000  Uiso   1.00
H169   H     0.98046   0.45682   0.16570   0.00000  Uiso   1.00
H170   H     0.97859   0.67155   0.16796   0.00000  Uiso   1.00
H171   H     0.16700   0.34979   0.20640   0.00000  Uiso   1.00
H172   H     0.78894   0.34949   0.13186   0.00000  Uiso   1.00
H173   H     0.98746   0.90898   0.15613   0.00000  Uiso   1.00
H174   H     0.38468   0.23049   0.23717   0.00000  Uiso   1.00
H175   H     0.58747   0.22986   0.07999   0.00000  Uiso   1.00
O176   O     0.02366   0.04804   0.10829   0.00000  Uiso   1.00
O177   O     0.54479   0.15788   0.21461   0.00000  Uiso   1.00
O178   O     0.49887   0.15706   0.00839   0.00000  Uiso   1.00
N179   N     0.04256   0.87630   0.08343   0.00000  Uiso   1.00
N180   N     0.41395   0.24197   0.15919   0.00000  Uiso   1.00
N181   N     0.66864   0.24135   0.01224   0.00000  Uiso   1.00
N182   N     0.00394   0.87856   0.13437   0.00000  Uiso   1.00
N183   N     0.37533   0.24423   0.21013   0.00000  Uiso   1.00
N184   N     0.63002   0.24361   0.06319   0.00000  Uiso   1.00
C185   C     0.54818   0.89645   0.08038   0.00000  Uiso   1.00
C186   C     0.53769   0.78049   0.09452   0.00000  Uiso   1.00
C187   C     0.55235   0.68170   0.07843   0.00000  Uiso   1.00
C188   C     0.53913   0.58431   0.09558   0.00000  Uiso   1.00
C189   C     0.52698   0.40402   0.11267   0.00000  Uiso   1.00
C190   C     0.63874   0.95635   0.11434   0.00000  Uiso   1.00
C191   C     0.73835   0.00544   0.11491   0.00000  Uiso   1.00
C192   C     0.81019   0.05611   0.14874   0.00000  Uiso   1.00
C193   C     0.95488   0.14892   0.19658   0.00000  Uiso   1.00
C194   C     0.43419   0.95438   0.07277   0.00000  Uiso   1.00
C195   C     0.36182   0.00184   0.03840   0.00000  Uiso   1.00
C196   C     0.26145   0.05087   0.03724   0.00000  Uiso   1.00
C197   C     0.08854   0.14062   0.02055   0.00000  Uiso   1.00
C198   C     0.49864   0.89916   0.13946   0.00000  Uiso   1.00
C199   C     0.51078   0.78196   0.12661   0.00000  Uiso   1.00
C200   C     0.49753   0.68470   0.14379   0.00000  Uiso   1.00
C201   C     0.51217   0.58578   0.12773   0.00000  Uiso   1.00
C202   C     0.61184   0.95782   0.14643   0.00000  Uiso   1.00
C203   C     0.68354   0.00844   0.18027   0.00000  Uiso   1.00
C204   C     0.78323   0.05758   0.18089   0.00000  Uiso   1.00
C205   C     0.40727   0.95585   0.10486   0.00000  Uiso   1.00
C206   C     0.30700   0.00482   0.10376   0.00000  Uiso   1.00
C207   C     0.23449   0.05234   0.06939   0.00000  Uiso   1.00
H208   H     0.56914   0.89532   0.05540   0.00000  Uiso   1.00
H209   H     0.57318   0.68060   0.05360   0.00000  Uiso   1.00
H210   H     0.75915   0.00430   0.09007   0.00000  Uiso   1.00
H211   H     0.38267   0.00069   0.01357   0.00000  Uiso   1.00
H212   H     0.56584   0.44320   0.06576   0.00000  Uiso   1.00
H213   H     0.95793   0.12577   0.14266   0.00000  Uiso   1.00
H214   H     0.16406   0.11816   0.98134   0.00000  Uiso   1.00
H215   H     0.47769   0.90031   0.16444   0.00000  Uiso   1.00
H216   H     0.47671   0.68586   0.16862   0.00000  Uiso   1.00
H217   H     0.66268   0.00956   0.20509   0.00000  Uiso   1.00
H218   H     0.28621   0.00595   0.12860   0.00000  Uiso   1.00
H219   H     0.48754   0.44747   0.15912   0.00000  Uiso   1.00
H220   H     0.87964   0.13004   0.23601   0.00000  Uiso   1.00
H221   H     0.08577   0.12243   0.07470   0.00000  Uiso   1.00
O222   O     0.52773   0.30417   0.11323   0.00000  Uiso   1.00
O223   O     0.04214   0.19970   0.21411   0.00000  Uiso   1.00
O224   O     0.00060   0.18970   0.00247   0.00000  Uiso   1.00
N225   N     0.54752   0.47363   0.08715   0.00000  Uiso   1.00
N226   N     0.91412   0.11178   0.15905   0.00000  Uiso   1.00
N227   N     0.17193   0.10469   0.00824   0.00000  Uiso   1.00
N228   N     0.50539   0.47593   0.13739   0.00000  Uiso   1.00
N229   N     0.87199   0.11408   0.20928   0.00000  Uiso   1.00
N230   N     0.12980   0.10699   0.05847   0.00000  Uiso   1.00
C231   C     0.04506   0.54695   0.58046   0.00000  Uiso   1.00
C232   C     0.03492   0.42975   0.59372   0.00000  Uiso   1.00
C233   C     0.04791   0.33247   0.57650   0.00000  Uiso   1.00
C234   C     0.03536   0.23357   0.59299   0.00000  Uiso   1.00
C235   C     0.02342   0.05181   0.60864   0.00000  Uiso   1.00
C236   C     0.13729   0.60456   0.61461   0.00000  Uiso   1.00
C237   C     0.23635   0.65427   0.61494   0.00000  Uiso   1.00
C238   C     0.30996   0.70254   0.64901   0.00000  Uiso   1.00
C239   C     0.45691   0.79225   0.69708   0.00000  Uiso   1.00
C240   C     0.93188   0.60471   0.57411   0.00000  Uiso   1.00
C241   C     0.85823   0.65458   0.54039   0.00000  Uiso   1.00
C242   C     0.75891   0.70300   0.54037   0.00000  Uiso   1.00
C243   C     0.58693   0.79295   0.52555   0.00000  Uiso   1.00
C244   C     0.99966   0.54430   0.64037   0.00000  Uiso   1.00
C245   C     0.01026   0.42831   0.62626   0.00000  Uiso   1.00
C246   C     0.99768   0.32953   0.64278   0.00000  Uiso   1.00
C247   C     0.01065   0.23212   0.62559   0.00000  Uiso   1.00
C248   C     0.11263   0.60312   0.64715   0.00000  Uiso   1.00
C249   C     0.18611   0.65134   0.68122   0.00000  Uiso   1.00
C250   C     0.28526   0.70110   0.68161   0.00000  Uiso   1.00
C251   C     0.90721   0.60327   0.60665   0.00000  Uiso   1.00
C252   C     0.80799   0.65164   0.60667   0.00000  Uiso   1.00
C253   C     0.73421   0.70156   0.57296   0.00000  Uiso   1.00
H254   H     0.06427   0.54808   0.55513   0.00000  Uiso   1.00
H255   H     0.06701   0.33362   0.55132   0.00000  Uiso   1.00
H256   H     0.25540   0.65538   0.58976   0.00000  Uiso   1.00
H257   H     0.87734   0.65568   0.51522   0.00000  Uiso   1.00
H258   H     0.05921   0.09523   0.56146   0.00000  Uiso   1.00
H259   H     0.45643   0.77371   0.64250   0.00000  Uiso   1.00
H260   H     0.65922   0.77434   0.48532   0.00000  Uiso   1.00
H261   H     0.98046   0.54318   0.66570   0.00000  Uiso   1.00
H262   H     0.97859   0.32845   0.66796   0.00000  Uiso   1.00
H263   H     0.16700   0.65021   0.70640   0.00000  Uiso   1.00
H264   H     0.78894   0.65051   0.63186   0.00000  Uiso   1.00
H265   H     0.98746   0.09102   0.65613   0.00000  Uiso   1.00
H266   H     0.38468   0.76951   0.73717   0.00000  Uiso   1.00
H267   H     0.58747   0.77014   0.57999   0.00000  Uiso   1.00
O268   O     0.02366   0.95196   0.60829   0.00000  Uiso   1.00
O269   O     0.54479   0.84212   0.71461   0.00000  Uiso   1.00
O270   O     0.49887   0.84294   0.50839   0.00000  Uiso   1.00
N271   N     0.04256   0.12370   0.58343   0.00000  Uiso   1.00
N272   N     0.41395   0.75803   0.65919   0.00000  Uiso   1.00
N273   N     0.66864   0.75865   0.51224   0.00000  Uiso   1.00
N274   N     0.00394   0.12144   0.63437   0.00000  Uiso   1.00
N275   N     0.37533   0.75577   0.71013   0.00000  Uiso   1.00
N276   N     0.63002   0.75639   0.56319   0.00000  Uiso   1.00
C277   C     0.45182   0.89645   0.41962   0.00000  Uiso   1.00
C278   C     0.46231   0.78049   0.40548   0.00000  Uiso   1.00
C279   C     0.44765   0.68170   0.42157   0.00000  Uiso   1.00
C280   C     0.46087   0.58431   0.40442   0.00000  Uiso   1.00
C281   C     0.47302   0.40402   0.38733   0.00000  Uiso   1.00
C282   C     0.36126   0.95635   0.38566   0.00000  Uiso   1.00
C283   C     0.26165   0.00544   0.38509   0.00000  Uiso   1.00
C284   C     0.18981   0.05611   0.35126   0.00000  Uiso   1.00
C285   C     0.04512   0.14892   0.30342   0.00000  Uiso   1.00
C286   C     0.56581   0.95438   0.42723   0.00000  Uiso   1.00
C287   C     0.63818   0.00184   0.46160   0.00000  Uiso   1.00
C288   C     0.73855   0.05087   0.46276   0.00000  Uiso   1.00
C289   C     0.91146   0.14062   0.47945   0.00000  Uiso   1.00
C290   C     0.50136   0.89916   0.36054   0.00000  Uiso   1.00
C291   C     0.48922   0.78196   0.37339   0.00000  Uiso   1.00
C292   C     0.50247   0.68470   0.35621   0.00000  Uiso   1.00
C293   C     0.48783   0.58578   0.37227   0.00000  Uiso   1.00
C294   C     0.38816   0.95782   0.35357   0.00000  Uiso   1.00
C295   C     0.31646   0.00844   0.31973   0.00000  Uiso   1.00
C296   C     0.21677   0.05758   0.31911   0.00000  Uiso   1.00
C297   C     0.59273   0.95585   0.39514   0.00000  Uiso   1.00
C298   C     0.69300   0.00482   0.39624   0.00000  Uiso   1.00
C299   C     0.76551   0.05234   0.43061   0.00000  Uiso   1.00
H300   H     0.43086   0.89532   0.44460   0.00000  Uiso   1.00
H301   H     0.42682   0.68060   0.44640   0.00000  Uiso   1.00
H302   H     0.24085   0.00430   0.40993   0.00000  Uiso   1.00
H303   H     0.61733   0.00069   0.48643   0.00000  Uiso   1.00
H304   H     0.43416   0.44320   0.43424   0.00000  Uiso   1.00
H305   H     0.04207   0.12577   0.35734   0.00000  Uiso   1.00
H306   H     0.83594   0.11816   0.51866   0.00000  Uiso   1.00
H307   H     0.52231   0.90031   0.33556   0.00000  Uiso   1.00
H308   H     0.52329   0.68586   0.33138   0.00000  Uiso   1.00
H309   H     0.33732   0.00956   0.29491   0.00000  Uiso   1.00
H310   H     0.71379   0.00595   0.37140   0.00000  Uiso   1.00
H311   H     0.51246   0.44747   0.34088   0.00000  Uiso   1.00
H312   H     0.12036   0.13004   0.26399   0.00000  Uiso   1.00
H313   H     0.91423   0.12243   0.42530   0.00000  Uiso   1.00
O314   O     0.47227   0.30417   0.38677   0.00000  Uiso   1.00
O315   O     0.95786   0.19970   0.28589   0.00000  Uiso   1.00
O316   O     0.99940   0.18970   0.49753   0.00000  Uiso   1.00
N317   N     0.45248   0.47363   0.41285   0.00000  Uiso   1.00
N318   N     0.08588   0.11178   0.34095   0.00000  Uiso   1.00
N319   N     0.82807   0.10469   0.49176   0.00000  Uiso   1.00
N320   N     0.49461   0.47593   0.36261   0.00000  Uiso   1.00
N321   N     0.12801   0.11408   0.29072   0.00000  Uiso   1.00
N322   N     0.87020   0.10699   0.44153   0.00000  Uiso   1.00
C323   C     0.95494   0.54695   0.91954   0.00000  Uiso   1.00
C324   C     0.96508   0.42975   0.90628   0.00000  Uiso   1.00
C325   C     0.95209   0.33247   0.92350   0.00000  Uiso   1.00
C326   C     0.96464   0.23357   0.90701   0.00000  Uiso   1.00
C327   C     0.97658   0.05181   0.89136   0.00000  Uiso   1.00
C328   C     0.86271   0.60456   0.88539   0.00000  Uiso   1.00
C329   C     0.76365   0.65427   0.88506   0.00000  Uiso   1.00
C330   C     0.69004   0.70254   0.85099   0.00000  Uiso   1.00
C331   C     0.54309   0.79225   0.80292   0.00000  Uiso   1.00
C332   C     0.06812   0.60471   0.92589   0.00000  Uiso   1.00
C333   C     0.14177   0.65458   0.95961   0.00000  Uiso   1.00
C334   C     0.24109   0.70300   0.95963   0.00000  Uiso   1.00
C335   C     0.41307   0.79295   0.97445   0.00000  Uiso   1.00
C336   C     0.00034   0.54430   0.85963   0.00000  Uiso   1.00
C337   C     0.98974   0.42831   0.87374   0.00000  Uiso   1.00
C338   C     0.00232   0.32953   0.85722   0.00000  Uiso   1.00
C339   C     0.98935   0.23212   0.87441   0.00000  Uiso   1.00
C340   C     0.88737   0.60312   0.85285   0.00000  Uiso   1.00
C341   C     0.81389   0.65134   0.81878   0.00000  Uiso   1.00
C342   C     0.71474   0.70110   0.81839   0.00000  Uiso   1.00
C343   C     0.09279   0.60327   0.89335   0.00000  Uiso   1.00
C344   C     0.19201   0.65164   0.89333   0.00000  Uiso   1.00
C345   C     0.26579   0.70156   0.92704   0.00000  Uiso   1.00
H346   H     0.93573   0.54808   0.94487   0.00000  Uiso   1.00
H347   H     0.93299   0.33362   0.94868   0.00000  Uiso   1.00
H348   H     0.74460   0.65538   0.91024   0.00000  Uiso   1.00
H349   H     0.12266   0.65568   0.98478   0.00000  Uiso   1.00
H350   H     0.94079   0.09523   0.93854   0.00000  Uiso   1.00
H351   H     0.54357   0.77371   0.85750   0.00000  Uiso   1.00
H352   H     0.34078   0.77434   0.01468   0.00000  Uiso   1.00
H353   H     0.01954   0.54318   0.83430   0.00000  Uiso   1.00
H354   H     0.02141   0.32845   0.83204   0.00000  Uiso   1.00
H355   H     0.83300   0.65021   0.79360   0.00000  Uiso   1.00
H356   H     0.21106   0.65051   0.86814   0.00000  Uiso   1.00
H357   H     0.01254   0.09102   0.84387   0.00000  Uiso   1.00
H358   H     0.61532   0.76951   0.76283   0.00000  Uiso   1.00
H359   H     0.41253   0.77014   0.92001   0.00000  Uiso   1.00
O360   O     0.97634   0.95196   0.89171   0.00000  Uiso   1.00
O361   O     0.45521   0.84212   0.78539   0.00000  Uiso   1.00
O362   O     0.50113   0.84294   0.99161   0.00000  Uiso   1.00
N363   N     0.95744   0.12370   0.91657   0.00000  Uiso   1.00
N364   N     0.58605   0.75803   0.84081   0.00000  Uiso   1.00
N365   N     0.33136   0.75865   0.98776   0.00000  Uiso   1.00
N366   N     0.99606   0.12144   0.86563   0.00000  Uiso   1.00
N367   N     0.62467   0.75577   0.78987   0.00000  Uiso   1.00
N368   N     0.36998   0.75639   0.93681   0.00000  Uiso   1.00
