data_job_00236
_audit_creation_date              2018-12-19
_audit_creation_method            'Materials Studio'
_symmetry_space_group_name_H-M    'P1'
_symmetry_Int_Tables_number       1
_symmetry_cell_setting            triclinic
loop_
_symmetry_equiv_pos_as_xyz
  x,y,z
_cell_length_a                    23.8707
_cell_length_b                    7.2511
_cell_length_c                    13.6232
_cell_angle_alpha                 90.0000
_cell_angle_beta                  97.1753
_cell_angle_gamma                 90.0000
loop_
_atom_site_label
_atom_site_type_symbol
_atom_site_fract_x
_atom_site_fract_y
_atom_site_fract_z
_atom_site_U_iso_or_equiv
_atom_site_adp_type
_atom_site_occupancy
C1     C     0.63748   0.32221   0.77101   0.00000  Uiso   1.00
C2     C     0.68538   0.40343   0.72043   0.00000  Uiso   1.00
C3     C     0.72565   0.30330   0.67792   0.00000  Uiso   1.00
C4     C     0.76598   0.40326   0.63536   0.00000  Uiso   1.00
C5     C     0.64395   0.40344   0.87506   0.00000  Uiso   1.00
C6     C     0.64939   0.30330   0.96255   0.00000  Uiso   1.00
C7     C     0.65484   0.40326   0.05015   0.00000  Uiso   1.00
C8     C     0.58312   0.40343   0.71754   0.00000  Uiso   1.00
C9     C     0.53740   0.30330   0.67261   0.00000  Uiso   1.00
C10    C     0.49162   0.40326   0.62761   0.00000  Uiso   1.00
H11    H     0.63748   0.17185   0.77101   0.00000  Uiso   1.00
H12    H     0.72564   0.15384   0.67794   0.00000  Uiso   1.00
H13    H     0.64938   0.15384   0.96252   0.00000  Uiso   1.00
H14    H     0.53742   0.15384   0.67262   0.00000  Uiso   1.00
H15    H     0.82340   0.21904   0.57480   0.00000  Uiso   1.00
H16    H     0.66258   0.21904   0.17485   0.00000  Uiso   1.00
H17    H     0.42647   0.21904   0.56354   0.00000  Uiso   1.00
N18    N     0.81129   0.34882   0.58755   0.00000  Uiso   1.00
N19    N     0.66095   0.34882   0.14857   0.00000  Uiso   1.00
N20    N     0.44020   0.34882   0.57706   0.00000  Uiso   1.00
C21    C     0.13748   0.82221   0.77101   0.00000  Uiso   1.00
C22    C     0.18538   0.90343   0.72043   0.00000  Uiso   1.00
C23    C     0.22565   0.80330   0.67792   0.00000  Uiso   1.00
C24    C     0.26598   0.90326   0.63536   0.00000  Uiso   1.00
C25    C     0.14395   0.90344   0.87506   0.00000  Uiso   1.00
C26    C     0.14939   0.80330   0.96255   0.00000  Uiso   1.00
C27    C     0.15484   0.90326   0.05015   0.00000  Uiso   1.00
C28    C     0.08312   0.90343   0.71754   0.00000  Uiso   1.00
C29    C     0.03740   0.80330   0.67261   0.00000  Uiso   1.00
C30    C     0.99162   0.90326   0.62761   0.00000  Uiso   1.00
H31    H     0.13748   0.67185   0.77101   0.00000  Uiso   1.00
H32    H     0.22564   0.65384   0.67794   0.00000  Uiso   1.00
H33    H     0.14938   0.65384   0.96252   0.00000  Uiso   1.00
H34    H     0.03742   0.65384   0.67262   0.00000  Uiso   1.00
H35    H     0.32340   0.71904   0.57480   0.00000  Uiso   1.00
H36    H     0.16258   0.71904   0.17485   0.00000  Uiso   1.00
H37    H     0.92647   0.71904   0.56354   0.00000  Uiso   1.00
N38    N     0.31129   0.84882   0.58755   0.00000  Uiso   1.00
N39    N     0.16095   0.84882   0.14857   0.00000  Uiso   1.00
N40    N     0.94020   0.84882   0.57706   0.00000  Uiso   1.00
C41    C     0.36252   0.32221   0.22899   0.00000  Uiso   1.00
C42    C     0.31462   0.40343   0.27957   0.00000  Uiso   1.00
C43    C     0.27435   0.30330   0.32208   0.00000  Uiso   1.00
C44    C     0.23402   0.40326   0.36464   0.00000  Uiso   1.00
C45    C     0.35605   0.40344   0.12494   0.00000  Uiso   1.00
C46    C     0.35061   0.30330   0.03745   0.00000  Uiso   1.00
C47    C     0.34516   0.40326   0.94985   0.00000  Uiso   1.00
C48    C     0.41688   0.40343   0.28246   0.00000  Uiso   1.00
C49    C     0.46260   0.30330   0.32739   0.00000  Uiso   1.00
C50    C     0.50838   0.40326   0.37239   0.00000  Uiso   1.00
H51    H     0.36252   0.17185   0.22899   0.00000  Uiso   1.00
H52    H     0.27436   0.15384   0.32206   0.00000  Uiso   1.00
H53    H     0.35062   0.15384   0.03748   0.00000  Uiso   1.00
H54    H     0.46258   0.15384   0.32738   0.00000  Uiso   1.00
H55    H     0.17660   0.21904   0.42520   0.00000  Uiso   1.00
H56    H     0.33742   0.21904   0.82515   0.00000  Uiso   1.00
H57    H     0.57353   0.21904   0.43646   0.00000  Uiso   1.00
N58    N     0.18871   0.34882   0.41245   0.00000  Uiso   1.00
N59    N     0.33905   0.34882   0.85143   0.00000  Uiso   1.00
N60    N     0.55980   0.34882   0.42294   0.00000  Uiso   1.00
C61    C     0.86252   0.82221   0.22899   0.00000  Uiso   1.00
C62    C     0.81462   0.90343   0.27957   0.00000  Uiso   1.00
C63    C     0.77435   0.80330   0.32208   0.00000  Uiso   1.00
C64    C     0.73402   0.90326   0.36464   0.00000  Uiso   1.00
C65    C     0.85605   0.90344   0.12494   0.00000  Uiso   1.00
C66    C     0.85061   0.80330   0.03745   0.00000  Uiso   1.00
C67    C     0.84516   0.90326   0.94985   0.00000  Uiso   1.00
C68    C     0.91688   0.90343   0.28246   0.00000  Uiso   1.00
C69    C     0.96260   0.80330   0.32739   0.00000  Uiso   1.00
C70    C     0.00838   0.90326   0.37239   0.00000  Uiso   1.00
H71    H     0.86252   0.67185   0.22899   0.00000  Uiso   1.00
H72    H     0.77436   0.65384   0.32206   0.00000  Uiso   1.00
H73    H     0.85062   0.65384   0.03748   0.00000  Uiso   1.00
H74    H     0.96258   0.65384   0.32738   0.00000  Uiso   1.00
H75    H     0.67660   0.71904   0.42520   0.00000  Uiso   1.00
H76    H     0.83742   0.71904   0.82515   0.00000  Uiso   1.00
H77    H     0.07353   0.71904   0.43646   0.00000  Uiso   1.00
N78    N     0.68871   0.84882   0.41245   0.00000  Uiso   1.00
N79    N     0.83905   0.84882   0.85143   0.00000  Uiso   1.00
N80    N     0.05980   0.84882   0.42294   0.00000  Uiso   1.00
C81    C     0.36252   0.67779   0.22899   0.00000  Uiso   1.00
C82    C     0.31462   0.59657   0.27957   0.00000  Uiso   1.00
C83    C     0.27435   0.69670   0.32208   0.00000  Uiso   1.00
C84    C     0.23402   0.59674   0.36464   0.00000  Uiso   1.00
C85    C     0.35605   0.59656   0.12494   0.00000  Uiso   1.00
C86    C     0.35061   0.69670   0.03745   0.00000  Uiso   1.00
C87    C     0.34516   0.59674   0.94985   0.00000  Uiso   1.00
C88    C     0.41688   0.59657   0.28246   0.00000  Uiso   1.00
C89    C     0.46260   0.69670   0.32739   0.00000  Uiso   1.00
C90    C     0.50838   0.59674   0.37239   0.00000  Uiso   1.00
H91    H     0.36252   0.82815   0.22899   0.00000  Uiso   1.00
H92    H     0.27436   0.84616   0.32206   0.00000  Uiso   1.00
H93    H     0.35062   0.84616   0.03748   0.00000  Uiso   1.00
H94    H     0.46258   0.84616   0.32738   0.00000  Uiso   1.00
H95    H     0.17660   0.78096   0.42520   0.00000  Uiso   1.00
H96    H     0.33742   0.78096   0.82515   0.00000  Uiso   1.00
H97    H     0.57353   0.78096   0.43646   0.00000  Uiso   1.00
N98    N     0.18871   0.65118   0.41245   0.00000  Uiso   1.00
N99    N     0.33905   0.65118   0.85143   0.00000  Uiso   1.00
N100   N     0.55980   0.65118   0.42294   0.00000  Uiso   1.00
C101   C     0.86252   0.17779   0.22899   0.00000  Uiso   1.00
C102   C     0.81462   0.09657   0.27957   0.00000  Uiso   1.00
C103   C     0.77435   0.19670   0.32208   0.00000  Uiso   1.00
C104   C     0.73402   0.09674   0.36464   0.00000  Uiso   1.00
C105   C     0.85605   0.09656   0.12494   0.00000  Uiso   1.00
C106   C     0.85061   0.19670   0.03745   0.00000  Uiso   1.00
C107   C     0.84516   0.09674   0.94985   0.00000  Uiso   1.00
C108   C     0.91688   0.09657   0.28246   0.00000  Uiso   1.00
C109   C     0.96260   0.19670   0.32739   0.00000  Uiso   1.00
C110   C     0.00838   0.09674   0.37239   0.00000  Uiso   1.00
H111   H     0.86252   0.32815   0.22899   0.00000  Uiso   1.00
H112   H     0.77436   0.34616   0.32206   0.00000  Uiso   1.00
H113   H     0.85062   0.34616   0.03748   0.00000  Uiso   1.00
H114   H     0.96258   0.34616   0.32738   0.00000  Uiso   1.00
H115   H     0.67660   0.28096   0.42520   0.00000  Uiso   1.00
H116   H     0.83742   0.28096   0.82515   0.00000  Uiso   1.00
H117   H     0.07353   0.28096   0.43646   0.00000  Uiso   1.00
N118   N     0.68871   0.15118   0.41245   0.00000  Uiso   1.00
N119   N     0.83905   0.15118   0.85143   0.00000  Uiso   1.00
N120   N     0.05980   0.15118   0.42294   0.00000  Uiso   1.00
C121   C     0.63748   0.67779   0.77101   0.00000  Uiso   1.00
C122   C     0.68538   0.59657   0.72043   0.00000  Uiso   1.00
C123   C     0.72565   0.69670   0.67792   0.00000  Uiso   1.00
C124   C     0.76598   0.59674   0.63536   0.00000  Uiso   1.00
C125   C     0.64395   0.59656   0.87506   0.00000  Uiso   1.00
C126   C     0.64939   0.69670   0.96255   0.00000  Uiso   1.00
C127   C     0.65484   0.59674   0.05015   0.00000  Uiso   1.00
C128   C     0.58312   0.59657   0.71754   0.00000  Uiso   1.00
C129   C     0.53740   0.69670   0.67261   0.00000  Uiso   1.00
C130   C     0.49162   0.59674   0.62761   0.00000  Uiso   1.00
H131   H     0.63748   0.82815   0.77101   0.00000  Uiso   1.00
H132   H     0.72564   0.84616   0.67794   0.00000  Uiso   1.00
H133   H     0.64938   0.84616   0.96252   0.00000  Uiso   1.00
H134   H     0.53742   0.84616   0.67262   0.00000  Uiso   1.00
H135   H     0.82340   0.78096   0.57480   0.00000  Uiso   1.00
H136   H     0.66258   0.78096   0.17485   0.00000  Uiso   1.00
H137   H     0.42647   0.78096   0.56354   0.00000  Uiso   1.00
N138   N     0.81129   0.65118   0.58755   0.00000  Uiso   1.00
N139   N     0.66095   0.65118   0.14857   0.00000  Uiso   1.00
N140   N     0.44020   0.65118   0.57706   0.00000  Uiso   1.00
C141   C     0.13748   0.17779   0.77101   0.00000  Uiso   1.00
C142   C     0.18538   0.09657   0.72043   0.00000  Uiso   1.00
C143   C     0.22565   0.19670   0.67792   0.00000  Uiso   1.00
C144   C     0.26598   0.09674   0.63536   0.00000  Uiso   1.00
C145   C     0.14395   0.09656   0.87506   0.00000  Uiso   1.00
C146   C     0.14939   0.19670   0.96255   0.00000  Uiso   1.00
C147   C     0.15484   0.09674   0.05015   0.00000  Uiso   1.00
C148   C     0.08312   0.09657   0.71754   0.00000  Uiso   1.00
C149   C     0.03740   0.19670   0.67261   0.00000  Uiso   1.00
C150   C     0.99162   0.09674   0.62761   0.00000  Uiso   1.00
H151   H     0.13748   0.32815   0.77101   0.00000  Uiso   1.00
H152   H     0.22564   0.34616   0.67794   0.00000  Uiso   1.00
H153   H     0.14938   0.34616   0.96252   0.00000  Uiso   1.00
H154   H     0.03742   0.34616   0.67262   0.00000  Uiso   1.00
H155   H     0.32340   0.28096   0.57480   0.00000  Uiso   1.00
H156   H     0.16258   0.28096   0.17485   0.00000  Uiso   1.00
H157   H     0.92647   0.28096   0.56354   0.00000  Uiso   1.00
N158   N     0.31129   0.15118   0.58755   0.00000  Uiso   1.00
N159   N     0.16095   0.15118   0.14857   0.00000  Uiso   1.00
N160   N     0.94020   0.15118   0.57706   0.00000  Uiso   1.00
C161   C     0.84037   0.50000   0.55688   0.00000  Uiso   1.00
C162   C     0.66487   0.50000   0.21172   0.00000  Uiso   1.00
C163   C     0.40720   0.50000   0.54461   0.00000  Uiso   1.00
O164   O     0.88140   0.50000   0.51360   0.00000  Uiso   1.00
O165   O     0.67041   0.50000   0.30085   0.00000  Uiso   1.00
O166   O     0.36064   0.50000   0.49882   0.00000  Uiso   1.00
C167   C     0.34037  -0.00000   0.55688   0.00000  Uiso   1.00
C168   C     0.16487  -0.00000   0.21172   0.00000  Uiso   1.00
C169   C     0.90720  -0.00000   0.54461   0.00000  Uiso   1.00
O170   O     0.38140  -0.00000   0.51360   0.00000  Uiso   1.00
O171   O     0.17041  -0.00000   0.30085   0.00000  Uiso   1.00
O172   O     0.86064  -0.00000   0.49882   0.00000  Uiso   1.00
C173   C     0.15963   0.50000   0.44312   0.00000  Uiso   1.00
C174   C     0.33513   0.50000   0.78828   0.00000  Uiso   1.00
C175   C     0.59280   0.50000   0.45539   0.00000  Uiso   1.00
O176   O     0.11860   0.50000   0.48640   0.00000  Uiso   1.00
O177   O     0.32959   0.50000   0.69915   0.00000  Uiso   1.00
O178   O     0.63936   0.50000   0.50118   0.00000  Uiso   1.00
C179   C     0.65963  -0.00000   0.44312   0.00000  Uiso   1.00
C180   C     0.83513  -0.00000   0.78828   0.00000  Uiso   1.00
C181   C     0.09280  -0.00000   0.45539   0.00000  Uiso   1.00
O182   O     0.61860  -0.00000   0.48640   0.00000  Uiso   1.00
O183   O     0.82959  -0.00000   0.69915   0.00000  Uiso   1.00
O184   O     0.13936  -0.00000   0.50118   0.00000  Uiso   1.00
