data_job_05980
_audit_creation_date              2018-12-19
_audit_creation_method            'Materials Studio'
_symmetry_space_group_name_H-M    'P1'
_symmetry_Int_Tables_number       1
_symmetry_cell_setting            triclinic
loop_
_symmetry_equiv_pos_as_xyz
  x,y,z
_cell_length_a                    12.4148
_cell_length_b                    18.8969
_cell_length_c                    19.2173
_cell_angle_alpha                 115.3530
_cell_angle_beta                  77.3945
_cell_angle_gamma                 79.4924
loop_
_atom_site_label
_atom_site_type_symbol
_atom_site_fract_x
_atom_site_fract_y
_atom_site_fract_z
_atom_site_U_iso_or_equiv
_atom_site_adp_type
_atom_site_occupancy
C1     C     0.90772   0.85264   0.32186   0.00000  Uiso   1.00
C2     C     0.79926   0.86643   0.29830   0.00000  Uiso   1.00
C3     C     0.69657   0.93112   0.34689   0.00000  Uiso   1.00
C4     C     0.60740   0.93276   0.31423   0.00000  Uiso   1.00
C5     C     0.43696   0.96341   0.28959   0.00000  Uiso   1.00
C6     C     0.93383   0.76646   0.31271   0.00000  Uiso   1.00
C7     C     0.94430   0.74710   0.37342   0.00000  Uiso   1.00
C8     C     0.96844   0.66459   0.35288   0.00000  Uiso   1.00
C9     C     0.00701   0.54003   0.35060   0.00000  Uiso   1.00
C10    C     0.00669   0.84820   0.25563   0.00000  Uiso   1.00
C11    C     0.07846   0.89755   0.26833   0.00000  Uiso   1.00
C12    C     0.16395   0.88385   0.19975   0.00000  Uiso   1.00
C13    C     0.31565   0.88620   0.10883   0.00000  Uiso   1.00
C14    C     0.93197   0.74053   0.17746   0.00000  Uiso   1.00
C15    C     0.81243   0.80553   0.21986   0.00000  Uiso   1.00
C16    C     0.72339   0.80708   0.18712   0.00000  Uiso   1.00
C17    C     0.62059   0.87176   0.23566   0.00000  Uiso   1.00
C18    C     0.94700   0.70557   0.23428   0.00000  Uiso   1.00
C19    C     0.97113   0.62307   0.21365   0.00000  Uiso   1.00
C20    C     0.98163   0.60359   0.27431   0.00000  Uiso   1.00
C21    C     0.01986   0.78731   0.17719   0.00000  Uiso   1.00
C22    C     0.10527   0.77352   0.10857   0.00000  Uiso   1.00
C23    C     0.17714   0.82284   0.12117   0.00000  Uiso   1.00
H24    H     0.89747   0.90005   0.38293   0.00000  Uiso   1.00
H25    H     0.68641   0.97823   0.40759   0.00000  Uiso   1.00
H26    H     0.93412   0.79424   0.43410   0.00000  Uiso   1.00
H27    H     0.06824   0.94467   0.32904   0.00000  Uiso   1.00
H28    H     0.45820   0.03804   0.40035   0.00000  Uiso   1.00
H29    H     0.98055   0.65008   0.45626   0.00000  Uiso   1.00
H30    H     0.26337   0.96729   0.23471   0.00000  Uiso   1.00
H31    H     0.94222   0.69312   0.11639   0.00000  Uiso   1.00
H32    H     0.73361   0.75995   0.12642   0.00000  Uiso   1.00
H33    H     0.98132   0.57596   0.15295   0.00000  Uiso   1.00
H34    H     0.11544   0.72639   0.04788   0.00000  Uiso   1.00
H35    H     0.49651   0.86087   0.17215   0.00000  Uiso   1.00
H36    H     0.01886   0.47291   0.22806   0.00000  Uiso   1.00
H37    H     0.30168   0.79013   0.00651   0.00000  Uiso   1.00
O38    O     0.33930   0.99713   0.29767   0.00000  Uiso   1.00
O39    O     0.02463   0.48815   0.37101   0.00000  Uiso   1.00
O40    O     0.39567   0.90433   0.08035   0.00000  Uiso   1.00
N41    N     0.49585   0.98718   0.34526   0.00000  Uiso   1.00
N42    N     0.98420   0.62446   0.39753   0.00000  Uiso   1.00
N43    N     0.24863   0.92102   0.19041   0.00000  Uiso   1.00
N44    N     0.51647   0.89185   0.22247   0.00000  Uiso   1.00
N45    N     0.00481   0.52913   0.27474   0.00000  Uiso   1.00
N46    N     0.26925   0.82569   0.06761   0.00000  Uiso   1.00
C47    C     0.22836   0.68090   0.53355   0.00000  Uiso   1.00
C48    C     0.09774   0.70051   0.57066   0.00000  Uiso   1.00
C49    C     0.04313   0.64862   0.58668   0.00000  Uiso   1.00
C50    C     0.92280   0.67794   0.62075   0.00000  Uiso   1.00
C51    C     0.72960   0.69645   0.67569   0.00000  Uiso   1.00
C52    C     0.24594   0.69132   0.45784   0.00000  Uiso   1.00
C53    C     0.31594   0.63170   0.37901   0.00000  Uiso   1.00
C54    C     0.32038   0.65329   0.31812   0.00000  Uiso   1.00
C55    C     0.35733   0.65755   0.19792   0.00000  Uiso   1.00
C56    C     0.26153   0.74979   0.59409   0.00000  Uiso   1.00
C57    C     0.34467   0.73933   0.62979   0.00000  Uiso   1.00
C58    C     0.36226   0.81015   0.68360   0.00000  Uiso   1.00
C59    C     0.42342   0.90519   0.77493   0.00000  Uiso   1.00
C60    C     0.11180   0.82525   0.56558   0.00000  Uiso   1.00
C61    C     0.03443   0.77892   0.58805   0.00000  Uiso   1.00
C62    C     0.91416   0.80833   0.62212   0.00000  Uiso   1.00
C63    C     0.85937   0.75649   0.63819   0.00000  Uiso   1.00
C64    C     0.18263   0.76972   0.47524   0.00000  Uiso   1.00
C65    C     0.18697   0.79141   0.41445   0.00000  Uiso   1.00
C66    C     0.25695   0.73184   0.33555   0.00000  Uiso   1.00
C67    C     0.19822   0.82819   0.61149   0.00000  Uiso   1.00
C68    C     0.21569   0.89904   0.66524   0.00000  Uiso   1.00
C69    C     0.29883   0.88870   0.70102   0.00000  Uiso   1.00
H70    H     0.27766   0.61985   0.52000   0.00000  Uiso   1.00
H71    H     0.09216   0.58794   0.57320   0.00000  Uiso   1.00
H72    H     0.36494   0.57103   0.36557   0.00000  Uiso   1.00
H73    H     0.39365   0.67865   0.61632   0.00000  Uiso   1.00
H74    H     0.85856   0.58713   0.63982   0.00000  Uiso   1.00
H75    H     0.43377   0.55147   0.20203   0.00000  Uiso   1.00
H76    H     0.49432   0.77841   0.73078   0.00000  Uiso   1.00
H77    H     0.06250   0.88630   0.57912   0.00000  Uiso   1.00
H78    H     0.86518   0.86901   0.63557   0.00000  Uiso   1.00
H79    H     0.13797   0.85209   0.42794   0.00000  Uiso   1.00
H80    H     0.16668   0.95971   0.67869   0.00000  Uiso   1.00
H81    H     0.67434   0.81525   0.69045   0.00000  Uiso   1.00
H82    H     0.24956   0.77959   0.25265   0.00000  Uiso   1.00
H83    H     0.31010   0.00653   0.78140   0.00000  Uiso   1.00
O84    O     0.64053   0.68499   0.70118   0.00000  Uiso   1.00
O85    O     0.39519   0.63823   0.12681   0.00000  Uiso   1.00
O86    O     0.47463   0.93596   0.82052   0.00000  Uiso   1.00
N87    N     0.84229   0.64319   0.64401   0.00000  Uiso   1.00
N88    N     0.38005   0.60986   0.23469   0.00000  Uiso   1.00
N89    N     0.43669   0.82202   0.72901   0.00000  Uiso   1.00
N90    N     0.74316   0.76595   0.67125   0.00000  Uiso   1.00
N91    N     0.28093   0.73261   0.26193   0.00000  Uiso   1.00
N92    N     0.33756   0.94477   0.75625   0.00000  Uiso   1.00
C93    C     0.76412   0.46941   0.14583   0.00000  Uiso   1.00
C94    C     0.67094   0.42820   0.12898   0.00000  Uiso   1.00
C95    C     0.63295   0.41081   0.06243   0.00000  Uiso   1.00
C96    C     0.54693   0.37289   0.05807   0.00000  Uiso   1.00
C97    C     0.40925   0.31195   0.02280   0.00000  Uiso   1.00
C98    C     0.70727   0.54486   0.23056   0.00000  Uiso   1.00
C99    C     0.69985   0.62556   0.24941   0.00000  Uiso   1.00
C100   C     0.64442   0.68585   0.33057   0.00000  Uiso   1.00
C101   C     0.56322   0.80602   0.45299   0.00000  Uiso   1.00
C102   C     0.85573   0.41022   0.15375   0.00000  Uiso   1.00
C103   C     0.97314   0.37772   0.10805   0.00000  Uiso   1.00
C104   C     0.04271   0.32467   0.12455   0.00000  Uiso   1.00
C105   C     0.19201   0.23579   0.12773   0.00000  Uiso   1.00
C106   C     0.67890   0.43299   0.25644   0.00000  Uiso   1.00
C107   C     0.62465   0.40842   0.18906   0.00000  Uiso   1.00
C108   C     0.53867   0.37052   0.18480   0.00000  Uiso   1.00
C109   C     0.50056   0.35308   0.11826   0.00000  Uiso   1.00
C110   C     0.66099   0.52508   0.29064   0.00000  Uiso   1.00
C111   C     0.60557   0.58527   0.37178   0.00000  Uiso   1.00
C112   C     0.59805   0.66603   0.39075   0.00000  Uiso   1.00
C113   C     0.80944   0.39044   0.21383   0.00000  Uiso   1.00
C114   C     0.87885   0.33743   0.23042   0.00000  Uiso   1.00
C115   C     0.99634   0.30485   0.18474   0.00000  Uiso   1.00
H116   H     0.80015   0.48481   0.09906   0.00000  Uiso   1.00
H117   H     0.66879   0.42614   0.01596   0.00000  Uiso   1.00
H118   H     0.73568   0.64084   0.20291   0.00000  Uiso   1.00
H119   H     0.00893   0.39305   0.06156   0.00000  Uiso   1.00
H120   H     0.50271   0.35238   0.95032   0.00000  Uiso   1.00
H121   H     0.64379   0.80511   0.34453   0.00000  Uiso   1.00
H122   H     0.21998   0.28258   0.04647   0.00000  Uiso   1.00
H123   H     0.64286   0.41759   0.30321   0.00000  Uiso   1.00
H124   H     0.50287   0.35522   0.23130   0.00000  Uiso   1.00
H125   H     0.56976   0.56994   0.41826   0.00000  Uiso   1.00
H126   H     0.84300   0.32214   0.27691   0.00000  Uiso   1.00
H127   H     0.36803   0.29483   0.12511   0.00000  Uiso   1.00
H128   H     0.50913   0.74756   0.51932   0.00000  Uiso   1.00
H129   H     0.08531   0.22502   0.22126   0.00000  Uiso   1.00
O130   O     0.34609   0.28381   0.98675   0.00000  Uiso   1.00
O131   O     0.53121   0.87777   0.50392   0.00000  Uiso   1.00
O132   O     0.28715   0.19222   0.11288   0.00000  Uiso   1.00
N133   N     0.49024   0.34738   0.00132   0.00000  Uiso   1.00
N134   N     0.62213   0.77066   0.36987   0.00000  Uiso   1.00
N135   N     0.16082   0.28215   0.09123   0.00000  Uiso   1.00
N136   N     0.41777   0.31641   0.09537   0.00000  Uiso   1.00
N137   N     0.54967   0.73969   0.46393   0.00000  Uiso   1.00
N138   N     0.08836   0.25118   0.18528   0.00000  Uiso   1.00
C139   C     0.09228   0.14736   0.67814   0.00000  Uiso   1.00
C140   C     0.20074   0.13357   0.70170   0.00000  Uiso   1.00
C141   C     0.30343   0.06888   0.65311   0.00000  Uiso   1.00
C142   C     0.39260   0.06724   0.68577   0.00000  Uiso   1.00
C143   C     0.56304   0.03659   0.71041   0.00000  Uiso   1.00
C144   C     0.06617   0.23354   0.68729   0.00000  Uiso   1.00
C145   C     0.05570   0.25290   0.62658   0.00000  Uiso   1.00
C146   C     0.03156   0.33541   0.64712   0.00000  Uiso   1.00
C147   C     0.99299   0.45997   0.64940   0.00000  Uiso   1.00
C148   C     0.99331   0.15180   0.74437   0.00000  Uiso   1.00
C149   C     0.92155   0.10245   0.73167   0.00000  Uiso   1.00
C150   C     0.83605   0.11615   0.80025   0.00000  Uiso   1.00
C151   C     0.68435   0.11380   0.89117   0.00000  Uiso   1.00
C152   C     0.06803   0.25947   0.82254   0.00000  Uiso   1.00
C153   C     0.18757   0.19447   0.78014   0.00000  Uiso   1.00
C154   C     0.27661   0.19292   0.81288   0.00000  Uiso   1.00
C155   C     0.37941   0.12824   0.76434   0.00000  Uiso   1.00
C156   C     0.05300   0.29443   0.76572   0.00000  Uiso   1.00
C157   C     0.02887   0.37693   0.78635   0.00000  Uiso   1.00
C158   C     0.01837   0.39641   0.72569   0.00000  Uiso   1.00
C159   C     0.98014   0.21269   0.82281   0.00000  Uiso   1.00
C160   C     0.89473   0.22648   0.89143   0.00000  Uiso   1.00
C161   C     0.82286   0.17716   0.87883   0.00000  Uiso   1.00
H162   H     0.10253   0.09995   0.61707   0.00000  Uiso   1.00
H163   H     0.31359   0.02177   0.59241   0.00000  Uiso   1.00
H164   H     0.06588   0.20576   0.56590   0.00000  Uiso   1.00
H165   H     0.93176   0.05533   0.67096   0.00000  Uiso   1.00
H166   H     0.54180   0.96197   0.59965   0.00000  Uiso   1.00
H167   H     0.01945   0.34992   0.54374   0.00000  Uiso   1.00
H168   H     0.73663   0.03271   0.76529   0.00000  Uiso   1.00
H169   H     0.05778   0.30688   0.88361   0.00000  Uiso   1.00
H170   H     0.26639   0.24005   0.87358   0.00000  Uiso   1.00
H171   H     0.01868   0.42404   0.84705   0.00000  Uiso   1.00
H172   H     0.88456   0.27361   0.95212   0.00000  Uiso   1.00
H173   H     0.50349   0.13913   0.82785   0.00000  Uiso   1.00
H174   H     0.98114   0.52709   0.77194   0.00000  Uiso   1.00
H175   H     0.69832   0.20987   0.99349   0.00000  Uiso   1.00
O176   O     0.66070   0.00287   0.70233   0.00000  Uiso   1.00
O177   O     0.97537   0.51185   0.62899   0.00000  Uiso   1.00
O178   O     0.60433   0.09567   0.91965   0.00000  Uiso   1.00
N179   N     0.50415   0.01282   0.65474   0.00000  Uiso   1.00
N180   N     0.01580   0.37554   0.60247   0.00000  Uiso   1.00
N181   N     0.75137   0.07898   0.80959   0.00000  Uiso   1.00
N182   N     0.48353   0.10815   0.77753   0.00000  Uiso   1.00
N183   N     0.99519   0.47087   0.72526   0.00000  Uiso   1.00
N184   N     0.73075   0.17431   0.93239   0.00000  Uiso   1.00
C185   C     0.77164   0.31910   0.46645   0.00000  Uiso   1.00
C186   C     0.90226   0.29949   0.42934   0.00000  Uiso   1.00
C187   C     0.95687   0.35138   0.41332   0.00000  Uiso   1.00
C188   C     0.07720   0.32206   0.37925   0.00000  Uiso   1.00
C189   C     0.27040   0.30355   0.32431   0.00000  Uiso   1.00
C190   C     0.75406   0.30869   0.54216   0.00000  Uiso   1.00
C191   C     0.68406   0.36830   0.62099   0.00000  Uiso   1.00
C192   C     0.67962   0.34671   0.68188   0.00000  Uiso   1.00
C193   C     0.64267   0.34245   0.80208   0.00000  Uiso   1.00
C194   C     0.73847   0.25021   0.40591   0.00000  Uiso   1.00
C195   C     0.65533   0.26067   0.37021   0.00000  Uiso   1.00
C196   C     0.63774   0.18985   0.31640   0.00000  Uiso   1.00
C197   C     0.57658   0.09481   0.22507   0.00000  Uiso   1.00
C198   C     0.88820   0.17475   0.43442   0.00000  Uiso   1.00
C199   C     0.96557   0.22108   0.41195   0.00000  Uiso   1.00
C200   C     0.08584   0.19167   0.37788   0.00000  Uiso   1.00
C201   C     0.14063   0.24351   0.36181   0.00000  Uiso   1.00
C202   C     0.81737   0.23028   0.52476   0.00000  Uiso   1.00
C203   C     0.81303   0.20859   0.58555   0.00000  Uiso   1.00
C204   C     0.74305   0.26816   0.66445   0.00000  Uiso   1.00
C205   C     0.80178   0.17181   0.38851   0.00000  Uiso   1.00
C206   C     0.78431   0.10096   0.33476   0.00000  Uiso   1.00
C207   C     0.70117   0.11130   0.29898   0.00000  Uiso   1.00
H208   H     0.72234   0.38015   0.48000   0.00000  Uiso   1.00
H209   H     0.90785   0.41206   0.42680   0.00000  Uiso   1.00
H210   H     0.63506   0.42897   0.63443   0.00000  Uiso   1.00
H211   H     0.60635   0.32135   0.38368   0.00000  Uiso   1.00
H212   H     0.14144   0.41287   0.36018   0.00000  Uiso   1.00
H213   H     0.56623   0.44853   0.79797   0.00000  Uiso   1.00
H214   H     0.50568   0.22159   0.26922   0.00000  Uiso   1.00
H215   H     0.93750   0.11370   0.42088   0.00000  Uiso   1.00
H216   H     0.13482   0.13099   0.36443   0.00000  Uiso   1.00
H217   H     0.86203   0.14791   0.57206   0.00000  Uiso   1.00
H218   H     0.83332   0.04029   0.32131   0.00000  Uiso   1.00
H219   H     0.32566   0.18475   0.30956   0.00000  Uiso   1.00
H220   H     0.75045   0.22041   0.74735   0.00000  Uiso   1.00
H221   H     0.68990   0.99347   0.21860   0.00000  Uiso   1.00
O222   O     0.35947   0.31501   0.29882   0.00000  Uiso   1.00
O223   O     0.60481   0.36177   0.87319   0.00000  Uiso   1.00
O224   O     0.52537   0.06404   0.17949   0.00000  Uiso   1.00
N225   N     0.15771   0.35681   0.35599   0.00000  Uiso   1.00
N226   N     0.61995   0.39014   0.76531   0.00000  Uiso   1.00
N227   N     0.56331   0.17798   0.27099   0.00000  Uiso   1.00
N228   N     0.25684   0.23405   0.32875   0.00000  Uiso   1.00
N229   N     0.71907   0.26739   0.73807   0.00000  Uiso   1.00
N230   N     0.66244   0.05523   0.24375   0.00000  Uiso   1.00
C231   C     0.23588   0.53059   0.85417   0.00000  Uiso   1.00
C232   C     0.32906   0.57180   0.87102   0.00000  Uiso   1.00
C233   C     0.36705   0.58919   0.93757   0.00000  Uiso   1.00
C234   C     0.45307   0.62711   0.94193   0.00000  Uiso   1.00
C235   C     0.59075   0.68805   0.97720   0.00000  Uiso   1.00
C236   C     0.29273   0.45514   0.76944   0.00000  Uiso   1.00
C237   C     0.30015   0.37444   0.75059   0.00000  Uiso   1.00
C238   C     0.35558   0.31415   0.66943   0.00000  Uiso   1.00
C239   C     0.43678   0.19398   0.54701   0.00000  Uiso   1.00
C240   C     0.14427   0.58978   0.84625   0.00000  Uiso   1.00
C241   C     0.02686   0.62228   0.89196   0.00000  Uiso   1.00
C242   C     0.95729   0.67533   0.87545   0.00000  Uiso   1.00
C243   C     0.80799   0.76421   0.87227   0.00000  Uiso   1.00
C244   C     0.32110   0.56701   0.74356   0.00000  Uiso   1.00
C245   C     0.37535   0.59158   0.81094   0.00000  Uiso   1.00
C246   C     0.46133   0.62948   0.81520   0.00000  Uiso   1.00
C247   C     0.49944   0.64692   0.88174   0.00000  Uiso   1.00
C248   C     0.33901   0.47492   0.70936   0.00000  Uiso   1.00
C249   C     0.39444   0.41473   0.62822   0.00000  Uiso   1.00
C250   C     0.40195   0.33397   0.60925   0.00000  Uiso   1.00
C251   C     0.19056   0.60956   0.78617   0.00000  Uiso   1.00
C252   C     0.12115   0.66257   0.76958   0.00000  Uiso   1.00
C253   C     0.00366   0.69515   0.81526   0.00000  Uiso   1.00
H254   H     0.19985   0.51519   0.90094   0.00000  Uiso   1.00
H255   H     0.33121   0.57386   0.98405   0.00000  Uiso   1.00
H256   H     0.26432   0.35916   0.79709   0.00000  Uiso   1.00
H257   H     0.99108   0.60695   0.93844   0.00000  Uiso   1.00
H258   H     0.49729   0.64762   0.04968   0.00000  Uiso   1.00
H259   H     0.35621   0.19489   0.65547   0.00000  Uiso   1.00
H260   H     0.78002   0.71742   0.95353   0.00000  Uiso   1.00
H261   H     0.35714   0.58241   0.69679   0.00000  Uiso   1.00
H262   H     0.49713   0.64478   0.76870   0.00000  Uiso   1.00
H263   H     0.43024   0.43006   0.58174   0.00000  Uiso   1.00
H264   H     0.15700   0.67786   0.72309   0.00000  Uiso   1.00
H265   H     0.63197   0.70517   0.87489   0.00000  Uiso   1.00
H266   H     0.49087   0.25244   0.48068   0.00000  Uiso   1.00
H267   H     0.91469   0.77498   0.77874   0.00000  Uiso   1.00
O268   O     0.65391   0.71619   0.01325   0.00000  Uiso   1.00
O269   O     0.46879   0.12223   0.49608   0.00000  Uiso   1.00
O270   O     0.71285   0.80778   0.88712   0.00000  Uiso   1.00
N271   N     0.50976   0.65262   0.99868   0.00000  Uiso   1.00
N272   N     0.37787   0.22935   0.63013   0.00000  Uiso   1.00
N273   N     0.83918   0.71785   0.90877   0.00000  Uiso   1.00
N274   N     0.58223   0.68359   0.90463   0.00000  Uiso   1.00
N275   N     0.45033   0.26031   0.53607   0.00000  Uiso   1.00
N276   N     0.91164   0.74882   0.81472   0.00000  Uiso   1.00
