data_job_06709
_audit_creation_date              2018-12-19
_audit_creation_method            'Materials Studio'
_symmetry_space_group_name_H-M    'P1'
_symmetry_Int_Tables_number       1
_symmetry_cell_setting            triclinic
loop_
_symmetry_equiv_pos_as_xyz
  x,y,z
_cell_length_a                    19.3353
_cell_length_b                    20.3607
_cell_length_c                    24.2613
_cell_angle_alpha                 105.1224
_cell_angle_beta                  74.3355
_cell_angle_gamma                 70.1190
loop_
_atom_site_label
_atom_site_type_symbol
_atom_site_fract_x
_atom_site_fract_y
_atom_site_fract_z
_atom_site_U_iso_or_equiv
_atom_site_adp_type
_atom_site_occupancy
C1     C     0.20075   0.53696   0.28346   0.00000  Uiso   1.00
C2     C     0.21805   0.45652   0.24505   0.00000  Uiso   1.00
C3     C     0.29111   0.39292   0.22048   0.00000  Uiso   1.00
C4     C     0.29471   0.32445   0.18669   0.00000  Uiso   1.00
C5     C     0.33179   0.20025   0.12838   0.00000  Uiso   1.00
C6     C     0.16871   0.58585   0.24970   0.00000  Uiso   1.00
C7     C     0.20028   0.63100   0.22903   0.00000  Uiso   1.00
C8     C     0.16234   0.67140   0.19916   0.00000  Uiso   1.00
C9     C     0.12279   0.74803   0.14810   0.00000  Uiso   1.00
C10    C     0.13083   0.56267   0.34445   0.00000  Uiso   1.00
C11    C     0.13054   0.58836   0.40345   0.00000  Uiso   1.00
C12    C     0.06070   0.60927   0.45336   0.00000  Uiso   1.00
C13    C     0.96234   0.64992   0.54941   0.00000  Uiso   1.00
C14    C     0.07722   0.52843   0.26716   0.00000  Uiso   1.00
C15    C     0.15095   0.45189   0.23620   0.00000  Uiso   1.00
C16    C     0.15444   0.38349   0.20244   0.00000  Uiso   1.00
C17    C     0.22749   0.31980   0.17782   0.00000  Uiso   1.00
C18    C     0.10162   0.58121   0.24084   0.00000  Uiso   1.00
C19    C     0.06362   0.62156   0.21100   0.00000  Uiso   1.00
C20    C     0.09513   0.66676   0.19029   0.00000  Uiso   1.00
C21    C     0.06373   0.55804   0.33559   0.00000  Uiso   1.00
C22    C     0.99388   0.57892   0.38541   0.00000  Uiso   1.00
C23    C     0.99348   0.60463   0.44448   0.00000  Uiso   1.00
H24    H     0.25298   0.54057   0.29035   0.00000  Uiso   1.00
H25    H     0.34302   0.39653   0.22734   0.00000  Uiso   1.00
H26    H     0.25220   0.63458   0.23590   0.00000  Uiso   1.00
H27    H     0.18247   0.59194   0.41029   0.00000  Uiso   1.00
H28    H     0.41326   0.23481   0.15355   0.00000  Uiso   1.00
H29    H     0.22176   0.73675   0.17162   0.00000  Uiso   1.00
H30    H     0.07472   0.64684   0.53936   0.00000  Uiso   1.00
H31    H     0.02498   0.52482   0.26026   0.00000  Uiso   1.00
H32    H     0.10251   0.37992   0.19560   0.00000  Uiso   1.00
H33    H     0.01169   0.61796   0.20416   0.00000  Uiso   1.00
H34    H     0.94197   0.57532   0.37855   0.00000  Uiso   1.00
H35    H     0.21806   0.22132   0.12779   0.00000  Uiso   1.00
H36    H     0.02655   0.72327   0.14586   0.00000  Uiso   1.00
H37    H     0.87951   0.63336   0.51359   0.00000  Uiso   1.00
O38    O     0.37078   0.13303   0.09866   0.00000  Uiso   1.00
O39    O     0.11952   0.79157   0.12237   0.00000  Uiso   1.00
O40    O     0.92662   0.67361   0.60483   0.00000  Uiso   1.00
N41    N     0.35668   0.25152   0.15637   0.00000  Uiso   1.00
N42    N     0.17764   0.72080   0.17325   0.00000  Uiso   1.00
N43    N     0.04016   0.63676   0.51706   0.00000  Uiso   1.00
N44    N     0.25164   0.24426   0.14251   0.00000  Uiso   1.00
N45    N     0.07260   0.71354   0.15939   0.00000  Uiso   1.00
N46    N     0.93512   0.62950   0.50320   0.00000  Uiso   1.00
C47    C     0.29090   0.02972   0.79606   0.00000  Uiso   1.00
C48    C     0.22669   0.10980   0.83912   0.00000  Uiso   1.00
C49    C     0.14927   0.12889   0.87770   0.00000  Uiso   1.00
C50    C     0.09960   0.20536   0.91350   0.00000  Uiso   1.00
C51    C     0.99579   0.32129   0.98076   0.00000  Uiso   1.00
C52    C     0.31769   0.03050   0.73116   0.00000  Uiso   1.00
C53    C     0.31678   0.98291   0.67897   0.00000  Uiso   1.00
C54    C     0.34372   0.99261   0.62389   0.00000  Uiso   1.00
C55    C     0.38124   0.98539   0.52354   0.00000  Uiso   1.00
C56    C     0.36223   0.01866   0.81444   0.00000  Uiso   1.00
C57    C     0.39880   0.96109   0.83226   0.00000  Uiso   1.00
C58    C     0.46326   0.96081   0.84728   0.00000  Uiso   1.00
C59    C     0.56994   0.93520   0.87623   0.00000  Uiso   1.00
C60    C     0.34038   0.13157   0.79104   0.00000  Uiso   1.00
C61    C     0.25357   0.16512   0.83640   0.00000  Uiso   1.00
C62    C     0.20400   0.24158   0.87215   0.00000  Uiso   1.00
C63    C     0.12652   0.26078   0.91077   0.00000  Uiso   1.00
C64    C     0.34456   0.08582   0.72844   0.00000  Uiso   1.00
C65    C     0.37151   0.09559   0.67343   0.00000  Uiso   1.00
C66    C     0.37064   0.04803   0.62116   0.00000  Uiso   1.00
C67    C     0.38910   0.07398   0.81172   0.00000  Uiso   1.00
C68    C     0.45352   0.07378   0.82672   0.00000  Uiso   1.00
C69    C     0.49017   0.01623   0.84456   0.00000  Uiso   1.00
H70    H     0.26999   0.98665   0.79817   0.00000  Uiso   1.00
H71    H     0.12849   0.08607   0.87978   0.00000  Uiso   1.00
H72    H     0.29599   0.94010   0.68109   0.00000  Uiso   1.00
H73    H     0.37799   0.91829   0.83436   0.00000  Uiso   1.00
H74    H     0.98346   0.22068   0.96905   0.00000  Uiso   1.00
H75    H     0.33666   0.91289   0.55009   0.00000  Uiso   1.00
H76    H     0.50957   0.86690   0.87328   0.00000  Uiso   1.00
H77    H     0.36130   0.17464   0.78892   0.00000  Uiso   1.00
H78    H     0.22481   0.28437   0.87003   0.00000  Uiso   1.00
H79    H     0.39231   0.13840   0.67134   0.00000  Uiso   1.00
H80    H     0.47430   0.11660   0.82461   0.00000  Uiso   1.00
H81    H     0.06164   0.38164   0.96113   0.00000  Uiso   1.00
H82    H     0.41484   0.07383   0.54217   0.00000  Uiso   1.00
H83    H     0.58775   0.02785   0.86537   0.00000  Uiso   1.00
O84    O     0.93111   0.36996   0.01860   0.00000  Uiso   1.00
O85    O     0.39451   0.96613   0.46894   0.00000  Uiso   1.00
O86    O     0.62135   0.90580   0.89296   0.00000  Uiso   1.00
N87    N     0.02060   0.24350   0.95607   0.00000  Uiso   1.00
N88    N     0.35080   0.95574   0.56436   0.00000  Uiso   1.00
N89    N     0.51247   0.91273   0.86651   0.00000  Uiso   1.00
N90    N     0.06266   0.33011   0.95181   0.00000  Uiso   1.00
N91    N     0.39287   0.04235   0.56010   0.00000  Uiso   1.00
N92    N     0.55454   0.99934   0.86225   0.00000  Uiso   1.00
C93    C     0.89169   0.28221   0.66210   0.00000  Uiso   1.00
C94    C     0.98186   0.24873   0.62619   0.00000  Uiso   1.00
C95    C     0.02718   0.28895   0.62548   0.00000  Uiso   1.00
C96    C     0.10882   0.24795   0.58971   0.00000  Uiso   1.00
C97    C     0.24352   0.20790   0.53906   0.00000  Uiso   1.00
C98    C     0.85764   0.26052   0.61414   0.00000  Uiso   1.00
C99    C     0.79851   0.31065   0.60332   0.00000  Uiso   1.00
C100   C     0.77557   0.27957   0.55741   0.00000  Uiso   1.00
C101   C     0.71738   0.25781   0.48809   0.00000  Uiso   1.00
C102   C     0.87967   0.23847   0.70329   0.00000  Uiso   1.00
C103   C     0.83905   0.27006   0.76743   0.00000  Uiso   1.00
C104   C     0.83464   0.22042   0.79658   0.00000  Uiso   1.00
C105   C     0.81064   0.16444   0.86568   0.00000  Uiso   1.00
C106   C     0.95607   0.13788   0.59982   0.00000  Uiso   1.00
C107   C     0.01684   0.17034   0.59236   0.00000  Uiso   1.00
C108   C     0.09842   0.12927   0.55657   0.00000  Uiso   1.00
C109   C     0.14386   0.16942   0.55582   0.00000  Uiso   1.00
C110   C     0.89262   0.18213   0.58031   0.00000  Uiso   1.00
C111   C     0.86975   0.15097   0.53441   0.00000  Uiso   1.00
C112   C     0.81061   0.20103   0.52352   0.00000  Uiso   1.00
C113   C     0.91465   0.16008   0.66946   0.00000  Uiso   1.00
C114   C     0.91029   0.11038   0.69852   0.00000  Uiso   1.00
C115   C     0.86967   0.14189   0.76268   0.00000  Uiso   1.00
H116   H     0.86445   0.34324   0.68844   0.00000  Uiso   1.00
H117   H     0.00010   0.34962   0.65167   0.00000  Uiso   1.00
H118   H     0.77146   0.37131   0.62951   0.00000  Uiso   1.00
H119   H     0.81199   0.33073   0.79359   0.00000  Uiso   1.00
H120   H     0.16590   0.32212   0.59596   0.00000  Uiso   1.00
H121   H     0.68378   0.36786   0.54926   0.00000  Uiso   1.00
H122   H     0.76924   0.28229   0.89526   0.00000  Uiso   1.00
H123   H     0.98330   0.07685   0.57348   0.00000  Uiso   1.00
H124   H     0.12547   0.06860   0.53040   0.00000  Uiso   1.00
H125   H     0.89683   0.09030   0.50824   0.00000  Uiso   1.00
H126   H     0.93736   0.04972   0.67232   0.00000  Uiso   1.00
H127   H     0.26766   0.09404   0.49753   0.00000  Uiso   1.00
H128   H     0.78553   0.13978   0.45083   0.00000  Uiso   1.00
H129   H     0.87100   0.05421   0.79683   0.00000  Uiso   1.00
O130   O     0.30815   0.20747   0.52046   0.00000  Uiso   1.00
O131   O     0.67562   0.26748   0.45920   0.00000  Uiso   1.00
O132   O     0.78775   0.15521   0.91314   0.00000  Uiso   1.00
N133   N     0.17034   0.26957   0.57872   0.00000  Uiso   1.00
N134   N     0.71959   0.31233   0.53505   0.00000  Uiso   1.00
N135   N     0.79948   0.23234   0.85852   0.00000  Uiso   1.00
N136   N     0.22509   0.14684   0.52576   0.00000  Uiso   1.00
N137   N     0.77435   0.18961   0.48208   0.00000  Uiso   1.00
N138   N     0.85424   0.10961   0.80556   0.00000  Uiso   1.00
C139   C     0.43731   0.75313   0.20065   0.00000  Uiso   1.00
C140   C     0.46433   0.66893   0.18724   0.00000  Uiso   1.00
C141   C     0.41569   0.63637   0.20827   0.00000  Uiso   1.00
C142   C     0.45182   0.55832   0.19091   0.00000  Uiso   1.00
C143   C     0.48133   0.43426   0.17569   0.00000  Uiso   1.00
C144   C     0.46091   0.75893   0.13747   0.00000  Uiso   1.00
C145   C     0.40939   0.80205   0.11666   0.00000  Uiso   1.00
C146   C     0.44264   0.79977   0.05741   0.00000  Uiso   1.00
C147   C     0.46685   0.81547   0.96494   0.00000  Uiso   1.00
C148   C     0.48992   0.77620   0.23049   0.00000  Uiso   1.00
C149   C     0.46280   0.83386   0.28788   0.00000  Uiso   1.00
C150   C     0.52048   0.84613   0.30694   0.00000  Uiso   1.00
C151   C     0.58973   0.88865   0.35890   0.00000  Uiso   1.00
C152   C     0.58797   0.67242   0.13243   0.00000  Uiso   1.00
C153   C     0.54617   0.62510   0.15018   0.00000  Uiso   1.00
C154   C     0.58239   0.54708   0.13279   0.00000  Uiso   1.00
C155   C     0.53380   0.51441   0.15379   0.00000  Uiso   1.00
C156   C     0.54275   0.71510   0.10041   0.00000  Uiso   1.00
C157   C     0.57609   0.71276   0.04118   0.00000  Uiso   1.00
C158   C     0.52463   0.75586   0.02028   0.00000  Uiso   1.00
C159   C     0.57176   0.73237   0.19344   0.00000  Uiso   1.00
C160   C     0.62949   0.74456   0.21241   0.00000  Uiso   1.00
C161   C     0.60246   0.80222   0.26982   0.00000  Uiso   1.00
H162   H     0.37360   0.78726   0.22949   0.00000  Uiso   1.00
H163   H     0.35236   0.67032   0.23694   0.00000  Uiso   1.00
H164   H     0.34607   0.83597   0.14534   0.00000  Uiso   1.00
H165   H     0.39947   0.86777   0.31654   0.00000  Uiso   1.00
H166   H     0.36490   0.52133   0.22883   0.00000  Uiso   1.00
H167   H     0.35163   0.87065   0.03571   0.00000  Uiso   1.00
H168   H     0.46424   0.93770   0.39672   0.00000  Uiso   1.00
H169   H     0.65169   0.63829   0.10358   0.00000  Uiso   1.00
H170   H     0.64572   0.51317   0.10412   0.00000  Uiso   1.00
H171   H     0.63942   0.67883   0.01252   0.00000  Uiso   1.00
H172   H     0.69282   0.71063   0.18372   0.00000  Uiso   1.00
H173   H     0.60300   0.39378   0.12102   0.00000  Uiso   1.00
H174   H     0.58973   0.74311   0.92790   0.00000  Uiso   1.00
H175   H     0.70233   0.81016   0.28891   0.00000  Uiso   1.00
O176   O     0.47500   0.37793   0.17753   0.00000  Uiso   1.00
O177   O     0.45759   0.83624   0.92417   0.00000  Uiso   1.00
O178   O     0.60532   0.92421   0.39780   0.00000  Uiso   1.00
N179   N     0.42176   0.50848   0.20339   0.00000  Uiso   1.00
N180   N     0.40935   0.83507   0.02283   0.00000  Uiso   1.00
N181   N     0.51463   0.89777   0.36034   0.00000  Uiso   1.00
N182   N     0.54988   0.43985   0.14538   0.00000  Uiso   1.00
N183   N     0.53747   0.76644   0.96483   0.00000  Uiso   1.00
N184   N     0.64274   0.82914   0.30233   0.00000  Uiso   1.00
C185   C     0.31329   0.55841   0.75091   0.00000  Uiso   1.00
C186   C     0.38757   0.57001   0.74931   0.00000  Uiso   1.00
C187   C     0.46380   0.51298   0.73055   0.00000  Uiso   1.00
C188   C     0.52376   0.53526   0.73244   0.00000  Uiso   1.00
C189   C     0.64151   0.54161   0.72688   0.00000  Uiso   1.00
C190   C     0.28097   0.59692   0.71111   0.00000  Uiso   1.00
C191   C     0.26756   0.56252   0.66024   0.00000  Uiso   1.00
C192   C     0.23778   0.60746   0.62999   0.00000  Uiso   1.00
C193   C     0.18998   0.65561   0.56516   0.00000  Uiso   1.00
C194   C     0.25140   0.60492   0.81749   0.00000  Uiso   1.00
C195   C     0.21310   0.57726   0.85607   0.00000  Uiso   1.00
C196   C     0.15840   0.62894   0.91538   0.00000  Uiso   1.00
C197   C     0.06468   0.68952   0.01572   0.00000  Uiso   1.00
C198   C     0.28421   0.69940   0.78765   0.00000  Uiso   1.00
C199   C     0.37178   0.64659   0.76926   0.00000  Uiso   1.00
C200   C     0.43164   0.66896   0.77119   0.00000  Uiso   1.00
C201   C     0.50794   0.61197   0.75243   0.00000  Uiso   1.00
C202   C     0.26518   0.67350   0.73106   0.00000  Uiso   1.00
C203   C     0.23540   0.71850   0.70088   0.00000  Uiso   1.00
C204   C     0.22196   0.68417   0.64998   0.00000  Uiso   1.00
C205   C     0.23560   0.68150   0.83745   0.00000  Uiso   1.00
C206   C     0.18094   0.73324   0.89671   0.00000  Uiso   1.00
C207   C     0.14258   0.70566   0.93537   0.00000  Uiso   1.00
H208   H     0.32558   0.49880   0.73538   0.00000  Uiso   1.00
H209   H     0.47600   0.45372   0.71510   0.00000  Uiso   1.00
H210   H     0.27978   0.50326   0.64482   0.00000  Uiso   1.00
H211   H     0.22534   0.51799   0.84061   0.00000  Uiso   1.00
H212   H     0.63581   0.43752   0.70140   0.00000  Uiso   1.00
H213   H     0.22206   0.54197   0.55321   0.00000  Uiso   1.00
H214   H     0.10724   0.57305   0.96609   0.00000  Uiso   1.00
H215   H     0.27192   0.75902   0.80318   0.00000  Uiso   1.00
H216   H     0.41940   0.72823   0.78663   0.00000  Uiso   1.00
H217   H     0.22319   0.77776   0.71634   0.00000  Uiso   1.00
H218   H     0.16874   0.79250   0.91213   0.00000  Uiso   1.00
H219   H     0.58987   0.66032   0.75945   0.00000  Uiso   1.00
H220   H     0.17612   0.76477   0.61126   0.00000  Uiso   1.00
H221   H     0.06130   0.79585   0.02413   0.00000  Uiso   1.00
O222   O     0.71083   0.52396   0.71829   0.00000  Uiso   1.00
O223   O     0.16799   0.66100   0.52388   0.00000  Uiso   1.00
O224   O     0.01736   0.70178   0.06556   0.00000  Uiso   1.00
N225   N     0.60475   0.49418   0.71735   0.00000  Uiso   1.00
N226   N     0.21793   0.59183   0.57879   0.00000  Uiso   1.00
N227   N     0.11057   0.62089   0.96479   0.00000  Uiso   1.00
N228   N     0.58003   0.61407   0.74858   0.00000  Uiso   1.00
N229   N     0.19321   0.71172   0.61003   0.00000  Uiso   1.00
N230   N     0.08585   0.74078   0.99602   0.00000  Uiso   1.00
C231   C     0.76214   0.42399   0.28867   0.00000  Uiso   1.00
C232   C     0.67741   0.46540   0.33887   0.00000  Uiso   1.00
C233   C     0.64006   0.54095   0.37938   0.00000  Uiso   1.00
C234   C     0.56237   0.56817   0.42196   0.00000  Uiso   1.00
C235   C     0.43672   0.63958   0.49961   0.00000  Uiso   1.00
C236   C     0.75411   0.39187   0.22774   0.00000  Uiso   1.00
C237   C     0.78126   0.40559   0.17479   0.00000  Uiso   1.00
C238   C     0.76815   0.37090   0.12382   0.00000  Uiso   1.00
C239   C     0.76162   0.32811   0.02890   0.00000  Uiso   1.00
C240   C     0.80586   0.35578   0.30185   0.00000  Uiso   1.00
C241   C     0.87653   0.33914   0.31121   0.00000  Uiso   1.00
C242   C     0.90700   0.27406   0.32261   0.00000  Uiso   1.00
C243   C     0.98083   0.17524   0.34277   0.00000  Uiso   1.00
C244   C     0.69061   0.33800   0.29227   0.00000  Uiso   1.00
C245   C     0.63856   0.41869   0.34083   0.00000  Uiso   1.00
C246   C     0.56092   0.44580   0.38336   0.00000  Uiso   1.00
C247   C     0.52345   0.52138   0.42392   0.00000  Uiso   1.00
C248   C     0.71526   0.34516   0.22969   0.00000  Uiso   1.00
C249   C     0.70212   0.31044   0.17878   0.00000  Uiso   1.00
C250   C     0.72923   0.32411   0.12578   0.00000  Uiso   1.00
C251   C     0.76701   0.30907   0.30381   0.00000  Uiso   1.00
C252   C     0.79739   0.24400   0.31519   0.00000  Uiso   1.00
C253   C     0.86808   0.22727   0.32457   0.00000  Uiso   1.00
H254   H     0.79239   0.46035   0.28714   0.00000  Uiso   1.00
H255   H     0.67014   0.57708   0.37785   0.00000  Uiso   1.00
H256   H     0.81133   0.44173   0.17329   0.00000  Uiso   1.00
H257   H     0.90658   0.37530   0.30969   0.00000  Uiso   1.00
H258   H     0.51747   0.68590   0.47926   0.00000  Uiso   1.00
H259   H     0.81519   0.40049   0.04794   0.00000  Uiso   1.00
H260   H     0.01605   0.26040   0.33555   0.00000  Uiso   1.00
H261   H     0.66036   0.30163   0.29379   0.00000  Uiso   1.00
H262   H     0.53087   0.40965   0.38487   0.00000  Uiso   1.00
H263   H     0.67205   0.27430   0.18031   0.00000  Uiso   1.00
H264   H     0.76731   0.20787   0.31671   0.00000  Uiso   1.00
H265   H     0.40443   0.55000   0.48495   0.00000  Uiso   1.00
H266   H     0.70215   0.26459   0.05363   0.00000  Uiso   1.00
H267   H     0.90301   0.12451   0.34125   0.00000  Uiso   1.00
O268   O     0.37813   0.69188   0.54189   0.00000  Uiso   1.00
O269   O     0.76875   0.31742   0.97601   0.00000  Uiso   1.00
O270   O     0.03227   0.13364   0.35336   0.00000  Uiso   1.00
N271   N     0.50864   0.63909   0.46811   0.00000  Uiso   1.00
N272   N     0.78698   0.37226   0.06485   0.00000  Uiso   1.00
N273   N     0.97478   0.24128   0.33373   0.00000  Uiso   1.00
N274   N     0.44781   0.56596   0.47117   0.00000  Uiso   1.00
N275   N     0.72615   0.29913   0.06792   0.00000  Uiso   1.00
N276   N     0.91396   0.16815   0.33680   0.00000  Uiso   1.00
C277   C     0.32053   0.47131   0.95719   0.00000  Uiso   1.00
C278   C     0.32623   0.54376   0.95572   0.00000  Uiso   1.00
C279   C     0.27030   0.61706   0.99625   0.00000  Uiso   1.00
C280   C     0.28649   0.67574   0.98720   0.00000  Uiso   1.00
C281   C     0.28477   0.79039   0.99223   0.00000  Uiso   1.00
C282   C     0.39671   0.42358   0.96251   0.00000  Uiso   1.00
C283   C     0.40004   0.39582   0.00873   0.00000  Uiso   1.00
C284   C     0.47557   0.35331   0.00538   0.00000  Uiso   1.00
C285   C     0.58327   0.28134   0.02091   0.00000  Uiso   1.00
C286   C     0.32651   0.42868   0.89294   0.00000  Uiso   1.00
C287   C     0.27082   0.40519   0.88066   0.00000  Uiso   1.00
C288   C     0.28725   0.36696   0.81873   0.00000  Uiso   1.00
C289   C     0.28595   0.30290   0.72625   0.00000  Uiso   1.00
C290   C     0.44874   0.44517   0.86905   0.00000  Uiso   1.00
C291   C     0.39587   0.52956   0.90785   0.00000  Uiso   1.00
C292   C     0.41215   0.58814   0.89873   0.00000  Uiso   1.00
C293   C     0.35626   0.66152   0.93923   0.00000  Uiso   1.00
C294   C     0.46635   0.40938   0.91464   0.00000  Uiso   1.00
C295   C     0.54189   0.36690   0.91121   0.00000  Uiso   1.00
C296   C     0.54533   0.33909   0.95742   0.00000  Uiso   1.00
C297   C     0.39615   0.41448   0.84506   0.00000  Uiso   1.00
C298   C     0.41267   0.37627   0.78314   0.00000  Uiso   1.00
C299   C     0.35702   0.35273   0.77077   0.00000  Uiso   1.00
H300   H     0.26632   0.48236   0.99446   0.00000  Uiso   1.00
H301   H     0.21642   0.62802   0.03330   0.00000  Uiso   1.00
H302   H     0.34614   0.40681   0.04577   0.00000  Uiso   1.00
H303   H     0.21694   0.41618   0.91772   0.00000  Uiso   1.00
H304   H     0.19183   0.78326   0.05525   0.00000  Uiso   1.00
H305   H     0.46534   0.31679   0.08154   0.00000  Uiso   1.00
H306   H     0.19290   0.33655   0.81152   0.00000  Uiso   1.00
H307   H     0.50296   0.43412   0.83177   0.00000  Uiso   1.00
H308   H     0.46605   0.57714   0.86168   0.00000  Uiso   1.00
H309   H     0.59577   0.35593   0.87416   0.00000  Uiso   1.00
H310   H     0.46657   0.36530   0.74611   0.00000  Uiso   1.00
H311   H     0.39444   0.74196   0.91597   0.00000  Uiso   1.00
H312   H     0.66795   0.27549   0.94225   0.00000  Uiso   1.00
H313   H     0.39551   0.29525   0.67224   0.00000  Uiso   1.00
O314   O     0.26459   0.85756   0.00823   0.00000  Uiso   1.00
O315   O     0.62343   0.24557   0.04271   0.00000  Uiso   1.00
O316   O     0.26600   0.27149   0.68846   0.00000  Uiso   1.00
N317   N     0.24457   0.75391   0.01836   0.00000  Uiso   1.00
N318   N     0.50029   0.31780   0.04294   0.00000  Uiso   1.00
N319   N     0.24559   0.33626   0.79050   0.00000  Uiso   1.00
N320   N     0.35359   0.73169   0.94341   0.00000  Uiso   1.00
N321   N     0.60931   0.29558   0.96799   0.00000  Uiso   1.00
N322   N     0.35461   0.31404   0.71555   0.00000  Uiso   1.00
C323   C     0.20419   0.91157   0.47475   0.00000  Uiso   1.00
C324   C     0.26245   0.82774   0.43930   0.00000  Uiso   1.00
C325   C     0.34340   0.79877   0.40331   0.00000  Uiso   1.00
C326   C     0.38646   0.72041   0.37463   0.00000  Uiso   1.00
C327   C     0.48249   0.59747   0.31853   0.00000  Uiso   1.00
C328   C     0.16711   0.92211   0.54233   0.00000  Uiso   1.00
C329   C     0.16791   0.97251   0.59298   0.00000  Uiso   1.00
C330   C     0.13070   0.97360   0.65103   0.00000  Uiso   1.00
C331   C     0.07869   0.99723   0.75490   0.00000  Uiso   1.00
C332   C     0.13675   0.92479   0.45157   0.00000  Uiso   1.00
C333   C     0.11200   0.97745   0.42592   0.00000  Uiso   1.00
C334   C     0.04922   0.98080   0.40758   0.00000  Uiso   1.00
C335   C     0.95006   0.00859   0.37052   0.00000  Uiso   1.00
C336   C     0.13668   0.82390   0.48780   0.00000  Uiso   1.00
C337   C     0.22577   0.78012   0.44639   0.00000  Uiso   1.00
C338   C     0.26871   0.70177   0.41775   0.00000  Uiso   1.00
C339   C     0.34972   0.67270   0.38173   0.00000  Uiso   1.00
C340   C     0.13045   0.87449   0.54942   0.00000  Uiso   1.00
C341   C     0.09322   0.87551   0.60742   0.00000  Uiso   1.00
C342   C     0.09397   0.92589   0.65814   0.00000  Uiso   1.00
C343   C     0.10008   0.87717   0.45866   0.00000  Uiso   1.00
C344   C     0.03731   0.88044   0.44036   0.00000  Uiso   1.00
C345   C     0.01248   0.93310   0.41468   0.00000  Uiso   1.00
H346   H     0.23274   0.94865   0.46923   0.00000  Uiso   1.00
H347   H     0.37176   0.83565   0.39784   0.00000  Uiso   1.00
H348   H     0.19629   0.00936   0.58748   0.00000  Uiso   1.00
H349   H     0.14040   0.01429   0.42044   0.00000  Uiso   1.00
H350   H     0.50973   0.68936   0.32183   0.00000  Uiso   1.00
H351   H     0.13971   0.05567   0.72169   0.00000  Uiso   1.00
H352   H     0.02184   0.06607   0.36947   0.00000  Uiso   1.00
H353   H     0.10813   0.78682   0.49333   0.00000  Uiso   1.00
H354   H     0.24032   0.66493   0.42325   0.00000  Uiso   1.00
H355   H     0.06484   0.83865   0.61289   0.00000  Uiso   1.00
H356   H     0.00895   0.84358   0.44585   0.00000  Uiso   1.00
H357   H     0.40305   0.55080   0.34246   0.00000  Uiso   1.00
H358   H     0.03302   0.91711   0.74232   0.00000  Uiso   1.00
H359   H     0.91516   0.92751   0.39010   0.00000  Uiso   1.00
O360   O     0.54560   0.54282   0.28563   0.00000  Uiso   1.00
O361   O     0.06014   0.02341   0.81023   0.00000  Uiso   1.00
O362   O     0.90550   0.03706   0.34812   0.00000  Uiso   1.00
N363   N     0.46648   0.67348   0.33629   0.00000  Uiso   1.00
N364   N     0.12054   0.01594   0.71014   0.00000  Uiso   1.00
N365   N     0.01033   0.02569   0.38085   0.00000  Uiso   1.00
N366   N     0.40907   0.59892   0.34739   0.00000  Uiso   1.00
N367   N     0.06314   0.94139   0.72124   0.00000  Uiso   1.00
N368   N     0.95293   0.95113   0.39195   0.00000  Uiso   1.00
C369   C     0.79996   0.49900   0.46130   0.00000  Uiso   1.00
C370   C     0.71828   0.50472   0.49615   0.00000  Uiso   1.00
C371   C     0.68978   0.45225   0.47793   0.00000  Uiso   1.00
C372   C     0.61349   0.46779   0.51619   0.00000  Uiso   1.00
C373   C     0.49367   0.46665   0.56202   0.00000  Uiso   1.00
C374   C     0.84003   0.50369   0.50744   0.00000  Uiso   1.00
C375   C     0.91391   0.45036   0.49871   0.00000  Uiso   1.00
C376   C     0.94011   0.46505   0.54647   0.00000  Uiso   1.00
C377   C     0.00936   0.46235   0.60981   0.00000  Uiso   1.00
C378   C     0.78345   0.57146   0.44908   0.00000  Uiso   1.00
C379   C     0.80977   0.57510   0.39127   0.00000  Uiso   1.00
C380   C     0.78835   0.64685   0.38989   0.00000  Uiso   1.00
C381   C     0.76973   0.74936   0.36261   0.00000  Uiso   1.00
C382   C     0.71513   0.61992   0.56164   0.00000  Uiso   1.00
C383   C     0.67220   0.57040   0.55065   0.00000  Uiso   1.00
C384   C     0.59593   0.58603   0.58894   0.00000  Uiso   1.00
C385   C     0.56733   0.53358   0.57078   0.00000  Uiso   1.00
C386   C     0.79396   0.56937   0.56194   0.00000  Uiso   1.00
C387   C     0.82006   0.58414   0.60972   0.00000  Uiso   1.00
C388   C     0.89396   0.53084   0.60107   0.00000  Uiso   1.00
C389   C     0.73737   0.63714   0.50358   0.00000  Uiso   1.00
C390   C     0.71591   0.70888   0.50228   0.00000  Uiso   1.00
C391   C     0.74219   0.71264   0.44449   0.00000  Uiso   1.00
H392   H     0.83583   0.44787   0.41888   0.00000  Uiso   1.00
H393   H     0.72546   0.40142   0.43576   0.00000  Uiso   1.00
H394   H     0.94956   0.39955   0.45653   0.00000  Uiso   1.00
H395   H     0.84542   0.52427   0.34911   0.00000  Uiso   1.00
H396   H     0.58278   0.37888   0.47852   0.00000  Uiso   1.00
H397   H     0.05531   0.37493   0.52231   0.00000  Uiso   1.00
H398   H     0.83573   0.63793   0.29579   0.00000  Uiso   1.00
H399   H     0.67926   0.67105   0.60407   0.00000  Uiso   1.00
H400   H     0.56029   0.63685   0.63112   0.00000  Uiso   1.00
H401   H     0.78439   0.63497   0.65189   0.00000  Uiso   1.00
H402   H     0.68026   0.75969   0.54447   0.00000  Uiso   1.00
H403   H     0.44872   0.56996   0.63708   0.00000  Uiso   1.00
H404   H     0.92126   0.56601   0.68087   0.00000  Uiso   1.00
H405   H     0.70168   0.82901   0.45435   0.00000  Uiso   1.00
O406   O     0.44032   0.44788   0.57226   0.00000  Uiso   1.00
O407   O     0.06028   0.44271   0.62970   0.00000  Uiso   1.00
O408   O     0.77219   0.78776   0.33251   0.00000  Uiso   1.00
N409   N     0.56755   0.42855   0.51212   0.00000  Uiso   1.00
N410   N     0.00934   0.42485   0.55306   0.00000  Uiso   1.00
N411   N     0.80406   0.67074   0.34129   0.00000  Uiso   1.00
N412   N     0.49541   0.53137   0.59744   0.00000  Uiso   1.00
N413   N     0.93720   0.52767   0.63838   0.00000  Uiso   1.00
N414   N     0.73193   0.77356   0.42661   0.00000  Uiso   1.00
C415   C     0.22614   0.07518   0.01601   0.00000  Uiso   1.00
C416   C     0.19010   0.16029   0.03163   0.00000  Uiso   1.00
C417   C     0.22955   0.19856   0.00775   0.00000  Uiso   1.00
C418   C     0.18614   0.27645   0.02785   0.00000  Uiso   1.00
C419   C     0.14237   0.40280   0.04567   0.00000  Uiso   1.00
C420   C     0.21545   0.06634   0.07786   0.00000  Uiso   1.00
C421   C     0.27623   0.02562   0.09285   0.00000  Uiso   1.00
C422   C     0.25416   0.02442   0.15186   0.00000  Uiso   1.00
C423   C     0.24974   0.00488   0.24143   0.00000  Uiso   1.00
C424   C     0.17194   0.04707   0.99209   0.00000  Uiso   1.00
C425   C     0.19613   0.99012   0.93498   0.00000  Uiso   1.00
C426   C     0.13742   0.97268   0.92179   0.00000  Uiso   1.00
C427   C     0.06544   0.92321   0.87821   0.00000  Uiso   1.00
C428   C     0.07887   0.14545   0.09415   0.00000  Uiso   1.00
C429   C     0.11011   0.19845   0.07407   0.00000  Uiso   1.00
C430   C     0.06663   0.27631   0.09421   0.00000  Uiso   1.00
C431   C     0.10601   0.31469   0.07037   0.00000  Uiso   1.00
C432   C     0.13547   0.10451   0.12030   0.00000  Uiso   1.00
C433   C     0.11330   0.10337   0.17930   0.00000  Uiso   1.00
C434   C     0.17403   0.06266   0.19438   0.00000  Uiso   1.00
C435   C     0.09195   0.08524   0.03454   0.00000  Uiso   1.00
C436   C     0.03320   0.06788   0.02144   0.00000  Uiso   1.00
C437   C     0.05729   0.01092   0.96431   0.00000  Uiso   1.00
H438   H     0.28841   0.04546   0.98297   0.00000  Uiso   1.00
H439   H     0.29146   0.16900   0.97491   0.00000  Uiso   1.00
H440   H     0.33812   0.99608   0.05999   0.00000  Uiso   1.00
H441   H     0.25803   0.96060   0.90215   0.00000  Uiso   1.00
H442   H     0.25957   0.32280   0.98472   0.00000  Uiso   1.00
H443   H     0.35797   0.95817   0.16410   0.00000  Uiso   1.00
H444   H     0.18908   0.88334   0.83126   0.00000  Uiso   1.00
H445   H     0.01660   0.17517   0.12720   0.00000  Uiso   1.00
H446   H     0.00473   0.30583   0.12705   0.00000  Uiso   1.00
H447   H     0.05140   0.13291   0.21213   0.00000  Uiso   1.00
H448   H     0.97131   0.09743   0.05429   0.00000  Uiso   1.00
H449   H     0.02685   0.43386   0.10820   0.00000  Uiso   1.00
H450   H     0.12525   0.06923   0.28759   0.00000  Uiso   1.00
H451   H     0.95636   0.99440   0.95475   0.00000  Uiso   1.00
O452   O     0.14032   0.46194   0.04378   0.00000  Uiso   1.00
O453   O     0.26941   0.98356   0.27912   0.00000  Uiso   1.00
O454   O     0.04783   0.88538   0.84244   0.00000  Uiso   1.00
N455   N     0.20643   0.33100   0.01379   0.00000  Uiso   1.00
N456   N     0.29842   0.99011   0.18150   0.00000  Uiso   1.00
N457   N     0.14053   0.92013   0.87033   0.00000  Uiso   1.00
N458   N     0.08120   0.39076   0.08024   0.00000  Uiso   1.00
N459   N     0.17320   0.04987   0.24795   0.00000  Uiso   1.00
N460   N     0.01531   0.97990   0.93678   0.00000  Uiso   1.00
C461   C     0.50385   0.19554   0.24761   0.00000  Uiso   1.00
C462   C     0.42013   0.19973   0.26839   0.00000  Uiso   1.00
C463   C     0.34876   0.26539   0.29413   0.00000  Uiso   1.00
C464   C     0.27845   0.25727   0.31008   0.00000  Uiso   1.00
C465   C     0.14827   0.27461   0.34382   0.00000  Uiso   1.00
C466   C     0.54525   0.15580   0.28300   0.00000  Uiso   1.00
C467   C     0.57910   0.18454   0.32101   0.00000  Uiso   1.00
C468   C     0.61413   0.13942   0.34925   0.00000  Uiso   1.00
C469   C     0.67827   0.08854   0.40562   0.00000  Uiso   1.00
C470   C     0.54758   0.14118   0.17950   0.00000  Uiso   1.00
C471   C     0.58341   0.15762   0.13050   0.00000  Uiso   1.00
C472   C     0.62043   0.10020   0.07160   0.00000  Uiso   1.00
C473   C     0.68818   0.02663   0.96728   0.00000  Uiso   1.00
C474   C     0.50589   0.06433   0.23017   0.00000  Uiso   1.00
C475   C     0.42123   0.12845   0.25891   0.00000  Uiso   1.00
C476   C     0.35102   0.12022   0.27483   0.00000  Uiso   1.00
C477   C     0.27956   0.18587   0.30059   0.00000  Uiso   1.00
C478   C     0.54636   0.08453   0.27352   0.00000  Uiso   1.00
C479   C     0.58135   0.03936   0.30171   0.00000  Uiso   1.00
C480   C     0.61524   0.06802   0.33976   0.00000  Uiso   1.00
C481   C     0.54869   0.06991   0.17002   0.00000  Uiso   1.00
C482   C     0.58566   0.01245   0.11119   0.00000  Uiso   1.00
C483   C     0.62154   0.02880   0.06211   0.00000  Uiso   1.00
H484   H     0.50300   0.25103   0.25499   0.00000  Uiso   1.00
H485   H     0.34793   0.32054   0.30146   0.00000  Uiso   1.00
H486   H     0.57824   0.23969   0.32833   0.00000  Uiso   1.00
H487   H     0.58255   0.21278   0.13785   0.00000  Uiso   1.00
H488   H     0.17650   0.36618   0.34883   0.00000  Uiso   1.00
H489   H     0.66215   0.19569   0.40546   0.00000  Uiso   1.00
H490   H     0.67123   0.13895   0.00379   0.00000  Uiso   1.00
H491   H     0.50675   0.00884   0.22279   0.00000  Uiso   1.00
H492   H     0.35189   0.06506   0.26749   0.00000  Uiso   1.00
H493   H     0.58220   0.98421   0.29436   0.00000  Uiso   1.00
H494   H     0.58651   0.95730   0.10388   0.00000  Uiso   1.00
H495   H     0.17971   0.15883   0.32126   0.00000  Uiso   1.00
H496   H     0.66537   0.98833   0.37789   0.00000  Uiso   1.00
H497   H     0.67444   0.93159   0.97622   0.00000  Uiso   1.00
O498   O     0.07616   0.30386   0.36505   0.00000  Uiso   1.00
O499   O     0.71333   0.08018   0.43934   0.00000  Uiso   1.00
O500   O     0.72524   0.00574   0.91236   0.00000  Uiso   1.00
N501   N     0.19851   0.30966   0.33619   0.00000  Uiso   1.00
N502   N     0.65255   0.15027   0.38915   0.00000  Uiso   1.00
N503   N     0.66106   0.09721   0.01362   0.00000  Uiso   1.00
N504   N     0.20024   0.19809   0.32136   0.00000  Uiso   1.00
N505   N     0.65428   0.03869   0.37431   0.00000  Uiso   1.00
N506   N     0.66279   0.98564   0.99879   0.00000  Uiso   1.00
C507   C     0.83687   0.47688   0.91966   0.00000  Uiso   1.00
C508   C     0.91628   0.41290   0.87011   0.00000  Uiso   1.00
C509   C     0.93391   0.33659   0.84721   0.00000  Uiso   1.00
C510   C     0.00998   0.28694   0.80199   0.00000  Uiso   1.00
C511   C     0.12472   0.18366   0.72835   0.00000  Uiso   1.00
C512   C     0.85698   0.51697   0.97118   0.00000  Uiso   1.00
C513   C     0.82472   0.52817   0.03326   0.00000  Uiso   1.00
C514   C     0.85086   0.56613   0.07312   0.00000  Uiso   1.00
C515   C     0.87348   0.62446   0.15640   0.00000  Uiso   1.00
C516   C     0.80847   0.53335   0.89056   0.00000  Uiso   1.00
C517   C     0.73543   0.55834   0.88486   0.00000  Uiso   1.00
C518   C     0.72072   0.61012   0.85685   0.00000  Uiso   1.00
C519   C     0.66803   0.69388   0.81496   0.00000  Uiso   1.00
C520   C     0.94063   0.52440   0.88007   0.00000  Uiso   1.00
C521   C     0.97264   0.43871   0.84861   0.00000  Uiso   1.00
C522   C     0.04870   0.38916   0.80341   0.00000  Uiso   1.00
C523   C     0.06643   0.31280   0.78044   0.00000  Uiso   1.00
C524   C     0.91333   0.54277   0.94968   0.00000  Uiso   1.00
C525   C     0.93952   0.58074   0.98946   0.00000  Uiso   1.00
C526   C     0.90732   0.59199   0.05158   0.00000  Uiso   1.00
C527   C     0.86483   0.55916   0.86905   0.00000  Uiso   1.00
C528   C     0.85023   0.61091   0.84106   0.00000  Uiso   1.00
C529   C     0.77718   0.63597   0.83531   0.00000  Uiso   1.00
H530   H     0.79300   0.45679   0.93640   0.00000  Uiso   1.00
H531   H     0.89028   0.31664   0.86386   0.00000  Uiso   1.00
H532   H     0.78111   0.50819   0.04988   0.00000  Uiso   1.00
H533   H     0.69183   0.53836   0.90151   0.00000  Uiso   1.00
H534   H     0.02299   0.17264   0.77398   0.00000  Uiso   1.00
H535   H     0.79278   0.57655   0.16622   0.00000  Uiso   1.00
H536   H     0.60452   0.64017   0.85333   0.00000  Uiso   1.00
H537   H     0.98451   0.54450   0.86333   0.00000  Uiso   1.00
H538   H     0.09230   0.40915   0.78678   0.00000  Uiso   1.00
H539   H     0.98313   0.60070   0.97280   0.00000  Uiso   1.00
H540   H     0.89385   0.63087   0.82442   0.00000  Uiso   1.00
H541   H     0.18697   0.24772   0.71141   0.00000  Uiso   1.00
H542   H     0.95675   0.65164   0.10366   0.00000  Uiso   1.00
H543   H     0.76849   0.71525   0.79077   0.00000  Uiso   1.00
O544   O     0.17244   0.11956   0.69367   0.00000  Uiso   1.00
O545   O     0.87040   0.64950   0.20828   0.00000  Uiso   1.00
O546   O     0.62341   0.73295   0.79778   0.00000  Uiso   1.00
N547   N     0.04679   0.20888   0.76975   0.00000  Uiso   1.00
N548   N     0.83156   0.58651   0.13647   0.00000  Uiso   1.00
N549   N     0.65554   0.64600   0.84396   0.00000  Uiso   1.00
N550   N     0.13502   0.24929   0.73608   0.00000  Uiso   1.00
N551   N     0.91979   0.62691   0.10280   0.00000  Uiso   1.00
N552   N     0.74377   0.68640   0.81030   0.00000  Uiso   1.00
