data_job_06121
_audit_creation_date              2018-12-19
_audit_creation_method            'Materials Studio'
_symmetry_space_group_name_H-M    'P1'
_symmetry_Int_Tables_number       1
_symmetry_cell_setting            triclinic
loop_
_symmetry_equiv_pos_as_xyz
  x,y,z
_cell_length_a                    17.3666
_cell_length_b                    16.9977
_cell_length_c                    16.3946
_cell_angle_alpha                 103.3290
_cell_angle_beta                  103.4200
_cell_angle_gamma                 102.8030
loop_
_atom_site_label
_atom_site_type_symbol
_atom_site_fract_x
_atom_site_fract_y
_atom_site_fract_z
_atom_site_U_iso_or_equiv
_atom_site_adp_type
_atom_site_occupancy
C1     C     0.41350   0.29787   0.80093   0.00000  Uiso   1.00
C2     C     0.47223   0.24468   0.81756   0.00000  Uiso   1.00
C3     C     0.55080   0.25957   0.80737   0.00000  Uiso   1.00
C4     C     0.59476   0.20361   0.82589   0.00000  Uiso   1.00
C5     C     0.69104   0.13139   0.84745   0.00000  Uiso   1.00
C6     C     0.33375   0.23728   0.73392   0.00000  Uiso   1.00
C7     C     0.29588   0.24597   0.65342   0.00000  Uiso   1.00
C8     C     0.22327   0.18379   0.60154   0.00000  Uiso   1.00
C9     C     0.10452   0.10012   0.49328   0.00000  Uiso   1.00
C10    C     0.39227   0.32538   0.88625   0.00000  Uiso   1.00
C11    C     0.40359   0.40814   0.93382   0.00000  Uiso   1.00
C12    C     0.38023   0.42012   0.01018   0.00000  Uiso   1.00
C13    C     0.35235   0.47324   0.13843   0.00000  Uiso   1.00
C14    C     0.35187   0.17200   0.85193   0.00000  Uiso   1.00
C15    C     0.43875   0.17631   0.84526   0.00000  Uiso   1.00
C16    C     0.48262   0.12031   0.86380   0.00000  Uiso   1.00
C17    C     0.56123   0.13512   0.85364   0.00000  Uiso   1.00
C18    C     0.30028   0.16892   0.76162   0.00000  Uiso   1.00
C19    C     0.22770   0.10671   0.70985   0.00000  Uiso   1.00
C20    C     0.18974   0.11529   0.62929   0.00000  Uiso   1.00
C21    C     0.35880   0.25701   0.91396   0.00000  Uiso   1.00
C22    C     0.33541   0.26887   0.99025   0.00000  Uiso   1.00
C23    C     0.34670   0.35163   0.03793   0.00000  Uiso   1.00
H24    H     0.43955   0.35110   0.77936   0.00000  Uiso   1.00
H25    H     0.57668   0.31248   0.78593   0.00000  Uiso   1.00
H26    H     0.32180   0.29889   0.63201   0.00000  Uiso   1.00
H27    H     0.42949   0.46103   0.91236   0.00000  Uiso   1.00
H28    H     0.71393   0.23951   0.80539   0.00000  Uiso   1.00
H29    H     0.17649   0.21086   0.48085   0.00000  Uiso   1.00
H30    H     0.40359   0.55276   0.07204   0.00000  Uiso   1.00
H31    H     0.32581   0.11877   0.87350   0.00000  Uiso   1.00
H32    H     0.45670   0.06741   0.88523   0.00000  Uiso   1.00
H33    H     0.20182   0.05381   0.73131   0.00000  Uiso   1.00
H34    H     0.30951   0.21595   0.01166   0.00000  Uiso   1.00
H35    H     0.61655   0.04059   0.88599   0.00000  Uiso   1.00
H36    H     0.07911   0.01194   0.56145   0.00000  Uiso   1.00
H37    H     0.30620   0.35385   0.15264   0.00000  Uiso   1.00
O38    O     0.75338   0.11044   0.85168   0.00000  Uiso   1.00
O39    O     0.04828   0.07286   0.42591   0.00000  Uiso   1.00
O40    O     0.34623   0.52143   0.20153   0.00000  Uiso   1.00
N41    N     0.67306   0.19975   0.82277   0.00000  Uiso   1.00
N42    N     0.17059   0.17296   0.51933   0.00000  Uiso   1.00
N43    N     0.38288   0.49261   0.07203   0.00000  Uiso   1.00
N44    N     0.62065   0.09272   0.86614   0.00000  Uiso   1.00
N45    N     0.11819   0.06592   0.56270   0.00000  Uiso   1.00
N46    N     0.33048   0.38557   0.11540   0.00000  Uiso   1.00
C47    C     0.80451   0.41468   0.30243   0.00000  Uiso   1.00
C48    C     0.81982   0.47430   0.24740   0.00000  Uiso   1.00
C49    C     0.81002   0.55474   0.26324   0.00000  Uiso   1.00
C50    C     0.82715   0.59925   0.20525   0.00000  Uiso   1.00
C51    C     0.84694   0.69710   0.13061   0.00000  Uiso   1.00
C52    C     0.74145   0.33333   0.23929   0.00000  Uiso   1.00
C53    C     0.66576   0.29525   0.24832   0.00000  Uiso   1.00
C54    C     0.61692   0.22108   0.18351   0.00000  Uiso   1.00
C55    C     0.51506   0.10004   0.09632   0.00000  Uiso   1.00
C56    C     0.88503   0.39254   0.33074   0.00000  Uiso   1.00
C57    C     0.93006   0.40420   0.41665   0.00000  Uiso   1.00
C58    C     0.00210   0.37986   0.42884   0.00000  Uiso   1.00
C59    C     0.12317   0.35074   0.48363   0.00000  Uiso   1.00
C60    C     0.85236   0.35067   0.17130   0.00000  Uiso   1.00
C61    C     0.84581   0.43953   0.17617   0.00000  Uiso   1.00
C62    C     0.86296   0.48393   0.11815   0.00000  Uiso   1.00
C63    C     0.85319   0.56443   0.13390   0.00000  Uiso   1.00
C64    C     0.76744   0.29857   0.16807   0.00000  Uiso   1.00
C65    C     0.71870   0.22444   0.10323   0.00000  Uiso   1.00
C66    C     0.64296   0.18625   0.11216   0.00000  Uiso   1.00
C67    C     0.91103   0.35777   0.25951   0.00000  Uiso   1.00
C68    C     0.98300   0.33340   0.27157   0.00000  Uiso   1.00
C69    C     0.02814   0.34503   0.35748   0.00000  Uiso   1.00
H70    H     0.78427   0.44174   0.35788   0.00000  Uiso   1.00
H71    H     0.78990   0.58162   0.31836   0.00000  Uiso   1.00
H72    H     0.64567   0.32216   0.30345   0.00000  Uiso   1.00
H73    H     0.90993   0.43111   0.47175   0.00000  Uiso   1.00
H74    H     0.80758   0.72136   0.24311   0.00000  Uiso   1.00
H75    H     0.50347   0.17426   0.21169   0.00000  Uiso   1.00
H76    H     0.06071   0.40399   0.56660   0.00000  Uiso   1.00
H77    H     0.87259   0.32361   0.11584   0.00000  Uiso   1.00
H78    H     0.88307   0.45701   0.06304   0.00000  Uiso   1.00
H79    H     0.73884   0.19755   0.04813   0.00000  Uiso   1.00
H80    H     0.00310   0.30650   0.21643   0.00000  Uiso   1.00
H81    H     0.88320   0.62023   0.03588   0.00000  Uiso   1.00
H82    H     0.57909   0.07312   0.00446   0.00000  Uiso   1.00
H83    H     0.13633   0.30286   0.35936   0.00000  Uiso   1.00
O84    O     0.85066   0.76067   0.10911   0.00000  Uiso   1.00
O85    O     0.45169   0.04289   0.06789   0.00000  Uiso   1.00
O86    O     0.18278   0.34430   0.53352   0.00000  Uiso   1.00
N87    N     0.82395   0.67926   0.20160   0.00000  Uiso   1.00
N88    N     0.53962   0.16776   0.17221   0.00000  Uiso   1.00
N89    N     0.06059   0.38252   0.50402   0.00000  Uiso   1.00
N90    N     0.86464   0.62484   0.09009   0.00000  Uiso   1.00
N91    N     0.58031   0.11334   0.06070   0.00000  Uiso   1.00
N92    N     0.10128   0.32810   0.39251   0.00000  Uiso   1.00
C93    C     0.29577   0.80262   0.41473   0.00000  Uiso   1.00
C94    C     0.24407   0.81898   0.47685   0.00000  Uiso   1.00
C95    C     0.25926   0.80927   0.56033   0.00000  Uiso   1.00
C96    C     0.20472   0.82742   0.60676   0.00000  Uiso   1.00
C97    C     0.13465   0.84868   0.70866   0.00000  Uiso   1.00
C98    C     0.23624   0.73819   0.33008   0.00000  Uiso   1.00
C99    C     0.24487   0.66058   0.29017   0.00000  Uiso   1.00
C100   C     0.18374   0.61073   0.21305   0.00000  Uiso   1.00
C101   C     0.10155   0.50661   0.08705   0.00000  Uiso   1.00
C102   C     0.32211   0.88460   0.39202   0.00000  Uiso   1.00
C103   C     0.40294   0.93007   0.40415   0.00000  Uiso   1.00
C104   C     0.41412   0.00348   0.37915   0.00000  Uiso   1.00
C105   C     0.46525   0.12667   0.34932   0.00000  Uiso   1.00
C106   C     0.17189   0.85211   0.34873   0.00000  Uiso   1.00
C107   C     0.17678   0.84585   0.44099   0.00000  Uiso   1.00
C108   C     0.12220   0.86402   0.48731   0.00000  Uiso   1.00
C109   C     0.13732   0.85435   0.57086   0.00000  Uiso   1.00
C110   C     0.16895   0.76507   0.29424   0.00000  Uiso   1.00
C111   C     0.10781   0.71533   0.21715   0.00000  Uiso   1.00
C112   C     0.11633   0.63766   0.17713   0.00000  Uiso   1.00
C113   C     0.25483   0.91148   0.35617   0.00000  Uiso   1.00
C114   C     0.26588   0.98482   0.33114   0.00000  Uiso   1.00
C115   C     0.34671   0.03041   0.34324   0.00000  Uiso   1.00
H116   H     0.34816   0.78169   0.44263   0.00000  Uiso   1.00
H117   H     0.31134   0.78847   0.58805   0.00000  Uiso   1.00
H118   H     0.29695   0.63980   0.31792   0.00000  Uiso   1.00
H119   H     0.45499   0.90926   0.43189   0.00000  Uiso   1.00
H120   H     0.24083   0.80780   0.73345   0.00000  Uiso   1.00
H121   H     0.21050   0.49434   0.16386   0.00000  Uiso   1.00
H122   H     0.54377   0.06254   0.40419   0.00000  Uiso   1.00
H123   H     0.11950   0.87303   0.32082   0.00000  Uiso   1.00
H124   H     0.07014   0.88482   0.45956   0.00000  Uiso   1.00
H125   H     0.05575   0.73615   0.18943   0.00000  Uiso   1.00
H126   H     0.21380   0.00560   0.30340   0.00000  Uiso   1.00
H127   H     0.04506   0.88600   0.62916   0.00000  Uiso   1.00
H128   H     0.01473   0.57254   0.05956   0.00000  Uiso   1.00
H129   H     0.34801   0.14074   0.29990   0.00000  Uiso   1.00
O130   O     0.11458   0.85298   0.77476   0.00000  Uiso   1.00
O131   O     0.07480   0.44174   0.02747   0.00000  Uiso   1.00
O132   O     0.51205   0.18720   0.34278   0.00000  Uiso   1.00
N133   N     0.20154   0.82460   0.68987   0.00000  Uiso   1.00
N134   N     0.17318   0.53153   0.15735   0.00000  Uiso   1.00
N135   N     0.48476   0.06274   0.38201   0.00000  Uiso   1.00
N136   N     0.09620   0.86668   0.63375   0.00000  Uiso   1.00
N137   N     0.06784   0.57361   0.10123   0.00000  Uiso   1.00
N138   N     0.37942   0.10481   0.32590   0.00000  Uiso   1.00
C139   C     0.58650   0.70213   0.19907   0.00000  Uiso   1.00
C140   C     0.52777   0.75532   0.18244   0.00000  Uiso   1.00
C141   C     0.44920   0.74043   0.19263   0.00000  Uiso   1.00
C142   C     0.40523   0.79639   0.17411   0.00000  Uiso   1.00
C143   C     0.30896   0.86861   0.15255   0.00000  Uiso   1.00
C144   C     0.66625   0.76272   0.26608   0.00000  Uiso   1.00
C145   C     0.70412   0.75403   0.34658   0.00000  Uiso   1.00
C146   C     0.77673   0.81621   0.39846   0.00000  Uiso   1.00
C147   C     0.89548   0.89988   0.50672   0.00000  Uiso   1.00
C148   C     0.60773   0.67462   0.11375   0.00000  Uiso   1.00
C149   C     0.59641   0.59186   0.06618   0.00000  Uiso   1.00
C150   C     0.61977   0.57988   0.98982   0.00000  Uiso   1.00
C151   C     0.64765   0.52676   0.86157   0.00000  Uiso   1.00
C152   C     0.64813   0.82800   0.14807   0.00000  Uiso   1.00
C153   C     0.56125   0.82369   0.15474   0.00000  Uiso   1.00
C154   C     0.51738   0.87969   0.13620   0.00000  Uiso   1.00
C155   C     0.43877   0.86488   0.14636   0.00000  Uiso   1.00
C156   C     0.69972   0.83108   0.23838   0.00000  Uiso   1.00
C157   C     0.77230   0.89329   0.29015   0.00000  Uiso   1.00
C158   C     0.81026   0.88471   0.37071   0.00000  Uiso   1.00
C159   C     0.64120   0.74299   0.08604   0.00000  Uiso   1.00
C160   C     0.66459   0.73113   0.00975   0.00000  Uiso   1.00
C161   C     0.65330   0.64837   0.96207   0.00000  Uiso   1.00
H162   H     0.56045   0.64890   0.22064   0.00000  Uiso   1.00
H163   H     0.42332   0.68751   0.21407   0.00000  Uiso   1.00
H164   H     0.67820   0.70111   0.36799   0.00000  Uiso   1.00
H165   H     0.57051   0.53897   0.08764   0.00000  Uiso   1.00
H166   H     0.28607   0.76049   0.19461   0.00000  Uiso   1.00
H167   H     0.82351   0.78914   0.51915   0.00000  Uiso   1.00
H168   H     0.59641   0.44724   0.92796   0.00000  Uiso   1.00
H169   H     0.67419   0.88123   0.12650   0.00000  Uiso   1.00
H170   H     0.54330   0.93259   0.11476   0.00000  Uiso   1.00
H171   H     0.79818   0.94619   0.26869   0.00000  Uiso   1.00
H172   H     0.69049   0.78405   0.98834   0.00000  Uiso   1.00
H173   H     0.38345   0.95941   0.11401   0.00000  Uiso   1.00
H174   H     0.92089   0.98806   0.43855   0.00000  Uiso   1.00
H175   H     0.69379   0.64615   0.84736   0.00000  Uiso   1.00
O176   O     0.24662   0.88956   0.14832   0.00000  Uiso   1.00
O177   O     0.95172   0.92714   0.57409   0.00000  Uiso   1.00
O178   O     0.65377   0.47857   0.79847   0.00000  Uiso   1.00
N179   N     0.32694   0.80025   0.17723   0.00000  Uiso   1.00
N180   N     0.82941   0.82704   0.48066   0.00000  Uiso   1.00
N181   N     0.61711   0.50739   0.92797   0.00000  Uiso   1.00
N182   N     0.37935   0.90728   0.13386   0.00000  Uiso   1.00
N183   N     0.88181   0.93408   0.43729   0.00000  Uiso   1.00
N184   N     0.66952   0.61443   0.88460   0.00000  Uiso   1.00
C185   C     0.19549   0.58532   0.69757   0.00000  Uiso   1.00
C186   C     0.18018   0.52570   0.75260   0.00000  Uiso   1.00
C187   C     0.18998   0.44526   0.73676   0.00000  Uiso   1.00
C188   C     0.17285   0.40075   0.79475   0.00000  Uiso   1.00
C189   C     0.15306   0.30290   0.86939   0.00000  Uiso   1.00
C190   C     0.25855   0.66667   0.76071   0.00000  Uiso   1.00
C191   C     0.33424   0.70475   0.75168   0.00000  Uiso   1.00
C192   C     0.38308   0.77892   0.81649   0.00000  Uiso   1.00
C193   C     0.48494   0.89996   0.90368   0.00000  Uiso   1.00
C194   C     0.11497   0.60746   0.66926   0.00000  Uiso   1.00
C195   C     0.06994   0.59580   0.58335   0.00000  Uiso   1.00
C196   C     0.99790   0.62014   0.57116   0.00000  Uiso   1.00
C197   C     0.87682   0.64926   0.51637   0.00000  Uiso   1.00
C198   C     0.14764   0.64933   0.82870   0.00000  Uiso   1.00
C199   C     0.15419   0.56047   0.82383   0.00000  Uiso   1.00
C200   C     0.13704   0.51607   0.88185   0.00000  Uiso   1.00
C201   C     0.14681   0.43557   0.86610   0.00000  Uiso   1.00
C202   C     0.23256   0.70143   0.83193   0.00000  Uiso   1.00
C203   C     0.28130   0.77556   0.89676   0.00000  Uiso   1.00
C204   C     0.35704   0.81375   0.88784   0.00000  Uiso   1.00
C205   C     0.08897   0.64223   0.74049   0.00000  Uiso   1.00
C206   C     0.01700   0.66660   0.72843   0.00000  Uiso   1.00
C207   C     0.97186   0.65497   0.64252   0.00000  Uiso   1.00
H208   H     0.21573   0.55826   0.64212   0.00000  Uiso   1.00
H209   H     0.21010   0.41838   0.68164   0.00000  Uiso   1.00
H210   H     0.35433   0.67784   0.69655   0.00000  Uiso   1.00
H211   H     0.09007   0.56889   0.52824   0.00000  Uiso   1.00
H212   H     0.19242   0.27864   0.75689   0.00000  Uiso   1.00
H213   H     0.49653   0.82574   0.78831   0.00000  Uiso   1.00
H214   H     0.93929   0.59601   0.43340   0.00000  Uiso   1.00
H215   H     0.12741   0.67639   0.88416   0.00000  Uiso   1.00
H216   H     0.11693   0.54299   0.93696   0.00000  Uiso   1.00
H217   H     0.26116   0.80245   0.95187   0.00000  Uiso   1.00
H218   H     0.99690   0.69350   0.78357   0.00000  Uiso   1.00
H219   H     0.11680   0.37977   0.96412   0.00000  Uiso   1.00
H220   H     0.42091   0.92688   0.99554   0.00000  Uiso   1.00
H221   H     0.86367   0.69714   0.64064   0.00000  Uiso   1.00
O222   O     0.14934   0.23933   0.89089   0.00000  Uiso   1.00
O223   O     0.54831   0.95711   0.93211   0.00000  Uiso   1.00
O224   O     0.81722   0.65570   0.46648   0.00000  Uiso   1.00
N225   N     0.17605   0.32074   0.79840   0.00000  Uiso   1.00
N226   N     0.46038   0.83224   0.82779   0.00000  Uiso   1.00
N227   N     0.93941   0.61748   0.49598   0.00000  Uiso   1.00
N228   N     0.13536   0.37516   0.90991   0.00000  Uiso   1.00
N229   N     0.41969   0.88666   0.93930   0.00000  Uiso   1.00
N230   N     0.89872   0.67190   0.60749   0.00000  Uiso   1.00
C231   C     0.70423   0.19738   0.58527   0.00000  Uiso   1.00
C232   C     0.75593   0.18102   0.52315   0.00000  Uiso   1.00
C233   C     0.74074   0.19073   0.43967   0.00000  Uiso   1.00
C234   C     0.79528   0.17258   0.39324   0.00000  Uiso   1.00
C235   C     0.86535   0.15132   0.29134   0.00000  Uiso   1.00
C236   C     0.76376   0.26181   0.66992   0.00000  Uiso   1.00
C237   C     0.75513   0.33942   0.70983   0.00000  Uiso   1.00
C238   C     0.81626   0.38927   0.78695   0.00000  Uiso   1.00
C239   C     0.89845   0.49339   0.91295   0.00000  Uiso   1.00
C240   C     0.67789   0.11540   0.60798   0.00000  Uiso   1.00
C241   C     0.59706   0.06993   0.59585   0.00000  Uiso   1.00
C242   C     0.58588   0.99652   0.62084   0.00000  Uiso   1.00
C243   C     0.53475   0.87333   0.65068   0.00000  Uiso   1.00
C244   C     0.82811   0.14789   0.65127   0.00000  Uiso   1.00
C245   C     0.82322   0.15415   0.55900   0.00000  Uiso   1.00
C246   C     0.87780   0.13598   0.51268   0.00000  Uiso   1.00
C247   C     0.86268   0.14565   0.42914   0.00000  Uiso   1.00
C248   C     0.83104   0.23493   0.70576   0.00000  Uiso   1.00
C249   C     0.89219   0.28467   0.78285   0.00000  Uiso   1.00
C250   C     0.88367   0.36234   0.82287   0.00000  Uiso   1.00
C251   C     0.74517   0.08852   0.64383   0.00000  Uiso   1.00
C252   C     0.73412   0.01518   0.66886   0.00000  Uiso   1.00
C253   C     0.65329   0.96959   0.65676   0.00000  Uiso   1.00
H254   H     0.65184   0.21831   0.55737   0.00000  Uiso   1.00
H255   H     0.68866   0.21153   0.41195   0.00000  Uiso   1.00
H256   H     0.70305   0.36020   0.68208   0.00000  Uiso   1.00
H257   H     0.54501   0.09074   0.56811   0.00000  Uiso   1.00
H258   H     0.75917   0.19220   0.26655   0.00000  Uiso   1.00
H259   H     0.78950   0.50566   0.83614   0.00000  Uiso   1.00
H260   H     0.45622   0.93746   0.59581   0.00000  Uiso   1.00
H261   H     0.88049   0.12697   0.67918   0.00000  Uiso   1.00
H262   H     0.92986   0.11518   0.54044   0.00000  Uiso   1.00
H263   H     0.94425   0.26385   0.81057   0.00000  Uiso   1.00
H264   H     0.78620   0.99440   0.69660   0.00000  Uiso   1.00
H265   H     0.95494   0.11400   0.37084   0.00000  Uiso   1.00
H266   H     0.98527   0.42746   0.94044   0.00000  Uiso   1.00
H267   H     0.65199   0.85926   0.70010   0.00000  Uiso   1.00
O268   O     0.88542   0.14702   0.22524   0.00000  Uiso   1.00
O269   O     0.92520   0.55826   0.97253   0.00000  Uiso   1.00
O270   O     0.48795   0.81280   0.65722   0.00000  Uiso   1.00
N271   N     0.79846   0.17540   0.31013   0.00000  Uiso   1.00
N272   N     0.82682   0.46847   0.84265   0.00000  Uiso   1.00
N273   N     0.51524   0.93727   0.61799   0.00000  Uiso   1.00
N274   N     0.90380   0.13332   0.36625   0.00000  Uiso   1.00
N275   N     0.93216   0.42639   0.89877   0.00000  Uiso   1.00
N276   N     0.62058   0.89519   0.67410   0.00000  Uiso   1.00
