data_job_05536
_audit_creation_date              2018-12-19
_audit_creation_method            'Materials Studio'
_symmetry_space_group_name_H-M    'P1'
_symmetry_Int_Tables_number       1
_symmetry_cell_setting            triclinic
loop_
_symmetry_equiv_pos_as_xyz
  x,y,z
_cell_length_a                    25.7261
_cell_length_b                    25.7261
_cell_length_c                    7.3614
_cell_angle_alpha                 90.0000
_cell_angle_beta                  90.0000
_cell_angle_gamma                 90.0000
loop_
_atom_site_label
_atom_site_type_symbol
_atom_site_fract_x
_atom_site_fract_y
_atom_site_fract_z
_atom_site_U_iso_or_equiv
_atom_site_adp_type
_atom_site_occupancy
C1     C     0.74733   0.42529   0.07968   0.00000  Uiso   1.00
C2     C     0.69791   0.42678   0.96539   0.00000  Uiso   1.00
C3     C     0.64790   0.43422   0.03111   0.00000  Uiso   1.00
C4     C     0.60789   0.43430   0.90456   0.00000  Uiso   1.00
C5     C     0.52968   0.43766   0.75534   0.00000  Uiso   1.00
C6     C     0.77320   0.37328   0.03850   0.00000  Uiso   1.00
C7     C     0.78650   0.33574   0.16568   0.00000  Uiso   1.00
C8     C     0.80987   0.29079   0.10067   0.00000  Uiso   1.00
C9     C     0.84858   0.21111   0.06496   0.00000  Uiso   1.00
C10    C     0.78311   0.46684   0.00106   0.00000  Uiso   1.00
C11    C     0.80476   0.50797   0.09678   0.00000  Uiso   1.00
C12    C     0.83648   0.54179   0.00026   0.00000  Uiso   1.00
C13    C     0.89058   0.60739   0.90642   0.00000  Uiso   1.00
C14    C     0.76519   0.41221   0.73809   0.00000  Uiso   1.00
C15    C     0.70762   0.41967   0.77985   0.00000  Uiso   1.00
C16    C     0.66767   0.41974   0.65317   0.00000  Uiso   1.00
C17    C     0.61760   0.42718   0.71869   0.00000  Uiso   1.00
C18    C     0.78291   0.36617   0.85297   0.00000  Uiso   1.00
C19    C     0.80626   0.32126   0.78775   0.00000  Uiso   1.00
C20    C     0.81959   0.28367   0.91480   0.00000  Uiso   1.00
C21    C     0.79282   0.45974   0.81552   0.00000  Uiso   1.00
C22    C     0.82452   0.49350   0.71884   0.00000  Uiso   1.00
C23    C     0.84620   0.53467   0.81438   0.00000  Uiso   1.00
H24    H     0.73978   0.43082   0.22413   0.00000  Uiso   1.00
H25    H     0.64041   0.43971   0.17471   0.00000  Uiso   1.00
H26    H     0.77899   0.34125   0.30926   0.00000  Uiso   1.00
H27    H     0.79724   0.51346   0.24035   0.00000  Uiso   1.00
H28    H     0.53452   0.44641   0.03809   0.00000  Uiso   1.00
H29    H     0.82674   0.23882   0.32181   0.00000  Uiso   1.00
H30    H     0.86523   0.60195   0.17652   0.00000  Uiso   1.00
H31    H     0.77275   0.40667   0.59363   0.00000  Uiso   1.00
H32    H     0.67519   0.41424   0.50960   0.00000  Uiso   1.00
H33    H     0.81377   0.31578   0.64416   0.00000  Uiso   1.00
H34    H     0.83202   0.48799   0.57526   0.00000  Uiso   1.00
H35    H     0.56274   0.42574   0.49827   0.00000  Uiso   1.00
H36    H     0.85497   0.21814   0.78200   0.00000  Uiso   1.00
H37    H     0.89345   0.58127   0.63670   0.00000  Uiso   1.00
O38    O     0.48386   0.44147   0.72429   0.00000  Uiso   1.00
O39    O     0.86725   0.16912   0.09652   0.00000  Uiso   1.00
O40    O     0.91774   0.64554   0.90591   0.00000  Uiso   1.00
N41    N     0.55455   0.44052   0.92257   0.00000  Uiso   1.00
N42    N     0.82775   0.24643   0.18783   0.00000  Uiso   1.00
N43    N     0.86375   0.58592   0.05201   0.00000  Uiso   1.00
N44    N     0.56974   0.42939   0.63210   0.00000  Uiso   1.00
N45    N     0.84294   0.23530   0.89736   0.00000  Uiso   1.00
N46    N     0.87893   0.57479   0.76154   0.00000  Uiso   1.00
C47    C     0.25267   0.57471   0.07968   0.00000  Uiso   1.00
C48    C     0.30209   0.57322   0.96539   0.00000  Uiso   1.00
C49    C     0.35210   0.56578   0.03111   0.00000  Uiso   1.00
C50    C     0.39211   0.56570   0.90456   0.00000  Uiso   1.00
C51    C     0.47032   0.56234   0.75534   0.00000  Uiso   1.00
C52    C     0.22680   0.62672   0.03850   0.00000  Uiso   1.00
C53    C     0.21350   0.66426   0.16568   0.00000  Uiso   1.00
C54    C     0.19013   0.70921   0.10067   0.00000  Uiso   1.00
C55    C     0.15142   0.78889   0.06496   0.00000  Uiso   1.00
C56    C     0.21689   0.53316   0.00106   0.00000  Uiso   1.00
C57    C     0.19524   0.49203   0.09678   0.00000  Uiso   1.00
C58    C     0.16352   0.45821   0.00026   0.00000  Uiso   1.00
C59    C     0.10942   0.39261   0.90642   0.00000  Uiso   1.00
C60    C     0.23481   0.58779   0.73809   0.00000  Uiso   1.00
C61    C     0.29238   0.58033   0.77985   0.00000  Uiso   1.00
C62    C     0.33233   0.58026   0.65317   0.00000  Uiso   1.00
C63    C     0.38240   0.57282   0.71869   0.00000  Uiso   1.00
C64    C     0.21709   0.63383   0.85297   0.00000  Uiso   1.00
C65    C     0.19374   0.67874   0.78775   0.00000  Uiso   1.00
C66    C     0.18041   0.71633   0.91480   0.00000  Uiso   1.00
C67    C     0.20718   0.54026   0.81552   0.00000  Uiso   1.00
C68    C     0.17548   0.50650   0.71884   0.00000  Uiso   1.00
C69    C     0.15380   0.46533   0.81438   0.00000  Uiso   1.00
H70    H     0.26022   0.56918   0.22413   0.00000  Uiso   1.00
H71    H     0.35959   0.56029   0.17471   0.00000  Uiso   1.00
H72    H     0.22101   0.65875   0.30926   0.00000  Uiso   1.00
H73    H     0.20276   0.48654   0.24035   0.00000  Uiso   1.00
H74    H     0.46548   0.55359   0.03809   0.00000  Uiso   1.00
H75    H     0.17326   0.76118   0.32181   0.00000  Uiso   1.00
H76    H     0.13477   0.39805   0.17652   0.00000  Uiso   1.00
H77    H     0.22725   0.59333   0.59363   0.00000  Uiso   1.00
H78    H     0.32481   0.58576   0.50960   0.00000  Uiso   1.00
H79    H     0.18623   0.68422   0.64416   0.00000  Uiso   1.00
H80    H     0.16798   0.51201   0.57526   0.00000  Uiso   1.00
H81    H     0.43726   0.57426   0.49827   0.00000  Uiso   1.00
H82    H     0.14503   0.78186   0.78200   0.00000  Uiso   1.00
H83    H     0.10655   0.41873   0.63670   0.00000  Uiso   1.00
O84    O     0.51614   0.55853   0.72429   0.00000  Uiso   1.00
O85    O     0.13275   0.83088   0.09652   0.00000  Uiso   1.00
O86    O     0.08226   0.35446   0.90591   0.00000  Uiso   1.00
N87    N     0.44545   0.55948   0.92257   0.00000  Uiso   1.00
N88    N     0.17225   0.75357   0.18783   0.00000  Uiso   1.00
N89    N     0.13625   0.41408   0.05201   0.00000  Uiso   1.00
N90    N     0.43026   0.57061   0.63210   0.00000  Uiso   1.00
N91    N     0.15706   0.76470   0.89736   0.00000  Uiso   1.00
N92    N     0.12107   0.42521   0.76154   0.00000  Uiso   1.00
C93    C     0.07471   0.24733   0.57968   0.00000  Uiso   1.00
C94    C     0.07322   0.19791   0.46539   0.00000  Uiso   1.00
C95    C     0.06578   0.14790   0.53111   0.00000  Uiso   1.00
C96    C     0.06570   0.10789   0.40456   0.00000  Uiso   1.00
C97    C     0.06234   0.02968   0.25534   0.00000  Uiso   1.00
C98    C     0.12672   0.27320   0.53850   0.00000  Uiso   1.00
C99    C     0.16426   0.28650   0.66568   0.00000  Uiso   1.00
C100   C     0.20921   0.30987   0.60067   0.00000  Uiso   1.00
C101   C     0.28889   0.34858   0.56496   0.00000  Uiso   1.00
C102   C     0.03316   0.28311   0.50106   0.00000  Uiso   1.00
C103   C     0.99203   0.30476   0.59678   0.00000  Uiso   1.00
C104   C     0.95821   0.33648   0.50026   0.00000  Uiso   1.00
C105   C     0.89261   0.39058   0.40642   0.00000  Uiso   1.00
C106   C     0.08779   0.26519   0.23809   0.00000  Uiso   1.00
C107   C     0.08033   0.20762   0.27985   0.00000  Uiso   1.00
C108   C     0.08026   0.16767   0.15317   0.00000  Uiso   1.00
C109   C     0.07282   0.11760   0.21869   0.00000  Uiso   1.00
C110   C     0.13383   0.28291   0.35297   0.00000  Uiso   1.00
C111   C     0.17874   0.30626   0.28775   0.00000  Uiso   1.00
C112   C     0.21633   0.31959   0.41480   0.00000  Uiso   1.00
C113   C     0.04026   0.29282   0.31552   0.00000  Uiso   1.00
C114   C     0.00650   0.32452   0.21884   0.00000  Uiso   1.00
C115   C     0.96533   0.34620   0.31438   0.00000  Uiso   1.00
H116   H     0.06918   0.23978   0.72413   0.00000  Uiso   1.00
H117   H     0.06029   0.14041   0.67471   0.00000  Uiso   1.00
H118   H     0.15875   0.27899   0.80926   0.00000  Uiso   1.00
H119   H     0.98654   0.29724   0.74035   0.00000  Uiso   1.00
H120   H     0.05359   0.03452   0.53809   0.00000  Uiso   1.00
H121   H     0.26118   0.32674   0.82181   0.00000  Uiso   1.00
H122   H     0.89805   0.36523   0.67652   0.00000  Uiso   1.00
H123   H     0.09333   0.27275   0.09363   0.00000  Uiso   1.00
H124   H     0.08576   0.17519   0.00960   0.00000  Uiso   1.00
H125   H     0.18422   0.31377   0.14416   0.00000  Uiso   1.00
H126   H     0.01201   0.33202   0.07526   0.00000  Uiso   1.00
H127   H     0.07426   0.06274   0.99827   0.00000  Uiso   1.00
H128   H     0.28186   0.35497   0.28200   0.00000  Uiso   1.00
H129   H     0.91873   0.39345   0.13670   0.00000  Uiso   1.00
O130   O     0.05853   0.98386   0.22429   0.00000  Uiso   1.00
O131   O     0.33088   0.36725   0.59652   0.00000  Uiso   1.00
O132   O     0.85446   0.41774   0.40591   0.00000  Uiso   1.00
N133   N     0.05948   0.05455   0.42257   0.00000  Uiso   1.00
N134   N     0.25357   0.32775   0.68783   0.00000  Uiso   1.00
N135   N     0.91408   0.36375   0.55201   0.00000  Uiso   1.00
N136   N     0.07061   0.06974   0.13210   0.00000  Uiso   1.00
N137   N     0.26470   0.34294   0.39736   0.00000  Uiso   1.00
N138   N     0.92521   0.37893   0.26154   0.00000  Uiso   1.00
C139   C     0.92529   0.75267   0.57968   0.00000  Uiso   1.00
C140   C     0.92678   0.80209   0.46539   0.00000  Uiso   1.00
C141   C     0.93422   0.85210   0.53111   0.00000  Uiso   1.00
C142   C     0.93430   0.89211   0.40456   0.00000  Uiso   1.00
C143   C     0.93766   0.97032   0.25534   0.00000  Uiso   1.00
C144   C     0.87328   0.72680   0.53850   0.00000  Uiso   1.00
C145   C     0.83574   0.71350   0.66568   0.00000  Uiso   1.00
C146   C     0.79079   0.69013   0.60067   0.00000  Uiso   1.00
C147   C     0.71111   0.65142   0.56496   0.00000  Uiso   1.00
C148   C     0.96684   0.71689   0.50106   0.00000  Uiso   1.00
C149   C     0.00797   0.69524   0.59678   0.00000  Uiso   1.00
C150   C     0.04179   0.66352   0.50026   0.00000  Uiso   1.00
C151   C     0.10739   0.60942   0.40642   0.00000  Uiso   1.00
C152   C     0.91221   0.73481   0.23809   0.00000  Uiso   1.00
C153   C     0.91967   0.79238   0.27985   0.00000  Uiso   1.00
C154   C     0.91974   0.83233   0.15317   0.00000  Uiso   1.00
C155   C     0.92718   0.88240   0.21869   0.00000  Uiso   1.00
C156   C     0.86617   0.71709   0.35297   0.00000  Uiso   1.00
C157   C     0.82126   0.69374   0.28775   0.00000  Uiso   1.00
C158   C     0.78367   0.68041   0.41480   0.00000  Uiso   1.00
C159   C     0.95974   0.70718   0.31552   0.00000  Uiso   1.00
C160   C     0.99350   0.67548   0.21884   0.00000  Uiso   1.00
C161   C     0.03467   0.65380   0.31438   0.00000  Uiso   1.00
H162   H     0.93082   0.76022   0.72413   0.00000  Uiso   1.00
H163   H     0.93971   0.85959   0.67471   0.00000  Uiso   1.00
H164   H     0.84125   0.72101   0.80926   0.00000  Uiso   1.00
H165   H     0.01346   0.70276   0.74035   0.00000  Uiso   1.00
H166   H     0.94641   0.96548   0.53809   0.00000  Uiso   1.00
H167   H     0.73882   0.67326   0.82181   0.00000  Uiso   1.00
H168   H     0.10195   0.63477   0.67652   0.00000  Uiso   1.00
H169   H     0.90667   0.72725   0.09363   0.00000  Uiso   1.00
H170   H     0.91424   0.82481   0.00960   0.00000  Uiso   1.00
H171   H     0.81578   0.68623   0.14416   0.00000  Uiso   1.00
H172   H     0.98799   0.66798   0.07526   0.00000  Uiso   1.00
H173   H     0.92574   0.93726   0.99827   0.00000  Uiso   1.00
H174   H     0.71814   0.64503   0.28200   0.00000  Uiso   1.00
H175   H     0.08127   0.60655   0.13670   0.00000  Uiso   1.00
O176   O     0.94147   0.01614   0.22429   0.00000  Uiso   1.00
O177   O     0.66912   0.63275   0.59652   0.00000  Uiso   1.00
O178   O     0.14554   0.58226   0.40591   0.00000  Uiso   1.00
N179   N     0.94052   0.94545   0.42257   0.00000  Uiso   1.00
N180   N     0.74643   0.67225   0.68783   0.00000  Uiso   1.00
N181   N     0.08592   0.63625   0.55201   0.00000  Uiso   1.00
N182   N     0.92939   0.93026   0.13210   0.00000  Uiso   1.00
N183   N     0.73530   0.65706   0.39736   0.00000  Uiso   1.00
N184   N     0.07479   0.62107   0.26154   0.00000  Uiso   1.00
C185   C     0.75267   0.07471   0.42032   0.00000  Uiso   1.00
C186   C     0.80209   0.07322   0.53461   0.00000  Uiso   1.00
C187   C     0.85210   0.06578   0.46889   0.00000  Uiso   1.00
C188   C     0.89211   0.06570   0.59544   0.00000  Uiso   1.00
C189   C     0.97032   0.06234   0.74466   0.00000  Uiso   1.00
C190   C     0.72680   0.12672   0.46150   0.00000  Uiso   1.00
C191   C     0.71350   0.16426   0.33432   0.00000  Uiso   1.00
C192   C     0.69013   0.20921   0.39933   0.00000  Uiso   1.00
C193   C     0.65142   0.28889   0.43504   0.00000  Uiso   1.00
C194   C     0.71689   0.03316   0.49894   0.00000  Uiso   1.00
C195   C     0.69524   0.99203   0.40322   0.00000  Uiso   1.00
C196   C     0.66352   0.95821   0.49974   0.00000  Uiso   1.00
C197   C     0.60942   0.89261   0.59358   0.00000  Uiso   1.00
C198   C     0.73481   0.08779   0.76191   0.00000  Uiso   1.00
C199   C     0.79238   0.08033   0.72015   0.00000  Uiso   1.00
C200   C     0.83233   0.08026   0.84683   0.00000  Uiso   1.00
C201   C     0.88240   0.07282   0.78131   0.00000  Uiso   1.00
C202   C     0.71709   0.13383   0.64703   0.00000  Uiso   1.00
C203   C     0.69374   0.17874   0.71225   0.00000  Uiso   1.00
C204   C     0.68041   0.21633   0.58520   0.00000  Uiso   1.00
C205   C     0.70718   0.04026   0.68448   0.00000  Uiso   1.00
C206   C     0.67548   0.00650   0.78116   0.00000  Uiso   1.00
C207   C     0.65380   0.96533   0.68562   0.00000  Uiso   1.00
H208   H     0.76022   0.06918   0.27587   0.00000  Uiso   1.00
H209   H     0.85959   0.06029   0.32529   0.00000  Uiso   1.00
H210   H     0.72101   0.15875   0.19074   0.00000  Uiso   1.00
H211   H     0.70276   0.98654   0.25965   0.00000  Uiso   1.00
H212   H     0.96548   0.05359   0.46191   0.00000  Uiso   1.00
H213   H     0.67326   0.26118   0.17819   0.00000  Uiso   1.00
H214   H     0.63477   0.89805   0.32348   0.00000  Uiso   1.00
H215   H     0.72725   0.09333   0.90637   0.00000  Uiso   1.00
H216   H     0.82481   0.08576   0.99040   0.00000  Uiso   1.00
H217   H     0.68623   0.18422   0.85584   0.00000  Uiso   1.00
H218   H     0.66798   0.01201   0.92474   0.00000  Uiso   1.00
H219   H     0.93726   0.07426   0.00173   0.00000  Uiso   1.00
H220   H     0.64503   0.28186   0.71800   0.00000  Uiso   1.00
H221   H     0.60655   0.91873   0.86330   0.00000  Uiso   1.00
O222   O     0.01614   0.05853   0.77571   0.00000  Uiso   1.00
O223   O     0.63275   0.33088   0.40348   0.00000  Uiso   1.00
O224   O     0.58226   0.85446   0.59409   0.00000  Uiso   1.00
N225   N     0.94545   0.05948   0.57743   0.00000  Uiso   1.00
N226   N     0.67225   0.25357   0.31217   0.00000  Uiso   1.00
N227   N     0.63625   0.91408   0.44799   0.00000  Uiso   1.00
N228   N     0.93026   0.07061   0.86790   0.00000  Uiso   1.00
N229   N     0.65706   0.26470   0.60264   0.00000  Uiso   1.00
N230   N     0.62107   0.92521   0.73846   0.00000  Uiso   1.00
C231   C     0.24733   0.92529   0.42032   0.00000  Uiso   1.00
C232   C     0.19791   0.92678   0.53461   0.00000  Uiso   1.00
C233   C     0.14790   0.93422   0.46889   0.00000  Uiso   1.00
C234   C     0.10789   0.93430   0.59544   0.00000  Uiso   1.00
C235   C     0.02968   0.93766   0.74466   0.00000  Uiso   1.00
C236   C     0.27320   0.87328   0.46150   0.00000  Uiso   1.00
C237   C     0.28650   0.83574   0.33432   0.00000  Uiso   1.00
C238   C     0.30987   0.79079   0.39933   0.00000  Uiso   1.00
C239   C     0.34858   0.71111   0.43504   0.00000  Uiso   1.00
C240   C     0.28311   0.96684   0.49894   0.00000  Uiso   1.00
C241   C     0.30476   0.00797   0.40322   0.00000  Uiso   1.00
C242   C     0.33648   0.04179   0.49974   0.00000  Uiso   1.00
C243   C     0.39058   0.10739   0.59358   0.00000  Uiso   1.00
C244   C     0.26519   0.91221   0.76191   0.00000  Uiso   1.00
C245   C     0.20762   0.91967   0.72015   0.00000  Uiso   1.00
C246   C     0.16767   0.91974   0.84683   0.00000  Uiso   1.00
C247   C     0.11760   0.92718   0.78131   0.00000  Uiso   1.00
C248   C     0.28291   0.86617   0.64703   0.00000  Uiso   1.00
C249   C     0.30626   0.82126   0.71225   0.00000  Uiso   1.00
C250   C     0.31959   0.78367   0.58520   0.00000  Uiso   1.00
C251   C     0.29282   0.95974   0.68448   0.00000  Uiso   1.00
C252   C     0.32452   0.99350   0.78116   0.00000  Uiso   1.00
C253   C     0.34620   0.03467   0.68562   0.00000  Uiso   1.00
H254   H     0.23978   0.93082   0.27587   0.00000  Uiso   1.00
H255   H     0.14041   0.93971   0.32529   0.00000  Uiso   1.00
H256   H     0.27899   0.84125   0.19074   0.00000  Uiso   1.00
H257   H     0.29724   0.01346   0.25965   0.00000  Uiso   1.00
H258   H     0.03452   0.94641   0.46191   0.00000  Uiso   1.00
H259   H     0.32674   0.73882   0.17819   0.00000  Uiso   1.00
H260   H     0.36523   0.10195   0.32348   0.00000  Uiso   1.00
H261   H     0.27275   0.90667   0.90637   0.00000  Uiso   1.00
H262   H     0.17519   0.91424   0.99040   0.00000  Uiso   1.00
H263   H     0.31377   0.81578   0.85584   0.00000  Uiso   1.00
H264   H     0.33202   0.98799   0.92474   0.00000  Uiso   1.00
H265   H     0.06274   0.92574   0.00173   0.00000  Uiso   1.00
H266   H     0.35497   0.71814   0.71800   0.00000  Uiso   1.00
H267   H     0.39345   0.08127   0.86330   0.00000  Uiso   1.00
O268   O     0.98386   0.94147   0.77571   0.00000  Uiso   1.00
O269   O     0.36725   0.66912   0.40348   0.00000  Uiso   1.00
O270   O     0.41774   0.14554   0.59409   0.00000  Uiso   1.00
N271   N     0.05455   0.94052   0.57743   0.00000  Uiso   1.00
N272   N     0.32775   0.74643   0.31217   0.00000  Uiso   1.00
N273   N     0.36375   0.08592   0.44799   0.00000  Uiso   1.00
N274   N     0.06974   0.92939   0.86790   0.00000  Uiso   1.00
N275   N     0.34294   0.73530   0.60264   0.00000  Uiso   1.00
N276   N     0.37893   0.07479   0.73846   0.00000  Uiso   1.00
C277   C     0.42529   0.25267   0.92032   0.00000  Uiso   1.00
C278   C     0.42678   0.30209   0.03461   0.00000  Uiso   1.00
C279   C     0.43422   0.35210   0.96889   0.00000  Uiso   1.00
C280   C     0.43430   0.39211   0.09544   0.00000  Uiso   1.00
C281   C     0.43766   0.47032   0.24466   0.00000  Uiso   1.00
C282   C     0.37328   0.22680   0.96150   0.00000  Uiso   1.00
C283   C     0.33574   0.21350   0.83432   0.00000  Uiso   1.00
C284   C     0.29079   0.19013   0.89933   0.00000  Uiso   1.00
C285   C     0.21111   0.15142   0.93504   0.00000  Uiso   1.00
C286   C     0.46684   0.21689   0.99894   0.00000  Uiso   1.00
C287   C     0.50797   0.19524   0.90322   0.00000  Uiso   1.00
C288   C     0.54179   0.16352   0.99974   0.00000  Uiso   1.00
C289   C     0.60739   0.10942   0.09358   0.00000  Uiso   1.00
C290   C     0.41221   0.23481   0.26191   0.00000  Uiso   1.00
C291   C     0.41967   0.29238   0.22015   0.00000  Uiso   1.00
C292   C     0.41974   0.33233   0.34683   0.00000  Uiso   1.00
C293   C     0.42718   0.38240   0.28131   0.00000  Uiso   1.00
C294   C     0.36617   0.21709   0.14703   0.00000  Uiso   1.00
C295   C     0.32126   0.19374   0.21225   0.00000  Uiso   1.00
C296   C     0.28367   0.18041   0.08520   0.00000  Uiso   1.00
C297   C     0.45974   0.20718   0.18448   0.00000  Uiso   1.00
C298   C     0.49350   0.17548   0.28116   0.00000  Uiso   1.00
C299   C     0.53467   0.15380   0.18562   0.00000  Uiso   1.00
H300   H     0.43082   0.26022   0.77587   0.00000  Uiso   1.00
H301   H     0.43971   0.35959   0.82529   0.00000  Uiso   1.00
H302   H     0.34125   0.22101   0.69074   0.00000  Uiso   1.00
H303   H     0.51346   0.20276   0.75965   0.00000  Uiso   1.00
H304   H     0.44641   0.46548   0.96191   0.00000  Uiso   1.00
H305   H     0.23882   0.17326   0.67819   0.00000  Uiso   1.00
H306   H     0.60195   0.13477   0.82348   0.00000  Uiso   1.00
H307   H     0.40667   0.22725   0.40637   0.00000  Uiso   1.00
H308   H     0.41424   0.32481   0.49040   0.00000  Uiso   1.00
H309   H     0.31578   0.18623   0.35584   0.00000  Uiso   1.00
H310   H     0.48799   0.16798   0.42474   0.00000  Uiso   1.00
H311   H     0.42574   0.43726   0.50173   0.00000  Uiso   1.00
H312   H     0.21814   0.14503   0.21800   0.00000  Uiso   1.00
H313   H     0.58127   0.10655   0.36330   0.00000  Uiso   1.00
O314   O     0.44147   0.51614   0.27571   0.00000  Uiso   1.00
O315   O     0.16912   0.13275   0.90348   0.00000  Uiso   1.00
O316   O     0.64554   0.08226   0.09409   0.00000  Uiso   1.00
N317   N     0.44052   0.44545   0.07743   0.00000  Uiso   1.00
N318   N     0.24643   0.17225   0.81217   0.00000  Uiso   1.00
N319   N     0.58592   0.13625   0.94799   0.00000  Uiso   1.00
N320   N     0.42939   0.43026   0.36790   0.00000  Uiso   1.00
N321   N     0.23530   0.15706   0.10264   0.00000  Uiso   1.00
N322   N     0.57479   0.12107   0.23846   0.00000  Uiso   1.00
C323   C     0.57471   0.74733   0.92032   0.00000  Uiso   1.00
C324   C     0.57322   0.69791   0.03461   0.00000  Uiso   1.00
C325   C     0.56578   0.64790   0.96889   0.00000  Uiso   1.00
C326   C     0.56570   0.60789   0.09544   0.00000  Uiso   1.00
C327   C     0.56234   0.52968   0.24466   0.00000  Uiso   1.00
C328   C     0.62672   0.77320   0.96150   0.00000  Uiso   1.00
C329   C     0.66426   0.78650   0.83432   0.00000  Uiso   1.00
C330   C     0.70921   0.80987   0.89933   0.00000  Uiso   1.00
C331   C     0.78889   0.84858   0.93504   0.00000  Uiso   1.00
C332   C     0.53316   0.78311   0.99894   0.00000  Uiso   1.00
C333   C     0.49203   0.80476   0.90322   0.00000  Uiso   1.00
C334   C     0.45821   0.83648   0.99974   0.00000  Uiso   1.00
C335   C     0.39261   0.89058   0.09358   0.00000  Uiso   1.00
C336   C     0.58779   0.76519   0.26191   0.00000  Uiso   1.00
C337   C     0.58033   0.70762   0.22015   0.00000  Uiso   1.00
C338   C     0.58026   0.66767   0.34683   0.00000  Uiso   1.00
C339   C     0.57282   0.61760   0.28131   0.00000  Uiso   1.00
C340   C     0.63383   0.78291   0.14703   0.00000  Uiso   1.00
C341   C     0.67874   0.80626   0.21225   0.00000  Uiso   1.00
C342   C     0.71633   0.81959   0.08520   0.00000  Uiso   1.00
C343   C     0.54026   0.79282   0.18448   0.00000  Uiso   1.00
C344   C     0.50650   0.82452   0.28116   0.00000  Uiso   1.00
C345   C     0.46533   0.84620   0.18562   0.00000  Uiso   1.00
H346   H     0.56918   0.73978   0.77587   0.00000  Uiso   1.00
H347   H     0.56029   0.64041   0.82529   0.00000  Uiso   1.00
H348   H     0.65875   0.77899   0.69074   0.00000  Uiso   1.00
H349   H     0.48654   0.79724   0.75965   0.00000  Uiso   1.00
H350   H     0.55359   0.53452   0.96191   0.00000  Uiso   1.00
H351   H     0.76118   0.82674   0.67819   0.00000  Uiso   1.00
H352   H     0.39805   0.86523   0.82348   0.00000  Uiso   1.00
H353   H     0.59333   0.77275   0.40637   0.00000  Uiso   1.00
H354   H     0.58576   0.67519   0.49040   0.00000  Uiso   1.00
H355   H     0.68422   0.81377   0.35584   0.00000  Uiso   1.00
H356   H     0.51201   0.83202   0.42474   0.00000  Uiso   1.00
H357   H     0.57426   0.56274   0.50173   0.00000  Uiso   1.00
H358   H     0.78186   0.85497   0.21800   0.00000  Uiso   1.00
H359   H     0.41873   0.89345   0.36330   0.00000  Uiso   1.00
O360   O     0.55853   0.48386   0.27571   0.00000  Uiso   1.00
O361   O     0.83088   0.86725   0.90348   0.00000  Uiso   1.00
O362   O     0.35446   0.91774   0.09409   0.00000  Uiso   1.00
N363   N     0.55948   0.55455   0.07743   0.00000  Uiso   1.00
N364   N     0.75357   0.82775   0.81217   0.00000  Uiso   1.00
N365   N     0.41408   0.86375   0.94799   0.00000  Uiso   1.00
N366   N     0.57061   0.56974   0.36790   0.00000  Uiso   1.00
N367   N     0.76470   0.84294   0.10264   0.00000  Uiso   1.00
N368   N     0.42521   0.87893   0.23846   0.00000  Uiso   1.00
