data_job_05632
_audit_creation_date              2018-12-19
_audit_creation_method            'Materials Studio'
_symmetry_space_group_name_H-M    'P1'
_symmetry_Int_Tables_number       1
_symmetry_cell_setting            triclinic
loop_
_symmetry_equiv_pos_as_xyz
  x,y,z
_cell_length_a                    37.9482
_cell_length_b                    14.3971
_cell_length_c                    9.5131
_cell_angle_alpha                 90.0000
_cell_angle_beta                  90.0000
_cell_angle_gamma                 90.0000
loop_
_atom_site_label
_atom_site_type_symbol
_atom_site_fract_x
_atom_site_fract_y
_atom_site_fract_z
_atom_site_U_iso_or_equiv
_atom_site_adp_type
_atom_site_occupancy
C1     C     0.34286   0.29643   0.36651   0.00000  Uiso   1.00
C2     C     0.32193   0.38679   0.37165   0.00000  Uiso   1.00
C3     C     0.29371   0.40518   0.46018   0.00000  Uiso   1.00
C4     C     0.27808   0.49204   0.44871   0.00000  Uiso   1.00
C5     C     0.24372   0.62228   0.47134   0.00000  Uiso   1.00
C6     C     0.34077   0.26255   0.21486   0.00000  Uiso   1.00
C7     C     0.32839   0.17647   0.17156   0.00000  Uiso   1.00
C8     C     0.32863   0.15874   0.02810   0.00000  Uiso   1.00
C9     C     0.32354   0.09607   0.80732   0.00000  Uiso   1.00
C10    C     0.38123   0.32327   0.39116   0.00000  Uiso   1.00
C11    C     0.40289   0.28821   0.49607   0.00000  Uiso   1.00
C12    C     0.43720   0.32159   0.50102   0.00000  Uiso   1.00
C13    C     0.49494   0.35319   0.55397   0.00000  Uiso   1.00
C14    C     0.36528   0.41800   0.18872   0.00000  Uiso   1.00
C15    C     0.33411   0.45282   0.27508   0.00000  Uiso   1.00
C16    C     0.31852   0.53968   0.26348   0.00000  Uiso   1.00
C17    C     0.29028   0.55819   0.35197   0.00000  Uiso   1.00
C18    C     0.35294   0.32858   0.11829   0.00000  Uiso   1.00
C19    C     0.35320   0.31097   0.97487   0.00000  Uiso   1.00
C20    C     0.34082   0.22489   0.93136   0.00000  Uiso   1.00
C21    C     0.39341   0.38930   0.29459   0.00000  Uiso   1.00
C22    C     0.42769   0.42272   0.29938   0.00000  Uiso   1.00
C23    C     0.44940   0.38774   0.40428   0.00000  Uiso   1.00
H24    H     0.33338   0.24502   0.44168   0.00000  Uiso   1.00
H25    H     0.28429   0.35405   0.53488   0.00000  Uiso   1.00
H26    H     0.31898   0.12538   0.24632   0.00000  Uiso   1.00
H27    H     0.39346   0.23712   0.57078   0.00000  Uiso   1.00
H28    H     0.23524   0.50404   0.59560   0.00000  Uiso   1.00
H29    H     0.30838   0.02186   0.98714   0.00000  Uiso   1.00
H30    H     0.46544   0.25747   0.67133   0.00000  Uiso   1.00
H31    H     0.37476   0.46941   0.11353   0.00000  Uiso   1.00
H32    H     0.32794   0.59076   0.18874   0.00000  Uiso   1.00
H33    H     0.36262   0.36209   0.90017   0.00000  Uiso   1.00
H34    H     0.43711   0.47382   0.22463   0.00000  Uiso   1.00
H35    H     0.27067   0.69616   0.31465   0.00000  Uiso   1.00
H36    H     0.34380   0.21398   0.70619   0.00000  Uiso   1.00
H37    H     0.50087   0.44960   0.39038   0.00000  Uiso   1.00
O38    O     0.22140   0.67587   0.51049   0.00000  Uiso   1.00
O39    O     0.31736   0.04326   0.71222   0.00000  Uiso   1.00
O40    O     0.52342   0.35238   0.60986   0.00000  Uiso   1.00
N41    N     0.25001   0.53261   0.51918   0.00000  Uiso   1.00
N42    N     0.31838   0.08180   0.95030   0.00000  Uiso   1.00
N43    N     0.46522   0.30207   0.58994   0.00000  Uiso   1.00
N44    N     0.26907   0.63599   0.36800   0.00000  Uiso   1.00
N45    N     0.33744   0.18518   0.79913   0.00000  Uiso   1.00
N46    N     0.48429   0.40545   0.43877   0.00000  Uiso   1.00
C47    C     0.15714   0.20357   0.86651   0.00000  Uiso   1.00
C48    C     0.17807   0.11321   0.87165   0.00000  Uiso   1.00
C49    C     0.20629   0.09482   0.96018   0.00000  Uiso   1.00
C50    C     0.22192   0.00796   0.94871   0.00000  Uiso   1.00
C51    C     0.25628   0.87772   0.97134   0.00000  Uiso   1.00
C52    C     0.15923   0.23745   0.71486   0.00000  Uiso   1.00
C53    C     0.17161   0.32353   0.67156   0.00000  Uiso   1.00
C54    C     0.17137   0.34126   0.52810   0.00000  Uiso   1.00
C55    C     0.17646   0.40393   0.30732   0.00000  Uiso   1.00
C56    C     0.11877   0.17673   0.89116   0.00000  Uiso   1.00
C57    C     0.09711   0.21179   0.99607   0.00000  Uiso   1.00
C58    C     0.06280   0.17841   0.00102   0.00000  Uiso   1.00
C59    C     0.00506   0.14681   0.05397   0.00000  Uiso   1.00
C60    C     0.13472   0.08200   0.68872   0.00000  Uiso   1.00
C61    C     0.16589   0.04718   0.77508   0.00000  Uiso   1.00
C62    C     0.18148   0.96032   0.76348   0.00000  Uiso   1.00
C63    C     0.20972   0.94181   0.85197   0.00000  Uiso   1.00
C64    C     0.14706   0.17142   0.61829   0.00000  Uiso   1.00
C65    C     0.14680   0.18903   0.47487   0.00000  Uiso   1.00
C66    C     0.15918   0.27511   0.43136   0.00000  Uiso   1.00
C67    C     0.10659   0.11070   0.79459   0.00000  Uiso   1.00
C68    C     0.07231   0.07728   0.79938   0.00000  Uiso   1.00
C69    C     0.05060   0.11226   0.90428   0.00000  Uiso   1.00
H70    H     0.16662   0.25498   0.94168   0.00000  Uiso   1.00
H71    H     0.21571   0.14595   0.03488   0.00000  Uiso   1.00
H72    H     0.18102   0.37462   0.74632   0.00000  Uiso   1.00
H73    H     0.10654   0.26288   0.07078   0.00000  Uiso   1.00
H74    H     0.26476   0.99596   0.09560   0.00000  Uiso   1.00
H75    H     0.19162   0.47814   0.48714   0.00000  Uiso   1.00
H76    H     0.03456   0.24253   0.17133   0.00000  Uiso   1.00
H77    H     0.12524   0.03059   0.61353   0.00000  Uiso   1.00
H78    H     0.17206   0.90924   0.68874   0.00000  Uiso   1.00
H79    H     0.13738   0.13791   0.40017   0.00000  Uiso   1.00
H80    H     0.06289   0.02618   0.72463   0.00000  Uiso   1.00
H81    H     0.22933   0.80384   0.81465   0.00000  Uiso   1.00
H82    H     0.15620   0.28602   0.20619   0.00000  Uiso   1.00
H83    H     0.99913   0.05040   0.89038   0.00000  Uiso   1.00
O84    O     0.27860   0.82413   0.01049   0.00000  Uiso   1.00
O85    O     0.18264   0.45674   0.21222   0.00000  Uiso   1.00
O86    O     0.97658   0.14762   0.10986   0.00000  Uiso   1.00
N87    N     0.24999   0.96739   0.01918   0.00000  Uiso   1.00
N88    N     0.18162   0.41820   0.45030   0.00000  Uiso   1.00
N89    N     0.03478   0.19793   0.08994   0.00000  Uiso   1.00
N90    N     0.23093   0.86401   0.86800   0.00000  Uiso   1.00
N91    N     0.16256   0.31482   0.29913   0.00000  Uiso   1.00
N92    N     0.01571   0.09455   0.93877   0.00000  Uiso   1.00
C93    C     0.65714   0.29643   0.13349   0.00000  Uiso   1.00
C94    C     0.67807   0.38679   0.12835   0.00000  Uiso   1.00
C95    C     0.70629   0.40518   0.03982   0.00000  Uiso   1.00
C96    C     0.72192   0.49204   0.05129   0.00000  Uiso   1.00
C97    C     0.75628   0.62228   0.02866   0.00000  Uiso   1.00
C98    C     0.65923   0.26255   0.28514   0.00000  Uiso   1.00
C99    C     0.67161   0.17647   0.32844   0.00000  Uiso   1.00
C100   C     0.67137   0.15874   0.47190   0.00000  Uiso   1.00
C101   C     0.67646   0.09607   0.69268   0.00000  Uiso   1.00
C102   C     0.61877   0.32327   0.10884   0.00000  Uiso   1.00
C103   C     0.59711   0.28821   0.00393   0.00000  Uiso   1.00
C104   C     0.56280   0.32159   0.99898   0.00000  Uiso   1.00
C105   C     0.50506   0.35319   0.94603   0.00000  Uiso   1.00
C106   C     0.63472   0.41800   0.31128   0.00000  Uiso   1.00
C107   C     0.66589   0.45282   0.22492   0.00000  Uiso   1.00
C108   C     0.68148   0.53968   0.23652   0.00000  Uiso   1.00
C109   C     0.70972   0.55819   0.14803   0.00000  Uiso   1.00
C110   C     0.64706   0.32858   0.38171   0.00000  Uiso   1.00
C111   C     0.64680   0.31097   0.52513   0.00000  Uiso   1.00
C112   C     0.65918   0.22489   0.56864   0.00000  Uiso   1.00
C113   C     0.60659   0.38930   0.20541   0.00000  Uiso   1.00
C114   C     0.57231   0.42272   0.20062   0.00000  Uiso   1.00
C115   C     0.55060   0.38774   0.09572   0.00000  Uiso   1.00
H116   H     0.66662   0.24502   0.05832   0.00000  Uiso   1.00
H117   H     0.71571   0.35405   0.96512   0.00000  Uiso   1.00
H118   H     0.68102   0.12538   0.25368   0.00000  Uiso   1.00
H119   H     0.60654   0.23712   0.92922   0.00000  Uiso   1.00
H120   H     0.76476   0.50404   0.90440   0.00000  Uiso   1.00
H121   H     0.69162   0.02186   0.51286   0.00000  Uiso   1.00
H122   H     0.53456   0.25747   0.82867   0.00000  Uiso   1.00
H123   H     0.62524   0.46941   0.38647   0.00000  Uiso   1.00
H124   H     0.67206   0.59076   0.31126   0.00000  Uiso   1.00
H125   H     0.63738   0.36209   0.59983   0.00000  Uiso   1.00
H126   H     0.56289   0.47382   0.27537   0.00000  Uiso   1.00
H127   H     0.72933   0.69616   0.18535   0.00000  Uiso   1.00
H128   H     0.65620   0.21398   0.79381   0.00000  Uiso   1.00
H129   H     0.49913   0.44960   0.10962   0.00000  Uiso   1.00
O130   O     0.77860   0.67587   0.98951   0.00000  Uiso   1.00
O131   O     0.68264   0.04326   0.78778   0.00000  Uiso   1.00
O132   O     0.47658   0.35238   0.89014   0.00000  Uiso   1.00
N133   N     0.74999   0.53261   0.98082   0.00000  Uiso   1.00
N134   N     0.68162   0.08180   0.54970   0.00000  Uiso   1.00
N135   N     0.53478   0.30207   0.91006   0.00000  Uiso   1.00
N136   N     0.73093   0.63599   0.13200   0.00000  Uiso   1.00
N137   N     0.66256   0.18518   0.70087   0.00000  Uiso   1.00
N138   N     0.51571   0.40545   0.06123   0.00000  Uiso   1.00
C139   C     0.84286   0.20357   0.63349   0.00000  Uiso   1.00
C140   C     0.82193   0.11321   0.62835   0.00000  Uiso   1.00
C141   C     0.79371   0.09482   0.53982   0.00000  Uiso   1.00
C142   C     0.77808   0.00796   0.55129   0.00000  Uiso   1.00
C143   C     0.74372   0.87772   0.52866   0.00000  Uiso   1.00
C144   C     0.84077   0.23745   0.78514   0.00000  Uiso   1.00
C145   C     0.82839   0.32353   0.82844   0.00000  Uiso   1.00
C146   C     0.82863   0.34126   0.97190   0.00000  Uiso   1.00
C147   C     0.82354   0.40393   0.19268   0.00000  Uiso   1.00
C148   C     0.88123   0.17673   0.60884   0.00000  Uiso   1.00
C149   C     0.90289   0.21179   0.50393   0.00000  Uiso   1.00
C150   C     0.93720   0.17841   0.49898   0.00000  Uiso   1.00
C151   C     0.99494   0.14681   0.44603   0.00000  Uiso   1.00
C152   C     0.86528   0.08200   0.81128   0.00000  Uiso   1.00
C153   C     0.83411   0.04718   0.72492   0.00000  Uiso   1.00
C154   C     0.81852   0.96032   0.73652   0.00000  Uiso   1.00
C155   C     0.79028   0.94181   0.64803   0.00000  Uiso   1.00
C156   C     0.85294   0.17142   0.88171   0.00000  Uiso   1.00
C157   C     0.85320   0.18903   0.02513   0.00000  Uiso   1.00
C158   C     0.84082   0.27511   0.06864   0.00000  Uiso   1.00
C159   C     0.89341   0.11070   0.70541   0.00000  Uiso   1.00
C160   C     0.92769   0.07728   0.70062   0.00000  Uiso   1.00
C161   C     0.94940   0.11226   0.59572   0.00000  Uiso   1.00
H162   H     0.83338   0.25498   0.55832   0.00000  Uiso   1.00
H163   H     0.78429   0.14595   0.46512   0.00000  Uiso   1.00
H164   H     0.81898   0.37462   0.75368   0.00000  Uiso   1.00
H165   H     0.89346   0.26288   0.42922   0.00000  Uiso   1.00
H166   H     0.73524   0.99596   0.40440   0.00000  Uiso   1.00
H167   H     0.80838   0.47814   0.01286   0.00000  Uiso   1.00
H168   H     0.96544   0.24253   0.32867   0.00000  Uiso   1.00
H169   H     0.87476   0.03059   0.88647   0.00000  Uiso   1.00
H170   H     0.82794   0.90924   0.81126   0.00000  Uiso   1.00
H171   H     0.86262   0.13791   0.09983   0.00000  Uiso   1.00
H172   H     0.93711   0.02618   0.77537   0.00000  Uiso   1.00
H173   H     0.77067   0.80384   0.68535   0.00000  Uiso   1.00
H174   H     0.84380   0.28602   0.29381   0.00000  Uiso   1.00
H175   H     0.00087   0.05040   0.60962   0.00000  Uiso   1.00
O176   O     0.72140   0.82413   0.48951   0.00000  Uiso   1.00
O177   O     0.81736   0.45674   0.28778   0.00000  Uiso   1.00
O178   O     0.02342   0.14762   0.39014   0.00000  Uiso   1.00
N179   N     0.75001   0.96739   0.48082   0.00000  Uiso   1.00
N180   N     0.81838   0.41820   0.04970   0.00000  Uiso   1.00
N181   N     0.96522   0.19793   0.41006   0.00000  Uiso   1.00
N182   N     0.76907   0.86401   0.63200   0.00000  Uiso   1.00
N183   N     0.83744   0.31482   0.20087   0.00000  Uiso   1.00
N184   N     0.98429   0.09455   0.56123   0.00000  Uiso   1.00
C185   C     0.65714   0.70357   0.63349   0.00000  Uiso   1.00
C186   C     0.67807   0.61321   0.62835   0.00000  Uiso   1.00
C187   C     0.70629   0.59482   0.53982   0.00000  Uiso   1.00
C188   C     0.72192   0.50796   0.55129   0.00000  Uiso   1.00
C189   C     0.75628   0.37772   0.52866   0.00000  Uiso   1.00
C190   C     0.65923   0.73745   0.78514   0.00000  Uiso   1.00
C191   C     0.67161   0.82353   0.82844   0.00000  Uiso   1.00
C192   C     0.67137   0.84126   0.97190   0.00000  Uiso   1.00
C193   C     0.67646   0.90393   0.19268   0.00000  Uiso   1.00
C194   C     0.61877   0.67673   0.60884   0.00000  Uiso   1.00
C195   C     0.59711   0.71179   0.50393   0.00000  Uiso   1.00
C196   C     0.56280   0.67841   0.49898   0.00000  Uiso   1.00
C197   C     0.50506   0.64681   0.44603   0.00000  Uiso   1.00
C198   C     0.63472   0.58200   0.81128   0.00000  Uiso   1.00
C199   C     0.66589   0.54718   0.72492   0.00000  Uiso   1.00
C200   C     0.68148   0.46032   0.73652   0.00000  Uiso   1.00
C201   C     0.70972   0.44181   0.64803   0.00000  Uiso   1.00
C202   C     0.64706   0.67142   0.88171   0.00000  Uiso   1.00
C203   C     0.64680   0.68903   0.02513   0.00000  Uiso   1.00
C204   C     0.65918   0.77511   0.06864   0.00000  Uiso   1.00
C205   C     0.60659   0.61070   0.70541   0.00000  Uiso   1.00
C206   C     0.57231   0.57728   0.70062   0.00000  Uiso   1.00
C207   C     0.55060   0.61226   0.59572   0.00000  Uiso   1.00
H208   H     0.66662   0.75498   0.55832   0.00000  Uiso   1.00
H209   H     0.71571   0.64595   0.46512   0.00000  Uiso   1.00
H210   H     0.68102   0.87462   0.75368   0.00000  Uiso   1.00
H211   H     0.60654   0.76288   0.42922   0.00000  Uiso   1.00
H212   H     0.76476   0.49596   0.40440   0.00000  Uiso   1.00
H213   H     0.69162   0.97814   0.01286   0.00000  Uiso   1.00
H214   H     0.53456   0.74253   0.32867   0.00000  Uiso   1.00
H215   H     0.62524   0.53059   0.88647   0.00000  Uiso   1.00
H216   H     0.67206   0.40924   0.81126   0.00000  Uiso   1.00
H217   H     0.63738   0.63791   0.09983   0.00000  Uiso   1.00
H218   H     0.56289   0.52618   0.77537   0.00000  Uiso   1.00
H219   H     0.72933   0.30384   0.68535   0.00000  Uiso   1.00
H220   H     0.65620   0.78602   0.29381   0.00000  Uiso   1.00
H221   H     0.49913   0.55040   0.60962   0.00000  Uiso   1.00
O222   O     0.77860   0.32413   0.48951   0.00000  Uiso   1.00
O223   O     0.68264   0.95674   0.28778   0.00000  Uiso   1.00
O224   O     0.47658   0.64762   0.39014   0.00000  Uiso   1.00
N225   N     0.74999   0.46739   0.48082   0.00000  Uiso   1.00
N226   N     0.68162   0.91820   0.04970   0.00000  Uiso   1.00
N227   N     0.53478   0.69793   0.41006   0.00000  Uiso   1.00
N228   N     0.73093   0.36401   0.63200   0.00000  Uiso   1.00
N229   N     0.66256   0.81482   0.20087   0.00000  Uiso   1.00
N230   N     0.51571   0.59455   0.56123   0.00000  Uiso   1.00
C231   C     0.84286   0.79643   0.13349   0.00000  Uiso   1.00
C232   C     0.82193   0.88679   0.12835   0.00000  Uiso   1.00
C233   C     0.79371   0.90518   0.03982   0.00000  Uiso   1.00
C234   C     0.77808   0.99204   0.05129   0.00000  Uiso   1.00
C235   C     0.74372   0.12228   0.02866   0.00000  Uiso   1.00
C236   C     0.84077   0.76255   0.28514   0.00000  Uiso   1.00
C237   C     0.82839   0.67647   0.32844   0.00000  Uiso   1.00
C238   C     0.82863   0.65874   0.47190   0.00000  Uiso   1.00
C239   C     0.82354   0.59607   0.69268   0.00000  Uiso   1.00
C240   C     0.88123   0.82327   0.10884   0.00000  Uiso   1.00
C241   C     0.90289   0.78821   0.00393   0.00000  Uiso   1.00
C242   C     0.93720   0.82159   0.99898   0.00000  Uiso   1.00
C243   C     0.99494   0.85319   0.94603   0.00000  Uiso   1.00
C244   C     0.86528   0.91800   0.31128   0.00000  Uiso   1.00
C245   C     0.83411   0.95282   0.22492   0.00000  Uiso   1.00
C246   C     0.81852   0.03968   0.23652   0.00000  Uiso   1.00
C247   C     0.79028   0.05819   0.14803   0.00000  Uiso   1.00
C248   C     0.85294   0.82858   0.38171   0.00000  Uiso   1.00
C249   C     0.85320   0.81097   0.52513   0.00000  Uiso   1.00
C250   C     0.84082   0.72489   0.56864   0.00000  Uiso   1.00
C251   C     0.89341   0.88930   0.20541   0.00000  Uiso   1.00
C252   C     0.92769   0.92272   0.20062   0.00000  Uiso   1.00
C253   C     0.94940   0.88774   0.09572   0.00000  Uiso   1.00
H254   H     0.83338   0.74502   0.05832   0.00000  Uiso   1.00
H255   H     0.78429   0.85405   0.96512   0.00000  Uiso   1.00
H256   H     0.81898   0.62538   0.25368   0.00000  Uiso   1.00
H257   H     0.89346   0.73712   0.92922   0.00000  Uiso   1.00
H258   H     0.73524   0.00404   0.90440   0.00000  Uiso   1.00
H259   H     0.80838   0.52186   0.51286   0.00000  Uiso   1.00
H260   H     0.96544   0.75747   0.82867   0.00000  Uiso   1.00
H261   H     0.87476   0.96941   0.38647   0.00000  Uiso   1.00
H262   H     0.82794   0.09076   0.31126   0.00000  Uiso   1.00
H263   H     0.86262   0.86209   0.59983   0.00000  Uiso   1.00
H264   H     0.93711   0.97382   0.27537   0.00000  Uiso   1.00
H265   H     0.77067   0.19616   0.18535   0.00000  Uiso   1.00
H266   H     0.84380   0.71398   0.79381   0.00000  Uiso   1.00
H267   H     0.00087   0.94960   0.10962   0.00000  Uiso   1.00
O268   O     0.72140   0.17587   0.98951   0.00000  Uiso   1.00
O269   O     0.81736   0.54326   0.78778   0.00000  Uiso   1.00
O270   O     0.02342   0.85238   0.89014   0.00000  Uiso   1.00
N271   N     0.75001   0.03261   0.98082   0.00000  Uiso   1.00
N272   N     0.81838   0.58180   0.54970   0.00000  Uiso   1.00
N273   N     0.96522   0.80207   0.91006   0.00000  Uiso   1.00
N274   N     0.76907   0.13599   0.13200   0.00000  Uiso   1.00
N275   N     0.83744   0.68518   0.70087   0.00000  Uiso   1.00
N276   N     0.98429   0.90545   0.06123   0.00000  Uiso   1.00
C277   C     0.34286   0.70357   0.86651   0.00000  Uiso   1.00
C278   C     0.32193   0.61321   0.87165   0.00000  Uiso   1.00
C279   C     0.29371   0.59482   0.96018   0.00000  Uiso   1.00
C280   C     0.27808   0.50796   0.94871   0.00000  Uiso   1.00
C281   C     0.24372   0.37772   0.97134   0.00000  Uiso   1.00
C282   C     0.34077   0.73745   0.71486   0.00000  Uiso   1.00
C283   C     0.32839   0.82353   0.67156   0.00000  Uiso   1.00
C284   C     0.32863   0.84126   0.52810   0.00000  Uiso   1.00
C285   C     0.32354   0.90393   0.30732   0.00000  Uiso   1.00
C286   C     0.38123   0.67673   0.89116   0.00000  Uiso   1.00
C287   C     0.40289   0.71179   0.99607   0.00000  Uiso   1.00
C288   C     0.43720   0.67841   0.00102   0.00000  Uiso   1.00
C289   C     0.49494   0.64681   0.05397   0.00000  Uiso   1.00
C290   C     0.36528   0.58200   0.68872   0.00000  Uiso   1.00
C291   C     0.33411   0.54718   0.77508   0.00000  Uiso   1.00
C292   C     0.31852   0.46032   0.76348   0.00000  Uiso   1.00
C293   C     0.29028   0.44181   0.85197   0.00000  Uiso   1.00
C294   C     0.35294   0.67142   0.61829   0.00000  Uiso   1.00
C295   C     0.35320   0.68903   0.47487   0.00000  Uiso   1.00
C296   C     0.34082   0.77511   0.43136   0.00000  Uiso   1.00
C297   C     0.39341   0.61070   0.79459   0.00000  Uiso   1.00
C298   C     0.42769   0.57728   0.79938   0.00000  Uiso   1.00
C299   C     0.44940   0.61226   0.90428   0.00000  Uiso   1.00
H300   H     0.33338   0.75498   0.94168   0.00000  Uiso   1.00
H301   H     0.28429   0.64595   0.03488   0.00000  Uiso   1.00
H302   H     0.31898   0.87462   0.74632   0.00000  Uiso   1.00
H303   H     0.39346   0.76288   0.07078   0.00000  Uiso   1.00
H304   H     0.23524   0.49596   0.09560   0.00000  Uiso   1.00
H305   H     0.30838   0.97814   0.48714   0.00000  Uiso   1.00
H306   H     0.46544   0.74253   0.17133   0.00000  Uiso   1.00
H307   H     0.37476   0.53059   0.61353   0.00000  Uiso   1.00
H308   H     0.32794   0.40924   0.68874   0.00000  Uiso   1.00
H309   H     0.36262   0.63791   0.40017   0.00000  Uiso   1.00
H310   H     0.43711   0.52618   0.72463   0.00000  Uiso   1.00
H311   H     0.27067   0.30384   0.81465   0.00000  Uiso   1.00
H312   H     0.34380   0.78602   0.20619   0.00000  Uiso   1.00
H313   H     0.50087   0.55040   0.89038   0.00000  Uiso   1.00
O314   O     0.22140   0.32413   0.01049   0.00000  Uiso   1.00
O315   O     0.31736   0.95674   0.21222   0.00000  Uiso   1.00
O316   O     0.52342   0.64762   0.10986   0.00000  Uiso   1.00
N317   N     0.25001   0.46739   0.01918   0.00000  Uiso   1.00
N318   N     0.31838   0.91820   0.45030   0.00000  Uiso   1.00
N319   N     0.46522   0.69793   0.08994   0.00000  Uiso   1.00
N320   N     0.26907   0.36401   0.86800   0.00000  Uiso   1.00
N321   N     0.33744   0.81482   0.29913   0.00000  Uiso   1.00
N322   N     0.48429   0.59455   0.93877   0.00000  Uiso   1.00
C323   C     0.15714   0.79643   0.36651   0.00000  Uiso   1.00
C324   C     0.17807   0.88679   0.37165   0.00000  Uiso   1.00
C325   C     0.20629   0.90518   0.46018   0.00000  Uiso   1.00
C326   C     0.22192   0.99204   0.44871   0.00000  Uiso   1.00
C327   C     0.25628   0.12228   0.47134   0.00000  Uiso   1.00
C328   C     0.15923   0.76255   0.21486   0.00000  Uiso   1.00
C329   C     0.17161   0.67647   0.17156   0.00000  Uiso   1.00
C330   C     0.17137   0.65874   0.02810   0.00000  Uiso   1.00
C331   C     0.17646   0.59607   0.80732   0.00000  Uiso   1.00
C332   C     0.11877   0.82327   0.39116   0.00000  Uiso   1.00
C333   C     0.09711   0.78821   0.49607   0.00000  Uiso   1.00
C334   C     0.06280   0.82159   0.50102   0.00000  Uiso   1.00
C335   C     0.00506   0.85319   0.55397   0.00000  Uiso   1.00
C336   C     0.13472   0.91800   0.18872   0.00000  Uiso   1.00
C337   C     0.16589   0.95282   0.27508   0.00000  Uiso   1.00
C338   C     0.18148   0.03968   0.26348   0.00000  Uiso   1.00
C339   C     0.20972   0.05819   0.35197   0.00000  Uiso   1.00
C340   C     0.14706   0.82858   0.11829   0.00000  Uiso   1.00
C341   C     0.14680   0.81097   0.97487   0.00000  Uiso   1.00
C342   C     0.15918   0.72489   0.93136   0.00000  Uiso   1.00
C343   C     0.10659   0.88930   0.29459   0.00000  Uiso   1.00
C344   C     0.07231   0.92272   0.29938   0.00000  Uiso   1.00
C345   C     0.05060   0.88774   0.40428   0.00000  Uiso   1.00
H346   H     0.16662   0.74502   0.44168   0.00000  Uiso   1.00
H347   H     0.21571   0.85405   0.53488   0.00000  Uiso   1.00
H348   H     0.18102   0.62538   0.24632   0.00000  Uiso   1.00
H349   H     0.10654   0.73712   0.57078   0.00000  Uiso   1.00
H350   H     0.26476   0.00404   0.59560   0.00000  Uiso   1.00
H351   H     0.19162   0.52186   0.98714   0.00000  Uiso   1.00
H352   H     0.03456   0.75747   0.67133   0.00000  Uiso   1.00
H353   H     0.12524   0.96941   0.11353   0.00000  Uiso   1.00
H354   H     0.17206   0.09076   0.18874   0.00000  Uiso   1.00
H355   H     0.13738   0.86209   0.90017   0.00000  Uiso   1.00
H356   H     0.06289   0.97382   0.22463   0.00000  Uiso   1.00
H357   H     0.22933   0.19616   0.31465   0.00000  Uiso   1.00
H358   H     0.15620   0.71398   0.70619   0.00000  Uiso   1.00
H359   H     0.99913   0.94960   0.39038   0.00000  Uiso   1.00
O360   O     0.27860   0.17587   0.51049   0.00000  Uiso   1.00
O361   O     0.18264   0.54326   0.71222   0.00000  Uiso   1.00
O362   O     0.97658   0.85238   0.60986   0.00000  Uiso   1.00
N363   N     0.24999   0.03261   0.51918   0.00000  Uiso   1.00
N364   N     0.18162   0.58180   0.95030   0.00000  Uiso   1.00
N365   N     0.03478   0.80207   0.58994   0.00000  Uiso   1.00
N366   N     0.23093   0.13599   0.36800   0.00000  Uiso   1.00
N367   N     0.16256   0.68518   0.79913   0.00000  Uiso   1.00
N368   N     0.01571   0.90545   0.43877   0.00000  Uiso   1.00
