data_job_06274
_audit_creation_date              2018-12-19
_audit_creation_method            'Materials Studio'
_symmetry_space_group_name_H-M    'P1'
_symmetry_Int_Tables_number       1
_symmetry_cell_setting            triclinic
loop_
_symmetry_equiv_pos_as_xyz
  x,y,z
_cell_length_a                    15.8763
_cell_length_b                    20.6512
_cell_length_c                    20.7217
_cell_angle_alpha                 113.7160
_cell_angle_beta                  75.1951
_cell_angle_gamma                 75.5737
loop_
_atom_site_label
_atom_site_type_symbol
_atom_site_fract_x
_atom_site_fract_y
_atom_site_fract_z
_atom_site_U_iso_or_equiv
_atom_site_adp_type
_atom_site_occupancy
C1     C     0.00271   0.45071   0.80589   0.00000  Uiso   1.00
C2     C     0.04341   0.42843   0.72131   0.00000  Uiso   1.00
C3     C     0.00432   0.46785   0.68837   0.00000  Uiso   1.00
C4     C     0.05231   0.43818   0.61000   0.00000  Uiso   1.00
C5     C     0.10268   0.41371   0.48532   0.00000  Uiso   1.00
C6     C     0.98941   0.38053   0.80715   0.00000  Uiso   1.00
C7     C     0.90493   0.37969   0.84639   0.00000  Uiso   1.00
C8     C     0.90747   0.30971   0.84030   0.00000  Uiso   1.00
C9     C     0.87404   0.21090   0.84893   0.00000  Uiso   1.00
C10    C     0.08136   0.45901   0.83399   0.00000  Uiso   1.00
C11    C     0.07418   0.52414   0.89580   0.00000  Uiso   1.00
C12    C     0.15413   0.52022   0.91231   0.00000  Uiso   1.00
C13    C     0.26346   0.54325   0.96261   0.00000  Uiso   1.00
C14    C     0.15746   0.32791   0.72531   0.00000  Uiso   1.00
C15    C     0.12746   0.36173   0.67754   0.00000  Uiso   1.00
C16    C     0.17553   0.33199   0.59921   0.00000  Uiso   1.00
C17    C     0.13651   0.37137   0.56615   0.00000  Uiso   1.00
C18    C     0.07346   0.31384   0.76338   0.00000  Uiso   1.00
C19    C     0.07614   0.24384   0.75723   0.00000  Uiso   1.00
C20    C     0.99168   0.24289   0.79645   0.00000  Uiso   1.00
C21    C     0.16542   0.39231   0.79022   0.00000  Uiso   1.00
C22    C     0.24539   0.38829   0.80664   0.00000  Uiso   1.00
C23    C     0.23834   0.45340   0.86846   0.00000  Uiso   1.00
H24    H     0.93727   0.50263   0.83997   0.00000  Uiso   1.00
H25    H     0.93926   0.51946   0.72226   0.00000  Uiso   1.00
H26    H     0.83990   0.43132   0.88027   0.00000  Uiso   1.00
H27    H     0.00912   0.57574   0.92966   0.00000  Uiso   1.00
H28    H     0.97852   0.50869   0.57244   0.00000  Uiso   1.00
H29    H     0.76900   0.32285   0.90563   0.00000  Uiso   1.00
H30    H     0.12585   0.62740   0.00980   0.00000  Uiso   1.00
H31    H     0.22290   0.27599   0.69123   0.00000  Uiso   1.00
H32    H     0.24057   0.28038   0.56535   0.00000  Uiso   1.00
H33    H     0.14120   0.19224   0.72336   0.00000  Uiso   1.00
H34    H     0.31043   0.33666   0.77275   0.00000  Uiso   1.00
H35    H     0.22307   0.31464   0.44509   0.00000  Uiso   1.00
H36    H     0.01355   0.12880   0.77828   0.00000  Uiso   1.00
H37    H     0.37040   0.43335   0.88244   0.00000  Uiso   1.00
O38    O     0.10724   0.41863   0.42864   0.00000  Uiso   1.00
O39    O     0.83237   0.17482   0.86578   0.00000  Uiso   1.00
O40    O     0.30055   0.57438   0.00244   0.00000  Uiso   1.00
N41    N     0.03366   0.46242   0.55975   0.00000  Uiso   1.00
N42    N     0.83777   0.28867   0.87125   0.00000  Uiso   1.00
N43    N     0.17138   0.57339   0.96865   0.00000  Uiso   1.00
N44    N     0.16525   0.35801   0.49122   0.00000  Uiso   1.00
N45    N     0.96936   0.18426   0.80272   0.00000  Uiso   1.00
N46    N     0.30298   0.46898   0.90012   0.00000  Uiso   1.00
C47    C     0.80819   0.19386   0.64524   0.00000  Uiso   1.00
C48    C     0.76460   0.27856   0.70734   0.00000  Uiso   1.00
C49    C     0.69276   0.31107   0.77947   0.00000  Uiso   1.00
C50    C     0.66264   0.38963   0.82801   0.00000  Uiso   1.00
C51    C     0.58879   0.51441   0.92789   0.00000  Uiso   1.00
C52    C     0.79627   0.19253   0.57405   0.00000  Uiso   1.00
C53    C     0.75108   0.15270   0.53411   0.00000  Uiso   1.00
C54    C     0.74764   0.15884   0.47044   0.00000  Uiso   1.00
C55    C     0.72302   0.15000   0.36336   0.00000  Uiso   1.00
C56    C     0.91459   0.16648   0.62549   0.00000  Uiso   1.00
C57    C     0.96888   0.10474   0.62879   0.00000  Uiso   1.00
C58    C     0.06506   0.08894   0.60841   0.00000  Uiso   1.00
C59    C     0.22414   0.03967   0.58121   0.00000  Uiso   1.00
C60    C     0.88246   0.27557   0.60316   0.00000  Uiso   1.00
C61    C     0.80494   0.32294   0.68447   0.00000  Uiso   1.00
C62    C     0.77493   0.40147   0.73292   0.00000  Uiso   1.00
C63    C     0.70306   0.43410   0.80511   0.00000  Uiso   1.00
C64    C     0.83661   0.23691   0.55119   0.00000  Uiso   1.00
C65    C     0.83325   0.24310   0.48756   0.00000  Uiso   1.00
C66    C     0.78805   0.20330   0.44754   0.00000  Uiso   1.00
C67    C     0.95493   0.21087   0.60264   0.00000  Uiso   1.00
C68    C     0.05104   0.19515   0.58224   0.00000  Uiso   1.00
C69    C     0.10547   0.13340   0.58552   0.00000  Uiso   1.00
H70    H     0.77678   0.15930   0.66303   0.00000  Uiso   1.00
H71    H     0.66155   0.27670   0.79714   0.00000  Uiso   1.00
H72    H     0.71988   0.11835   0.55181   0.00000  Uiso   1.00
H73    H     0.93764   0.07041   0.64648   0.00000  Uiso   1.00
H74    H     0.55157   0.42644   0.93573   0.00000  Uiso   1.00
H75    H     0.67457   0.09253   0.41844   0.00000  Uiso   1.00
H76    H     0.13376   0.99143   0.61806   0.00000  Uiso   1.00
H77    H     0.91387   0.31012   0.58536   0.00000  Uiso   1.00
H78    H     0.80616   0.43580   0.71521   0.00000  Uiso   1.00
H79    H     0.86448   0.27745   0.46988   0.00000  Uiso   1.00
H80    H     0.08224   0.22951   0.56456   0.00000  Uiso   1.00
H81    H     0.66893   0.55558   0.86924   0.00000  Uiso   1.00
H82    H     0.79193   0.22166   0.35194   0.00000  Uiso   1.00
H83    H     0.25113   0.12056   0.55157   0.00000  Uiso   1.00
O84    O     0.53690   0.57097   0.98929   0.00000  Uiso   1.00
O85    O     0.69829   0.13288   0.31062   0.00000  Uiso   1.00
O86    O     0.30074   0.00024   0.57253   0.00000  Uiso   1.00
N87    N     0.59398   0.43958   0.90227   0.00000  Uiso   1.00
N88    N     0.70897   0.12740   0.41863   0.00000  Uiso   1.00
N89    N     0.13828   0.03287   0.60525   0.00000  Uiso   1.00
N90    N     0.65713   0.50907   0.86649   0.00000  Uiso   1.00
N91    N     0.77212   0.19689   0.38285   0.00000  Uiso   1.00
N92    N     0.20143   0.10236   0.56947   0.00000  Uiso   1.00
C93    C     0.45374   0.35502   0.54867   0.00000  Uiso   1.00
C94    C     0.47197   0.29269   0.57120   0.00000  Uiso   1.00
C95    C     0.47210   0.22014   0.53171   0.00000  Uiso   1.00
C96    C     0.49028   0.17144   0.56163   0.00000  Uiso   1.00
C97    C     0.51590   0.07115   0.58644   0.00000  Uiso   1.00
C98    C     0.37098   0.42592   0.61831   0.00000  Uiso   1.00
C99    C     0.28620   0.46540   0.61843   0.00000  Uiso   1.00
C100   C     0.21937   0.52887   0.68802   0.00000  Uiso   1.00
C101   C     0.08823   0.63546   0.78595   0.00000  Uiso   1.00
C102   C     0.54023   0.37561   0.54105   0.00000  Uiso   1.00
C103   C     0.59774   0.37280   0.47622   0.00000  Uiso   1.00
C104   C     0.67340   0.39392   0.48076   0.00000  Uiso   1.00
C105   C     0.80504   0.42239   0.45874   0.00000  Uiso   1.00
C106   C     0.48580   0.39756   0.67204   0.00000  Uiso   1.00
C107   C     0.48939   0.31580   0.63821   0.00000  Uiso   1.00
C108   C     0.50758   0.26720   0.66820   0.00000  Uiso   1.00
C109   C     0.50774   0.19458   0.62876   0.00000  Uiso   1.00
C110   C     0.38839   0.44903   0.68532   0.00000  Uiso   1.00
C111   C     0.32168   0.51246   0.75492   0.00000  Uiso   1.00
C112   C     0.23682   0.55201   0.75515   0.00000  Uiso   1.00
C113   C     0.55765   0.39871   0.60806   0.00000  Uiso   1.00
C114   C     0.63323   0.41985   0.61271   0.00000  Uiso   1.00
C115   C     0.69085   0.41707   0.54789   0.00000  Uiso   1.00
H116   H     0.44017   0.33704   0.49650   0.00000  Uiso   1.00
H117   H     0.45861   0.20228   0.47985   0.00000  Uiso   1.00
H118   H     0.27275   0.44751   0.56656   0.00000  Uiso   1.00
H119   H     0.58424   0.35492   0.42437   0.00000  Uiso   1.00
H120   H     0.48669   0.06308   0.49096   0.00000  Uiso   1.00
H121   H     0.09481   0.58016   0.67378   0.00000  Uiso   1.00
H122   H     0.75166   0.38492   0.37395   0.00000  Uiso   1.00
H123   H     0.49936   0.41555   0.72421   0.00000  Uiso   1.00
H124   H     0.52105   0.28509   0.72006   0.00000  Uiso   1.00
H125   H     0.33519   0.53032   0.80676   0.00000  Uiso   1.00
H126   H     0.64668   0.43773   0.66457   0.00000  Uiso   1.00
H127   H     0.53737   0.13029   0.68592   0.00000  Uiso   1.00
H128   H     0.14548   0.64738   0.86874   0.00000  Uiso   1.00
H129   H     0.80234   0.45213   0.56890   0.00000  Uiso   1.00
O130   O     0.52520   0.00946   0.58161   0.00000  Uiso   1.00
O131   O     0.01107   0.68786   0.82146   0.00000  Uiso   1.00
O132   O     0.87284   0.43171   0.42808   0.00000  Uiso   1.00
N133   N     0.49567   0.09679   0.53741   0.00000  Uiso   1.00
N134   N     0.12926   0.58023   0.70834   0.00000  Uiso   1.00
N135   N     0.74335   0.39772   0.42802   0.00000  Uiso   1.00
N136   N     0.52294   0.13296   0.64231   0.00000  Uiso   1.00
N137   N     0.15654   0.61640   0.81324   0.00000  Uiso   1.00
N138   N     0.77062   0.43388   0.53293   0.00000  Uiso   1.00
C139   C     0.99729   0.54929   0.19411   0.00000  Uiso   1.00
C140   C     0.95659   0.57157   0.27869   0.00000  Uiso   1.00
C141   C     0.99568   0.53215   0.31163   0.00000  Uiso   1.00
C142   C     0.94769   0.56182   0.39000   0.00000  Uiso   1.00
C143   C     0.89732   0.58629   0.51468   0.00000  Uiso   1.00
C144   C     0.01059   0.61947   0.19285   0.00000  Uiso   1.00
C145   C     0.09507   0.62031   0.15361   0.00000  Uiso   1.00
C146   C     0.09253   0.69029   0.15970   0.00000  Uiso   1.00
C147   C     0.12596   0.78910   0.15107   0.00000  Uiso   1.00
C148   C     0.91864   0.54099   0.16601   0.00000  Uiso   1.00
C149   C     0.92582   0.47586   0.10420   0.00000  Uiso   1.00
C150   C     0.84587   0.47978   0.08769   0.00000  Uiso   1.00
C151   C     0.73654   0.45675   0.03739   0.00000  Uiso   1.00
C152   C     0.84254   0.67209   0.27469   0.00000  Uiso   1.00
C153   C     0.87254   0.63827   0.32246   0.00000  Uiso   1.00
C154   C     0.82447   0.66801   0.40079   0.00000  Uiso   1.00
C155   C     0.86349   0.62863   0.43385   0.00000  Uiso   1.00
C156   C     0.92654   0.68616   0.23662   0.00000  Uiso   1.00
C157   C     0.92386   0.75616   0.24277   0.00000  Uiso   1.00
C158   C     0.00832   0.75711   0.20355   0.00000  Uiso   1.00
C159   C     0.83458   0.60769   0.20978   0.00000  Uiso   1.00
C160   C     0.75461   0.61171   0.19336   0.00000  Uiso   1.00
C161   C     0.76166   0.54660   0.13154   0.00000  Uiso   1.00
H162   H     0.06273   0.49737   0.16003   0.00000  Uiso   1.00
H163   H     0.06074   0.48054   0.27774   0.00000  Uiso   1.00
H164   H     0.16010   0.56868   0.11973   0.00000  Uiso   1.00
H165   H     0.99088   0.42426   0.07034   0.00000  Uiso   1.00
H166   H     0.02148   0.49131   0.42756   0.00000  Uiso   1.00
H167   H     0.23100   0.67715   0.09437   0.00000  Uiso   1.00
H168   H     0.87415   0.37260   0.99020   0.00000  Uiso   1.00
H169   H     0.77710   0.72401   0.30877   0.00000  Uiso   1.00
H170   H     0.75943   0.71962   0.43465   0.00000  Uiso   1.00
H171   H     0.85880   0.80776   0.27664   0.00000  Uiso   1.00
H172   H     0.68957   0.66334   0.22725   0.00000  Uiso   1.00
H173   H     0.77693   0.68536   0.55491   0.00000  Uiso   1.00
H174   H     0.98645   0.87120   0.22172   0.00000  Uiso   1.00
H175   H     0.62960   0.56665   0.11756   0.00000  Uiso   1.00
O176   O     0.89276   0.58137   0.57136   0.00000  Uiso   1.00
O177   O     0.16763   0.82518   0.13422   0.00000  Uiso   1.00
O178   O     0.69945   0.42562   0.99756   0.00000  Uiso   1.00
N179   N     0.96634   0.53758   0.44025   0.00000  Uiso   1.00
N180   N     0.16223   0.71133   0.12875   0.00000  Uiso   1.00
N181   N     0.82862   0.42661   0.03135   0.00000  Uiso   1.00
N182   N     0.83475   0.64199   0.50878   0.00000  Uiso   1.00
N183   N     0.03064   0.81574   0.19728   0.00000  Uiso   1.00
N184   N     0.69702   0.53102   0.09988   0.00000  Uiso   1.00
C185   C     0.19181   0.80614   0.35476   0.00000  Uiso   1.00
C186   C     0.23540   0.72144   0.29267   0.00000  Uiso   1.00
C187   C     0.30724   0.68893   0.22053   0.00000  Uiso   1.00
C188   C     0.33736   0.61037   0.17199   0.00000  Uiso   1.00
C189   C     0.41121   0.48559   0.07211   0.00000  Uiso   1.00
C190   C     0.20373   0.80747   0.42595   0.00000  Uiso   1.00
C191   C     0.24892   0.84730   0.46589   0.00000  Uiso   1.00
C192   C     0.25236   0.84116   0.52956   0.00000  Uiso   1.00
C193   C     0.27698   0.85000   0.63664   0.00000  Uiso   1.00
C194   C     0.08542   0.83352   0.37451   0.00000  Uiso   1.00
C195   C     0.03112   0.89526   0.37121   0.00000  Uiso   1.00
C196   C     0.93494   0.91106   0.39159   0.00000  Uiso   1.00
C197   C     0.77586   0.96033   0.41879   0.00000  Uiso   1.00
C198   C     0.11754   0.72443   0.39684   0.00000  Uiso   1.00
C199   C     0.19506   0.67706   0.31553   0.00000  Uiso   1.00
C200   C     0.22507   0.59853   0.26708   0.00000  Uiso   1.00
C201   C     0.29694   0.56590   0.19489   0.00000  Uiso   1.00
C202   C     0.16339   0.76309   0.44881   0.00000  Uiso   1.00
C203   C     0.16675   0.75690   0.51244   0.00000  Uiso   1.00
C204   C     0.21195   0.79670   0.55246   0.00000  Uiso   1.00
C205   C     0.04507   0.78913   0.39736   0.00000  Uiso   1.00
C206   C     0.94896   0.80485   0.41776   0.00000  Uiso   1.00
C207   C     0.89453   0.86660   0.41449   0.00000  Uiso   1.00
H208   H     0.22322   0.84070   0.33697   0.00000  Uiso   1.00
H209   H     0.33845   0.72330   0.20286   0.00000  Uiso   1.00
H210   H     0.28012   0.88165   0.44819   0.00000  Uiso   1.00
H211   H     0.06236   0.92959   0.35352   0.00000  Uiso   1.00
H212   H     0.44843   0.57356   0.06427   0.00000  Uiso   1.00
H213   H     0.32543   0.90747   0.58156   0.00000  Uiso   1.00
H214   H     0.86624   0.00857   0.38194   0.00000  Uiso   1.00
H215   H     0.08613   0.68988   0.41464   0.00000  Uiso   1.00
H216   H     0.19384   0.56420   0.28479   0.00000  Uiso   1.00
H217   H     0.13552   0.72255   0.53012   0.00000  Uiso   1.00
H218   H     0.91776   0.77049   0.43544   0.00000  Uiso   1.00
H219   H     0.33107   0.44442   0.13076   0.00000  Uiso   1.00
H220   H     0.20807   0.77834   0.64806   0.00000  Uiso   1.00
H221   H     0.74887   0.87944   0.44843   0.00000  Uiso   1.00
O222   O     0.46310   0.42903   0.01071   0.00000  Uiso   1.00
O223   O     0.30171   0.86712   0.68938   0.00000  Uiso   1.00
O224   O     0.69926   0.99976   0.42747   0.00000  Uiso   1.00
N225   N     0.40602   0.56042   0.09773   0.00000  Uiso   1.00
N226   N     0.29103   0.87260   0.58137   0.00000  Uiso   1.00
N227   N     0.86172   0.96713   0.39475   0.00000  Uiso   1.00
N228   N     0.34287   0.49093   0.13351   0.00000  Uiso   1.00
N229   N     0.22788   0.80311   0.61715   0.00000  Uiso   1.00
N230   N     0.79857   0.89764   0.43053   0.00000  Uiso   1.00
C231   C     0.54626   0.64498   0.45133   0.00000  Uiso   1.00
C232   C     0.52803   0.70731   0.42880   0.00000  Uiso   1.00
C233   C     0.52790   0.77986   0.46829   0.00000  Uiso   1.00
C234   C     0.50972   0.82856   0.43837   0.00000  Uiso   1.00
C235   C     0.48410   0.92885   0.41356   0.00000  Uiso   1.00
C236   C     0.62902   0.57408   0.38169   0.00000  Uiso   1.00
C237   C     0.71380   0.53460   0.38157   0.00000  Uiso   1.00
C238   C     0.78063   0.47113   0.31198   0.00000  Uiso   1.00
C239   C     0.91177   0.36454   0.21405   0.00000  Uiso   1.00
C240   C     0.45977   0.62439   0.45895   0.00000  Uiso   1.00
C241   C     0.40226   0.62720   0.52378   0.00000  Uiso   1.00
C242   C     0.32660   0.60608   0.51924   0.00000  Uiso   1.00
C243   C     0.19496   0.57761   0.54126   0.00000  Uiso   1.00
C244   C     0.51420   0.60244   0.32796   0.00000  Uiso   1.00
C245   C     0.51061   0.68420   0.36179   0.00000  Uiso   1.00
C246   C     0.49242   0.73280   0.33180   0.00000  Uiso   1.00
C247   C     0.49226   0.80542   0.37124   0.00000  Uiso   1.00
C248   C     0.61161   0.55097   0.31468   0.00000  Uiso   1.00
C249   C     0.67832   0.48754   0.24508   0.00000  Uiso   1.00
C250   C     0.76318   0.44799   0.24485   0.00000  Uiso   1.00
C251   C     0.44235   0.60129   0.39194   0.00000  Uiso   1.00
C252   C     0.36677   0.58015   0.38729   0.00000  Uiso   1.00
C253   C     0.30915   0.58293   0.45211   0.00000  Uiso   1.00
H254   H     0.55983   0.66296   0.50350   0.00000  Uiso   1.00
H255   H     0.54139   0.79772   0.52015   0.00000  Uiso   1.00
H256   H     0.72725   0.55249   0.43344   0.00000  Uiso   1.00
H257   H     0.41576   0.64508   0.57563   0.00000  Uiso   1.00
H258   H     0.51331   0.93692   0.50904   0.00000  Uiso   1.00
H259   H     0.90519   0.41984   0.32622   0.00000  Uiso   1.00
H260   H     0.24834   0.61508   0.62605   0.00000  Uiso   1.00
H261   H     0.50064   0.58445   0.27579   0.00000  Uiso   1.00
H262   H     0.47895   0.71491   0.27994   0.00000  Uiso   1.00
H263   H     0.66481   0.46968   0.19324   0.00000  Uiso   1.00
H264   H     0.35332   0.56227   0.33543   0.00000  Uiso   1.00
H265   H     0.46263   0.86971   0.31408   0.00000  Uiso   1.00
H266   H     0.85452   0.35262   0.13126   0.00000  Uiso   1.00
H267   H     0.19767   0.54787   0.43110   0.00000  Uiso   1.00
O268   O     0.47480   0.99054   0.41839   0.00000  Uiso   1.00
O269   O     0.98893   0.31214   0.17854   0.00000  Uiso   1.00
O270   O     0.12716   0.56829   0.57192   0.00000  Uiso   1.00
N271   N     0.50433   0.90321   0.46259   0.00000  Uiso   1.00
N272   N     0.87074   0.41977   0.29166   0.00000  Uiso   1.00
N273   N     0.25665   0.60228   0.57198   0.00000  Uiso   1.00
N274   N     0.47706   0.86704   0.35769   0.00000  Uiso   1.00
N275   N     0.84346   0.38360   0.18676   0.00000  Uiso   1.00
N276   N     0.22938   0.56612   0.46707   0.00000  Uiso   1.00
