data_job_03536
_audit_creation_date              2018-12-19
_audit_creation_method            'Materials Studio'
_symmetry_space_group_name_H-M    'P1'
_symmetry_Int_Tables_number       1
_symmetry_cell_setting            triclinic
loop_
_symmetry_equiv_pos_as_xyz
  x,y,z
_cell_length_a                    9.9393
_cell_length_b                    20.9626
_cell_length_c                    14.9346
_cell_angle_alpha                 90.0000
_cell_angle_beta                  74.8150
_cell_angle_gamma                 90.0000
loop_
_atom_site_label
_atom_site_type_symbol
_atom_site_fract_x
_atom_site_fract_y
_atom_site_fract_z
_atom_site_U_iso_or_equiv
_atom_site_adp_type
_atom_site_occupancy
C1     C     0.76313   0.70931   0.93070   0.00000  Uiso   1.00
C2     C     0.64847   0.75847   0.93516   0.00000  Uiso   1.00
C3     C     0.65650   0.82292   0.95439   0.00000  Uiso   1.00
C4     C     0.54038   0.85997   0.95525   0.00000  Uiso   1.00
C5     C     0.38053   0.94032   0.96492   0.00000  Uiso   1.00
C6     C     0.69828   0.65716   0.99974   0.00000  Uiso   1.00
C7     C     0.74821   0.63643   0.07326   0.00000  Uiso   1.00
C8     C     0.67403   0.58819   0.12849   0.00000  Uiso   1.00
C9     C     0.59158   0.51124   0.23838   0.00000  Uiso   1.00
C10    C     0.79153   0.67886   0.83484   0.00000  Uiso   1.00
C11    C     0.91987   0.67634   0.76971   0.00000  Uiso   1.00
C12    C     0.92420   0.64635   0.68611   0.00000  Uiso   1.00
C13    C     0.98653   0.60308   0.53996   0.00000  Uiso   1.00
C14    C     0.54263   0.66051   0.89805   0.00000  Uiso   1.00
C15    C     0.52870   0.73196   0.91743   0.00000  Uiso   1.00
C16    C     0.41254   0.76892   0.91826   0.00000  Uiso   1.00
C17    C     0.42040   0.83341   0.93748   0.00000  Uiso   1.00
C18    C     0.57852   0.63066   0.98201   0.00000  Uiso   1.00
C19    C     0.50425   0.58243   0.03714   0.00000  Uiso   1.00
C20    C     0.55404   0.56164   0.11072   0.00000  Uiso   1.00
C21    C     0.67176   0.65235   0.81710   0.00000  Uiso   1.00
C22    C     0.67590   0.62235   0.73359   0.00000  Uiso   1.00
C23    C     0.80422   0.61980   0.66834   0.00000  Uiso   1.00
H24    H     0.85638   0.72995   0.94451   0.00000  Uiso   1.00
H25    H     0.74920   0.84341   0.96812   0.00000  Uiso   1.00
H26    H     0.84090   0.65695   0.08696   0.00000  Uiso   1.00
H27    H     0.01253   0.69686   0.78346   0.00000  Uiso   1.00
H28    H     0.57754   0.95751   0.98649   0.00000  Uiso   1.00
H29    H     0.77093   0.56433   0.23707   0.00000  Uiso   1.00
H30    H     0.13284   0.64849   0.59708   0.00000  Uiso   1.00
H31    H     0.44938   0.63987   0.88425   0.00000  Uiso   1.00
H32    H     0.31987   0.74839   0.90453   0.00000  Uiso   1.00
H33    H     0.41157   0.56193   0.02339   0.00000  Uiso   1.00
H34    H     0.58320   0.60184   0.71989   0.00000  Uiso   1.00
H35    H     0.22908   0.88039   0.93489   0.00000  Uiso   1.00
H36    H     0.42247   0.48721   0.18547   0.00000  Uiso   1.00
H37    H     0.78438   0.57137   0.54548   0.00000  Uiso   1.00
O38    O     0.32544   0.99197   0.97516   0.00000  Uiso   1.00
O39    O     0.57918   0.47612   0.30390   0.00000  Uiso   1.00
O40    O     0.05399   0.58654   0.46424   0.00000  Uiso   1.00
N41    N     0.51332   0.92447   0.97155   0.00000  Uiso   1.00
N42    N     0.69411   0.55688   0.20583   0.00000  Uiso   1.00
N43    N     0.03247   0.63554   0.60750   0.00000  Uiso   1.00
N44    N     0.32581   0.88297   0.94378   0.00000  Uiso   1.00
N45    N     0.50660   0.51538   0.17807   0.00000  Uiso   1.00
N46    N     0.84497   0.59405   0.57974   0.00000  Uiso   1.00
C47    C     0.23687   0.20931   0.56930   0.00000  Uiso   1.00
C48    C     0.35153   0.25847   0.56484   0.00000  Uiso   1.00
C49    C     0.34350   0.32292   0.54561   0.00000  Uiso   1.00
C50    C     0.45962   0.35997   0.54475   0.00000  Uiso   1.00
C51    C     0.61947   0.44032   0.53508   0.00000  Uiso   1.00
C52    C     0.30172   0.15716   0.50026   0.00000  Uiso   1.00
C53    C     0.25179   0.13643   0.42674   0.00000  Uiso   1.00
C54    C     0.32597   0.08819   0.37151   0.00000  Uiso   1.00
C55    C     0.40842   0.01124   0.26162   0.00000  Uiso   1.00
C56    C     0.20847   0.17886   0.66516   0.00000  Uiso   1.00
C57    C     0.08013   0.17634   0.73029   0.00000  Uiso   1.00
C58    C     0.07580   0.14635   0.81389   0.00000  Uiso   1.00
C59    C     0.01347   0.10308   0.96004   0.00000  Uiso   1.00
C60    C     0.45737   0.16051   0.60195   0.00000  Uiso   1.00
C61    C     0.47130   0.23196   0.58257   0.00000  Uiso   1.00
C62    C     0.58746   0.26892   0.58174   0.00000  Uiso   1.00
C63    C     0.57960   0.33341   0.56252   0.00000  Uiso   1.00
C64    C     0.42148   0.13066   0.51799   0.00000  Uiso   1.00
C65    C     0.49575   0.08243   0.46286   0.00000  Uiso   1.00
C66    C     0.44596   0.06164   0.38928   0.00000  Uiso   1.00
C67    C     0.32824   0.15235   0.68290   0.00000  Uiso   1.00
C68    C     0.32410   0.12235   0.76641   0.00000  Uiso   1.00
C69    C     0.19578   0.11980   0.83166   0.00000  Uiso   1.00
H70    H     0.14362   0.22995   0.55549   0.00000  Uiso   1.00
H71    H     0.25080   0.34341   0.53188   0.00000  Uiso   1.00
H72    H     0.15910   0.15695   0.41304   0.00000  Uiso   1.00
H73    H     0.98747   0.19686   0.71654   0.00000  Uiso   1.00
H74    H     0.42246   0.45751   0.51351   0.00000  Uiso   1.00
H75    H     0.22907   0.06433   0.26293   0.00000  Uiso   1.00
H76    H     0.86716   0.14849   0.90292   0.00000  Uiso   1.00
H77    H     0.55062   0.13987   0.61575   0.00000  Uiso   1.00
H78    H     0.68013   0.24839   0.59547   0.00000  Uiso   1.00
H79    H     0.58843   0.06193   0.47661   0.00000  Uiso   1.00
H80    H     0.41680   0.10184   0.78011   0.00000  Uiso   1.00
H81    H     0.77092   0.38039   0.56511   0.00000  Uiso   1.00
H82    H     0.57753   0.98721   0.31453   0.00000  Uiso   1.00
H83    H     0.21562   0.07137   0.95452   0.00000  Uiso   1.00
O84    O     0.67456   0.49197   0.52484   0.00000  Uiso   1.00
O85    O     0.42082   0.97612   0.19610   0.00000  Uiso   1.00
O86    O     0.94601   0.08654   0.03576   0.00000  Uiso   1.00
N87    N     0.48668   0.42447   0.52845   0.00000  Uiso   1.00
N88    N     0.30589   0.05688   0.29417   0.00000  Uiso   1.00
N89    N     0.96753   0.13554   0.89250   0.00000  Uiso   1.00
N90    N     0.67419   0.38297   0.55622   0.00000  Uiso   1.00
N91    N     0.49340   0.01538   0.32193   0.00000  Uiso   1.00
N92    N     0.15503   0.09405   0.92026   0.00000  Uiso   1.00
C93    C     0.23687   0.29069   0.06930   0.00000  Uiso   1.00
C94    C     0.35153   0.24153   0.06484   0.00000  Uiso   1.00
C95    C     0.34350   0.17708   0.04561   0.00000  Uiso   1.00
C96    C     0.45962   0.14003   0.04475   0.00000  Uiso   1.00
C97    C     0.61947   0.05968   0.03508   0.00000  Uiso   1.00
C98    C     0.30172   0.34284   0.00026   0.00000  Uiso   1.00
C99    C     0.25179   0.36357   0.92674   0.00000  Uiso   1.00
C100   C     0.32597   0.41181   0.87151   0.00000  Uiso   1.00
C101   C     0.40842   0.48876   0.76162   0.00000  Uiso   1.00
C102   C     0.20847   0.32114   0.16516   0.00000  Uiso   1.00
C103   C     0.08013   0.32366   0.23029   0.00000  Uiso   1.00
C104   C     0.07580   0.35365   0.31389   0.00000  Uiso   1.00
C105   C     0.01347   0.39692   0.46004   0.00000  Uiso   1.00
C106   C     0.45737   0.33949   0.10195   0.00000  Uiso   1.00
C107   C     0.47130   0.26804   0.08257   0.00000  Uiso   1.00
C108   C     0.58746   0.23108   0.08174   0.00000  Uiso   1.00
C109   C     0.57960   0.16659   0.06252   0.00000  Uiso   1.00
C110   C     0.42148   0.36934   0.01799   0.00000  Uiso   1.00
C111   C     0.49575   0.41757   0.96286   0.00000  Uiso   1.00
C112   C     0.44596   0.43836   0.88928   0.00000  Uiso   1.00
C113   C     0.32824   0.34765   0.18290   0.00000  Uiso   1.00
C114   C     0.32410   0.37765   0.26641   0.00000  Uiso   1.00
C115   C     0.19578   0.38020   0.33166   0.00000  Uiso   1.00
H116   H     0.14362   0.27005   0.05549   0.00000  Uiso   1.00
H117   H     0.25080   0.15659   0.03188   0.00000  Uiso   1.00
H118   H     0.15910   0.34305   0.91304   0.00000  Uiso   1.00
H119   H     0.98747   0.30314   0.21654   0.00000  Uiso   1.00
H120   H     0.42246   0.04249   0.01351   0.00000  Uiso   1.00
H121   H     0.22907   0.43567   0.76293   0.00000  Uiso   1.00
H122   H     0.86716   0.35151   0.40292   0.00000  Uiso   1.00
H123   H     0.55062   0.36013   0.11575   0.00000  Uiso   1.00
H124   H     0.68013   0.25161   0.09547   0.00000  Uiso   1.00
H125   H     0.58843   0.43807   0.97661   0.00000  Uiso   1.00
H126   H     0.41680   0.39816   0.28011   0.00000  Uiso   1.00
H127   H     0.77092   0.11961   0.06511   0.00000  Uiso   1.00
H128   H     0.57753   0.51279   0.81453   0.00000  Uiso   1.00
H129   H     0.21562   0.42863   0.45452   0.00000  Uiso   1.00
O130   O     0.67456   0.00803   0.02484   0.00000  Uiso   1.00
O131   O     0.42082   0.52388   0.69610   0.00000  Uiso   1.00
O132   O     0.94601   0.41346   0.53576   0.00000  Uiso   1.00
N133   N     0.48668   0.07553   0.02845   0.00000  Uiso   1.00
N134   N     0.30589   0.44312   0.79417   0.00000  Uiso   1.00
N135   N     0.96753   0.36446   0.39250   0.00000  Uiso   1.00
N136   N     0.67419   0.11703   0.05622   0.00000  Uiso   1.00
N137   N     0.49340   0.48462   0.82193   0.00000  Uiso   1.00
N138   N     0.15503   0.40595   0.42026   0.00000  Uiso   1.00
C139   C     0.76313   0.79069   0.43070   0.00000  Uiso   1.00
C140   C     0.64847   0.74153   0.43516   0.00000  Uiso   1.00
C141   C     0.65650   0.67708   0.45439   0.00000  Uiso   1.00
C142   C     0.54038   0.64003   0.45525   0.00000  Uiso   1.00
C143   C     0.38053   0.55968   0.46492   0.00000  Uiso   1.00
C144   C     0.69828   0.84284   0.49974   0.00000  Uiso   1.00
C145   C     0.74821   0.86357   0.57326   0.00000  Uiso   1.00
C146   C     0.67403   0.91181   0.62849   0.00000  Uiso   1.00
C147   C     0.59158   0.98876   0.73838   0.00000  Uiso   1.00
C148   C     0.79153   0.82114   0.33484   0.00000  Uiso   1.00
C149   C     0.91987   0.82366   0.26971   0.00000  Uiso   1.00
C150   C     0.92420   0.85365   0.18611   0.00000  Uiso   1.00
C151   C     0.98653   0.89692   0.03996   0.00000  Uiso   1.00
C152   C     0.54263   0.83949   0.39805   0.00000  Uiso   1.00
C153   C     0.52870   0.76804   0.41743   0.00000  Uiso   1.00
C154   C     0.41254   0.73108   0.41826   0.00000  Uiso   1.00
C155   C     0.42040   0.66659   0.43748   0.00000  Uiso   1.00
C156   C     0.57852   0.86934   0.48201   0.00000  Uiso   1.00
C157   C     0.50425   0.91757   0.53714   0.00000  Uiso   1.00
C158   C     0.55404   0.93836   0.61072   0.00000  Uiso   1.00
C159   C     0.67176   0.84765   0.31710   0.00000  Uiso   1.00
C160   C     0.67590   0.87765   0.23359   0.00000  Uiso   1.00
C161   C     0.80422   0.88020   0.16834   0.00000  Uiso   1.00
H162   H     0.85638   0.77005   0.44451   0.00000  Uiso   1.00
H163   H     0.74920   0.65659   0.46812   0.00000  Uiso   1.00
H164   H     0.84090   0.84305   0.58696   0.00000  Uiso   1.00
H165   H     0.01253   0.80314   0.28346   0.00000  Uiso   1.00
H166   H     0.57754   0.54249   0.48649   0.00000  Uiso   1.00
H167   H     0.77093   0.93567   0.73707   0.00000  Uiso   1.00
H168   H     0.13284   0.85151   0.09708   0.00000  Uiso   1.00
H169   H     0.44938   0.86013   0.38425   0.00000  Uiso   1.00
H170   H     0.31987   0.75161   0.40453   0.00000  Uiso   1.00
H171   H     0.41157   0.93807   0.52339   0.00000  Uiso   1.00
H172   H     0.58320   0.89816   0.21989   0.00000  Uiso   1.00
H173   H     0.22908   0.61961   0.43489   0.00000  Uiso   1.00
H174   H     0.42247   0.01279   0.68547   0.00000  Uiso   1.00
H175   H     0.78438   0.92863   0.04548   0.00000  Uiso   1.00
O176   O     0.32544   0.50803   0.47516   0.00000  Uiso   1.00
O177   O     0.57918   0.02388   0.80390   0.00000  Uiso   1.00
O178   O     0.05399   0.91346   0.96424   0.00000  Uiso   1.00
N179   N     0.51332   0.57553   0.47155   0.00000  Uiso   1.00
N180   N     0.69411   0.94312   0.70583   0.00000  Uiso   1.00
N181   N     0.03247   0.86446   0.10750   0.00000  Uiso   1.00
N182   N     0.32581   0.61703   0.44378   0.00000  Uiso   1.00
N183   N     0.50660   0.98462   0.67807   0.00000  Uiso   1.00
N184   N     0.84497   0.90595   0.07974   0.00000  Uiso   1.00
