data_job_03085
_audit_creation_date              2018-12-19
_audit_creation_method            'Materials Studio'
_symmetry_space_group_name_H-M    'P1'
_symmetry_Int_Tables_number       1
_symmetry_cell_setting            triclinic
loop_
_symmetry_equiv_pos_as_xyz
  x,y,z
_cell_length_a                    14.0762
_cell_length_b                    14.0762
_cell_length_c                    23.5549
_cell_angle_alpha                 90.0000
_cell_angle_beta                  90.0000
_cell_angle_gamma                 90.0000
loop_
_atom_site_label
_atom_site_type_symbol
_atom_site_fract_x
_atom_site_fract_y
_atom_site_fract_z
_atom_site_U_iso_or_equiv
_atom_site_adp_type
_atom_site_occupancy
C1     C     0.19647   0.13235   0.65389   0.00000  Uiso   1.00
C2     C     0.27509   0.13527   0.60938   0.00000  Uiso   1.00
C3     C     0.31240   0.21671   0.58477   0.00000  Uiso   1.00
C4     C     0.38397   0.20436   0.54489   0.00000  Uiso   1.00
C5     C     0.50098   0.22267   0.47799   0.00000  Uiso   1.00
C6     C     0.11863   0.06920   0.62932   0.00000  Uiso   1.00
C7     C     0.02441   0.09510   0.62149   0.00000  Uiso   1.00
C8     C     0.96427   0.02713   0.59840   0.00000  Uiso   1.00
C9     C     0.83837   0.94285   0.56251   0.00000  Uiso   1.00
C10    C     0.23732   0.07829   0.70440   0.00000  Uiso   1.00
C11    C     0.24286   0.11182   0.75971   0.00000  Uiso   1.00
C12    C     0.28262   0.05149   0.79984   0.00000  Uiso   1.00
C13    C     0.34100   0.98133   0.88052   0.00000  Uiso   1.00
C14    C     0.25722   0.96559   0.62681   0.00000  Uiso   1.00
C15    C     0.30808   0.04469   0.59467   0.00000  Uiso   1.00
C16    C     0.37961   0.03221   0.55481   0.00000  Uiso   1.00
C17    C     0.41703   0.11362   0.53016   0.00000  Uiso   1.00
C18    C     0.15162   0.97863   0.61461   0.00000  Uiso   1.00
C19    C     0.09161   0.91060   0.59153   0.00000  Uiso   1.00
C20    C     0.99732   0.93639   0.58367   0.00000  Uiso   1.00
C21    C     0.27031   0.98772   0.68969   0.00000  Uiso   1.00
C22    C     0.31007   0.92733   0.72975   0.00000  Uiso   1.00
C23    C     0.31567   0.96075   0.78510   0.00000  Uiso   1.00
H24    H     0.17078   0.20286   0.66534   0.00000  Uiso   1.00
H25    H     0.28685   0.28679   0.59616   0.00000  Uiso   1.00
H26    H     0.99889   0.16519   0.63288   0.00000  Uiso   1.00
H27    H     0.21732   0.18191   0.77108   0.00000  Uiso   1.00
H28    H     0.43005   0.33989   0.51297   0.00000  Uiso   1.00
H29    H     0.82288   0.08349   0.59042   0.00000  Uiso   1.00
H30    H     0.28347   0.11875   0.88182   0.00000  Uiso   1.00
H31    H     0.28290   0.89507   0.61535   0.00000  Uiso   1.00
H32    H     0.40512   0.96211   0.54344   0.00000  Uiso   1.00
H33    H     0.11717   0.84052   0.58016   0.00000  Uiso   1.00
H34    H     0.33559   0.85724   0.71835   0.00000  Uiso   1.00
H35    H     0.52605   0.07637   0.47017   0.00000  Uiso   1.00
H36    H     0.91887   0.81997   0.54762   0.00000  Uiso   1.00
H37    H     0.37946   0.85523   0.83903   0.00000  Uiso   1.00
O38    O     0.55640   0.25778   0.44515   0.00000  Uiso   1.00
O39    O     0.75981   0.92139   0.54677   0.00000  Uiso   1.00
O40    O     0.36410   0.96766   0.92908   0.00000  Uiso   1.00
N41    N     0.43588   0.26867   0.51278   0.00000  Uiso   1.00
N42    N     0.86821   0.02896   0.58517   0.00000  Uiso   1.00
N43    N     0.29880   0.06192   0.85762   0.00000  Uiso   1.00
N44    N     0.48754   0.12688   0.48975   0.00000  Uiso   1.00
N45    N     0.91987   0.88716   0.56215   0.00000  Uiso   1.00
N46    N     0.35046   0.92012   0.83459   0.00000  Uiso   1.00
C47    C     0.80353   0.86765   0.15389   0.00000  Uiso   1.00
C48    C     0.72491   0.86473   0.10938   0.00000  Uiso   1.00
C49    C     0.68760   0.78329   0.08477   0.00000  Uiso   1.00
C50    C     0.61603   0.79564   0.04489   0.00000  Uiso   1.00
C51    C     0.49902   0.77733   0.97799   0.00000  Uiso   1.00
C52    C     0.88137   0.93080   0.12932   0.00000  Uiso   1.00
C53    C     0.97559   0.90490   0.12149   0.00000  Uiso   1.00
C54    C     0.03573   0.97287   0.09840   0.00000  Uiso   1.00
C55    C     0.16163   0.05715   0.06251   0.00000  Uiso   1.00
C56    C     0.76268   0.92171   0.20440   0.00000  Uiso   1.00
C57    C     0.75714   0.88818   0.25971   0.00000  Uiso   1.00
C58    C     0.71738   0.94851   0.29984   0.00000  Uiso   1.00
C59    C     0.65900   0.01867   0.38052   0.00000  Uiso   1.00
C60    C     0.74278   0.03441   0.12681   0.00000  Uiso   1.00
C61    C     0.69192   0.95531   0.09467   0.00000  Uiso   1.00
C62    C     0.62039   0.96779   0.05481   0.00000  Uiso   1.00
C63    C     0.58297   0.88638   0.03016   0.00000  Uiso   1.00
C64    C     0.84838   0.02137   0.11461   0.00000  Uiso   1.00
C65    C     0.90839   0.08940   0.09153   0.00000  Uiso   1.00
C66    C     0.00268   0.06361   0.08367   0.00000  Uiso   1.00
C67    C     0.72969   0.01228   0.18969   0.00000  Uiso   1.00
C68    C     0.68993   0.07267   0.22975   0.00000  Uiso   1.00
C69    C     0.68433   0.03925   0.28510   0.00000  Uiso   1.00
H70    H     0.82922   0.79714   0.16534   0.00000  Uiso   1.00
H71    H     0.71315   0.71321   0.09616   0.00000  Uiso   1.00
H72    H     0.00111   0.83481   0.13288   0.00000  Uiso   1.00
H73    H     0.78268   0.81809   0.27108   0.00000  Uiso   1.00
H74    H     0.56995   0.66011   0.01297   0.00000  Uiso   1.00
H75    H     0.17712   0.91651   0.09042   0.00000  Uiso   1.00
H76    H     0.71653   0.88125   0.38182   0.00000  Uiso   1.00
H77    H     0.71710   0.10493   0.11535   0.00000  Uiso   1.00
H78    H     0.59488   0.03789   0.04344   0.00000  Uiso   1.00
H79    H     0.88283   0.15948   0.08016   0.00000  Uiso   1.00
H80    H     0.66441   0.14276   0.21835   0.00000  Uiso   1.00
H81    H     0.47395   0.92363   0.97017   0.00000  Uiso   1.00
H82    H     0.08113   0.18003   0.04762   0.00000  Uiso   1.00
H83    H     0.62054   0.14477   0.33903   0.00000  Uiso   1.00
O84    O     0.44360   0.74222   0.94515   0.00000  Uiso   1.00
O85    O     0.24019   0.07861   0.04677   0.00000  Uiso   1.00
O86    O     0.63590   0.03234   0.42908   0.00000  Uiso   1.00
N87    N     0.56412   0.73133   0.01278   0.00000  Uiso   1.00
N88    N     0.13179   0.97104   0.08517   0.00000  Uiso   1.00
N89    N     0.70120   0.93808   0.35762   0.00000  Uiso   1.00
N90    N     0.51246   0.87312   0.98975   0.00000  Uiso   1.00
N91    N     0.08013   0.11284   0.06215   0.00000  Uiso   1.00
N92    N     0.64954   0.07988   0.33459   0.00000  Uiso   1.00
C93    C     0.36765   0.69647   0.40389   0.00000  Uiso   1.00
C94    C     0.36473   0.77509   0.35938   0.00000  Uiso   1.00
C95    C     0.28329   0.81240   0.33477   0.00000  Uiso   1.00
C96    C     0.29564   0.88397   0.29489   0.00000  Uiso   1.00
C97    C     0.27733   0.00098   0.22799   0.00000  Uiso   1.00
C98    C     0.43080   0.61863   0.37932   0.00000  Uiso   1.00
C99    C     0.40490   0.52441   0.37149   0.00000  Uiso   1.00
C100   C     0.47287   0.46427   0.34840   0.00000  Uiso   1.00
C101   C     0.55715   0.33837   0.31251   0.00000  Uiso   1.00
C102   C     0.42171   0.73732   0.45440   0.00000  Uiso   1.00
C103   C     0.38818   0.74286   0.50971   0.00000  Uiso   1.00
C104   C     0.44851   0.78262   0.54984   0.00000  Uiso   1.00
C105   C     0.51867   0.84100   0.63052   0.00000  Uiso   1.00
C106   C     0.53441   0.75722   0.37681   0.00000  Uiso   1.00
C107   C     0.45531   0.80808   0.34467   0.00000  Uiso   1.00
C108   C     0.46779   0.87961   0.30481   0.00000  Uiso   1.00
C109   C     0.38638   0.91703   0.28016   0.00000  Uiso   1.00
C110   C     0.52137   0.65162   0.36461   0.00000  Uiso   1.00
C111   C     0.58940   0.59161   0.34153   0.00000  Uiso   1.00
C112   C     0.56361   0.49732   0.33367   0.00000  Uiso   1.00
C113   C     0.51228   0.77031   0.43969   0.00000  Uiso   1.00
C114   C     0.57267   0.81007   0.47975   0.00000  Uiso   1.00
C115   C     0.53925   0.81567   0.53510   0.00000  Uiso   1.00
H116   H     0.29714   0.67078   0.41534   0.00000  Uiso   1.00
H117   H     0.21321   0.78685   0.34616   0.00000  Uiso   1.00
H118   H     0.33481   0.49889   0.38288   0.00000  Uiso   1.00
H119   H     0.31809   0.71732   0.52108   0.00000  Uiso   1.00
H120   H     0.16011   0.93005   0.26297   0.00000  Uiso   1.00
H121   H     0.41651   0.32288   0.34042   0.00000  Uiso   1.00
H122   H     0.38125   0.78347   0.63182   0.00000  Uiso   1.00
H123   H     0.60493   0.78290   0.36535   0.00000  Uiso   1.00
H124   H     0.53789   0.90512   0.29344   0.00000  Uiso   1.00
H125   H     0.65948   0.61717   0.33016   0.00000  Uiso   1.00
H126   H     0.64276   0.83559   0.46835   0.00000  Uiso   1.00
H127   H     0.42363   0.02605   0.22017   0.00000  Uiso   1.00
H128   H     0.68003   0.41887   0.29762   0.00000  Uiso   1.00
H129   H     0.64477   0.87946   0.58903   0.00000  Uiso   1.00
O130   O     0.24222   0.05640   0.19515   0.00000  Uiso   1.00
O131   O     0.57861   0.25981   0.29677   0.00000  Uiso   1.00
O132   O     0.53234   0.86410   0.67908   0.00000  Uiso   1.00
N133   N     0.23133   0.93588   0.26278   0.00000  Uiso   1.00
N134   N     0.47104   0.36821   0.33517   0.00000  Uiso   1.00
N135   N     0.43808   0.79880   0.60762   0.00000  Uiso   1.00
N136   N     0.37312   0.98754   0.23975   0.00000  Uiso   1.00
N137   N     0.61284   0.41987   0.31215   0.00000  Uiso   1.00
N138   N     0.57988   0.85046   0.58459   0.00000  Uiso   1.00
C139   C     0.63235   0.30353   0.90389   0.00000  Uiso   1.00
C140   C     0.63527   0.22491   0.85938   0.00000  Uiso   1.00
C141   C     0.71671   0.18760   0.83477   0.00000  Uiso   1.00
C142   C     0.70436   0.11603   0.79489   0.00000  Uiso   1.00
C143   C     0.72267   0.99902   0.72799   0.00000  Uiso   1.00
C144   C     0.56920   0.38137   0.87932   0.00000  Uiso   1.00
C145   C     0.59510   0.47559   0.87149   0.00000  Uiso   1.00
C146   C     0.52713   0.53573   0.84840   0.00000  Uiso   1.00
C147   C     0.44285   0.66163   0.81251   0.00000  Uiso   1.00
C148   C     0.57829   0.26268   0.95440   0.00000  Uiso   1.00
C149   C     0.61182   0.25714   0.00971   0.00000  Uiso   1.00
C150   C     0.55149   0.21738   0.04984   0.00000  Uiso   1.00
C151   C     0.48133   0.15900   0.13052   0.00000  Uiso   1.00
C152   C     0.46559   0.24278   0.87681   0.00000  Uiso   1.00
C153   C     0.54469   0.19192   0.84467   0.00000  Uiso   1.00
C154   C     0.53221   0.12039   0.80481   0.00000  Uiso   1.00
C155   C     0.61362   0.08297   0.78016   0.00000  Uiso   1.00
C156   C     0.47863   0.34838   0.86461   0.00000  Uiso   1.00
C157   C     0.41060   0.40839   0.84153   0.00000  Uiso   1.00
C158   C     0.43639   0.50268   0.83367   0.00000  Uiso   1.00
C159   C     0.48772   0.22969   0.93969   0.00000  Uiso   1.00
C160   C     0.42733   0.18993   0.97975   0.00000  Uiso   1.00
C161   C     0.46075   0.18433   0.03510   0.00000  Uiso   1.00
H162   H     0.70286   0.32922   0.91534   0.00000  Uiso   1.00
H163   H     0.78679   0.21315   0.84616   0.00000  Uiso   1.00
H164   H     0.66519   0.50111   0.88288   0.00000  Uiso   1.00
H165   H     0.68191   0.28268   0.02108   0.00000  Uiso   1.00
H166   H     0.83989   0.06995   0.76297   0.00000  Uiso   1.00
H167   H     0.58349   0.67712   0.84042   0.00000  Uiso   1.00
H168   H     0.61875   0.21653   0.13182   0.00000  Uiso   1.00
H169   H     0.39507   0.21710   0.86535   0.00000  Uiso   1.00
H170   H     0.46211   0.09488   0.79344   0.00000  Uiso   1.00
H171   H     0.34052   0.38283   0.83016   0.00000  Uiso   1.00
H172   H     0.35724   0.16441   0.96835   0.00000  Uiso   1.00
H173   H     0.57637   0.97395   0.72017   0.00000  Uiso   1.00
H174   H     0.31997   0.58113   0.79762   0.00000  Uiso   1.00
H175   H     0.35523   0.12054   0.08903   0.00000  Uiso   1.00
O176   O     0.75778   0.94360   0.69515   0.00000  Uiso   1.00
O177   O     0.42139   0.74019   0.79677   0.00000  Uiso   1.00
O178   O     0.46766   0.13590   0.17908   0.00000  Uiso   1.00
N179   N     0.76867   0.06412   0.76278   0.00000  Uiso   1.00
N180   N     0.52896   0.63179   0.83517   0.00000  Uiso   1.00
N181   N     0.56192   0.20120   0.10762   0.00000  Uiso   1.00
N182   N     0.62688   0.01246   0.73975   0.00000  Uiso   1.00
N183   N     0.38716   0.58013   0.81215   0.00000  Uiso   1.00
N184   N     0.42012   0.14954   0.08459   0.00000  Uiso   1.00
C185   C     0.30353   0.63235   0.09611   0.00000  Uiso   1.00
C186   C     0.22491   0.63527   0.14062   0.00000  Uiso   1.00
C187   C     0.18760   0.71671   0.16523   0.00000  Uiso   1.00
C188   C     0.11603   0.70436   0.20511   0.00000  Uiso   1.00
C189   C     0.99902   0.72267   0.27201   0.00000  Uiso   1.00
C190   C     0.38137   0.56920   0.12068   0.00000  Uiso   1.00
C191   C     0.47559   0.59510   0.12851   0.00000  Uiso   1.00
C192   C     0.53573   0.52713   0.15160   0.00000  Uiso   1.00
C193   C     0.66163   0.44285   0.18749   0.00000  Uiso   1.00
C194   C     0.26268   0.57829   0.04560   0.00000  Uiso   1.00
C195   C     0.25714   0.61182   0.99029   0.00000  Uiso   1.00
C196   C     0.21738   0.55149   0.95016   0.00000  Uiso   1.00
C197   C     0.15900   0.48133   0.86948   0.00000  Uiso   1.00
C198   C     0.24278   0.46559   0.12319   0.00000  Uiso   1.00
C199   C     0.19192   0.54469   0.15533   0.00000  Uiso   1.00
C200   C     0.12039   0.53221   0.19519   0.00000  Uiso   1.00
C201   C     0.08297   0.61362   0.21984   0.00000  Uiso   1.00
C202   C     0.34838   0.47863   0.13539   0.00000  Uiso   1.00
C203   C     0.40839   0.41060   0.15847   0.00000  Uiso   1.00
C204   C     0.50268   0.43639   0.16633   0.00000  Uiso   1.00
C205   C     0.22969   0.48772   0.06031   0.00000  Uiso   1.00
C206   C     0.18993   0.42733   0.02025   0.00000  Uiso   1.00
C207   C     0.18433   0.46075   0.96490   0.00000  Uiso   1.00
H208   H     0.32922   0.70286   0.08466   0.00000  Uiso   1.00
H209   H     0.21315   0.78679   0.15384   0.00000  Uiso   1.00
H210   H     0.50111   0.66519   0.11712   0.00000  Uiso   1.00
H211   H     0.28268   0.68191   0.97892   0.00000  Uiso   1.00
H212   H     0.06995   0.83989   0.23703   0.00000  Uiso   1.00
H213   H     0.67712   0.58349   0.15958   0.00000  Uiso   1.00
H214   H     0.21653   0.61875   0.86818   0.00000  Uiso   1.00
H215   H     0.21710   0.39507   0.13465   0.00000  Uiso   1.00
H216   H     0.09488   0.46211   0.20656   0.00000  Uiso   1.00
H217   H     0.38283   0.34052   0.16984   0.00000  Uiso   1.00
H218   H     0.16441   0.35724   0.03165   0.00000  Uiso   1.00
H219   H     0.97395   0.57637   0.27983   0.00000  Uiso   1.00
H220   H     0.58113   0.31997   0.20238   0.00000  Uiso   1.00
H221   H     0.12054   0.35523   0.91097   0.00000  Uiso   1.00
O222   O     0.94360   0.75778   0.30485   0.00000  Uiso   1.00
O223   O     0.74019   0.42139   0.20323   0.00000  Uiso   1.00
O224   O     0.13590   0.46766   0.82092   0.00000  Uiso   1.00
N225   N     0.06412   0.76867   0.23722   0.00000  Uiso   1.00
N226   N     0.63179   0.52896   0.16483   0.00000  Uiso   1.00
N227   N     0.20120   0.56192   0.89238   0.00000  Uiso   1.00
N228   N     0.01246   0.62688   0.26025   0.00000  Uiso   1.00
N229   N     0.58013   0.38716   0.18785   0.00000  Uiso   1.00
N230   N     0.14954   0.42012   0.91541   0.00000  Uiso   1.00
C231   C     0.69647   0.36765   0.59611   0.00000  Uiso   1.00
C232   C     0.77509   0.36473   0.64062   0.00000  Uiso   1.00
C233   C     0.81240   0.28329   0.66523   0.00000  Uiso   1.00
C234   C     0.88397   0.29564   0.70511   0.00000  Uiso   1.00
C235   C     0.00098   0.27733   0.77201   0.00000  Uiso   1.00
C236   C     0.61863   0.43080   0.62068   0.00000  Uiso   1.00
C237   C     0.52441   0.40490   0.62851   0.00000  Uiso   1.00
C238   C     0.46427   0.47287   0.65160   0.00000  Uiso   1.00
C239   C     0.33837   0.55715   0.68749   0.00000  Uiso   1.00
C240   C     0.73732   0.42171   0.54560   0.00000  Uiso   1.00
C241   C     0.74286   0.38818   0.49029   0.00000  Uiso   1.00
C242   C     0.78262   0.44851   0.45016   0.00000  Uiso   1.00
C243   C     0.84100   0.51867   0.36948   0.00000  Uiso   1.00
C244   C     0.75722   0.53441   0.62319   0.00000  Uiso   1.00
C245   C     0.80808   0.45531   0.65533   0.00000  Uiso   1.00
C246   C     0.87961   0.46779   0.69519   0.00000  Uiso   1.00
C247   C     0.91703   0.38638   0.71984   0.00000  Uiso   1.00
C248   C     0.65162   0.52137   0.63539   0.00000  Uiso   1.00
C249   C     0.59161   0.58940   0.65847   0.00000  Uiso   1.00
C250   C     0.49732   0.56361   0.66633   0.00000  Uiso   1.00
C251   C     0.77031   0.51228   0.56031   0.00000  Uiso   1.00
C252   C     0.81007   0.57267   0.52025   0.00000  Uiso   1.00
C253   C     0.81567   0.53925   0.46490   0.00000  Uiso   1.00
H254   H     0.67078   0.29714   0.58466   0.00000  Uiso   1.00
H255   H     0.78685   0.21321   0.65384   0.00000  Uiso   1.00
H256   H     0.49889   0.33481   0.61712   0.00000  Uiso   1.00
H257   H     0.71732   0.31809   0.47892   0.00000  Uiso   1.00
H258   H     0.93005   0.16011   0.73703   0.00000  Uiso   1.00
H259   H     0.32288   0.41651   0.65958   0.00000  Uiso   1.00
H260   H     0.78347   0.38125   0.36818   0.00000  Uiso   1.00
H261   H     0.78290   0.60493   0.63465   0.00000  Uiso   1.00
H262   H     0.90512   0.53789   0.70656   0.00000  Uiso   1.00
H263   H     0.61717   0.65948   0.66984   0.00000  Uiso   1.00
H264   H     0.83559   0.64276   0.53165   0.00000  Uiso   1.00
H265   H     0.02605   0.42363   0.77983   0.00000  Uiso   1.00
H266   H     0.41887   0.68003   0.70238   0.00000  Uiso   1.00
H267   H     0.87946   0.64477   0.41097   0.00000  Uiso   1.00
O268   O     0.05640   0.24222   0.80485   0.00000  Uiso   1.00
O269   O     0.25981   0.57861   0.70323   0.00000  Uiso   1.00
O270   O     0.86410   0.53234   0.32092   0.00000  Uiso   1.00
N271   N     0.93588   0.23133   0.73722   0.00000  Uiso   1.00
N272   N     0.36821   0.47104   0.66483   0.00000  Uiso   1.00
N273   N     0.79880   0.43808   0.39238   0.00000  Uiso   1.00
N274   N     0.98754   0.37312   0.76025   0.00000  Uiso   1.00
N275   N     0.41987   0.61284   0.68785   0.00000  Uiso   1.00
N276   N     0.85046   0.57988   0.41541   0.00000  Uiso   1.00
C277   C     0.13235   0.19647   0.34611   0.00000  Uiso   1.00
C278   C     0.13527   0.27509   0.39062   0.00000  Uiso   1.00
C279   C     0.21671   0.31240   0.41523   0.00000  Uiso   1.00
C280   C     0.20436   0.38397   0.45511   0.00000  Uiso   1.00
C281   C     0.22267   0.50098   0.52201   0.00000  Uiso   1.00
C282   C     0.06920   0.11863   0.37068   0.00000  Uiso   1.00
C283   C     0.09510   0.02441   0.37851   0.00000  Uiso   1.00
C284   C     0.02713   0.96427   0.40160   0.00000  Uiso   1.00
C285   C     0.94285   0.83837   0.43749   0.00000  Uiso   1.00
C286   C     0.07829   0.23732   0.29560   0.00000  Uiso   1.00
C287   C     0.11182   0.24286   0.24029   0.00000  Uiso   1.00
C288   C     0.05149   0.28262   0.20016   0.00000  Uiso   1.00
C289   C     0.98133   0.34100   0.11948   0.00000  Uiso   1.00
C290   C     0.96559   0.25722   0.37319   0.00000  Uiso   1.00
C291   C     0.04469   0.30808   0.40533   0.00000  Uiso   1.00
C292   C     0.03221   0.37961   0.44519   0.00000  Uiso   1.00
C293   C     0.11362   0.41703   0.46984   0.00000  Uiso   1.00
C294   C     0.97863   0.15162   0.38539   0.00000  Uiso   1.00
C295   C     0.91060   0.09161   0.40847   0.00000  Uiso   1.00
C296   C     0.93639   0.99732   0.41633   0.00000  Uiso   1.00
C297   C     0.98772   0.27031   0.31031   0.00000  Uiso   1.00
C298   C     0.92733   0.31007   0.27025   0.00000  Uiso   1.00
C299   C     0.96075   0.31567   0.21490   0.00000  Uiso   1.00
H300   H     0.20286   0.17078   0.33466   0.00000  Uiso   1.00
H301   H     0.28679   0.28685   0.40384   0.00000  Uiso   1.00
H302   H     0.16519   0.99889   0.36712   0.00000  Uiso   1.00
H303   H     0.18191   0.21732   0.22892   0.00000  Uiso   1.00
H304   H     0.33989   0.43005   0.48703   0.00000  Uiso   1.00
H305   H     0.08349   0.82288   0.40958   0.00000  Uiso   1.00
H306   H     0.11875   0.28347   0.11818   0.00000  Uiso   1.00
H307   H     0.89507   0.28290   0.38465   0.00000  Uiso   1.00
H308   H     0.96211   0.40512   0.45656   0.00000  Uiso   1.00
H309   H     0.84052   0.11717   0.41984   0.00000  Uiso   1.00
H310   H     0.85724   0.33559   0.28165   0.00000  Uiso   1.00
H311   H     0.07637   0.52605   0.52983   0.00000  Uiso   1.00
H312   H     0.81997   0.91887   0.45238   0.00000  Uiso   1.00
H313   H     0.85523   0.37946   0.16097   0.00000  Uiso   1.00
O314   O     0.25778   0.55640   0.55485   0.00000  Uiso   1.00
O315   O     0.92139   0.75981   0.45323   0.00000  Uiso   1.00
O316   O     0.96766   0.36410   0.07092   0.00000  Uiso   1.00
N317   N     0.26867   0.43588   0.48722   0.00000  Uiso   1.00
N318   N     0.02896   0.86821   0.41483   0.00000  Uiso   1.00
N319   N     0.06192   0.29880   0.14238   0.00000  Uiso   1.00
N320   N     0.12688   0.48754   0.51025   0.00000  Uiso   1.00
N321   N     0.88716   0.91987   0.43785   0.00000  Uiso   1.00
N322   N     0.92012   0.35046   0.16541   0.00000  Uiso   1.00
C323   C     0.86765   0.80353   0.84611   0.00000  Uiso   1.00
C324   C     0.86473   0.72491   0.89062   0.00000  Uiso   1.00
C325   C     0.78329   0.68760   0.91523   0.00000  Uiso   1.00
C326   C     0.79564   0.61603   0.95511   0.00000  Uiso   1.00
C327   C     0.77733   0.49902   0.02201   0.00000  Uiso   1.00
C328   C     0.93080   0.88137   0.87068   0.00000  Uiso   1.00
C329   C     0.90490   0.97559   0.87851   0.00000  Uiso   1.00
C330   C     0.97287   0.03573   0.90160   0.00000  Uiso   1.00
C331   C     0.05715   0.16163   0.93749   0.00000  Uiso   1.00
C332   C     0.92171   0.76268   0.79560   0.00000  Uiso   1.00
C333   C     0.88818   0.75714   0.74029   0.00000  Uiso   1.00
C334   C     0.94851   0.71738   0.70016   0.00000  Uiso   1.00
C335   C     0.01867   0.65900   0.61948   0.00000  Uiso   1.00
C336   C     0.03441   0.74278   0.87319   0.00000  Uiso   1.00
C337   C     0.95531   0.69192   0.90533   0.00000  Uiso   1.00
C338   C     0.96779   0.62039   0.94519   0.00000  Uiso   1.00
C339   C     0.88638   0.58297   0.96984   0.00000  Uiso   1.00
C340   C     0.02137   0.84838   0.88539   0.00000  Uiso   1.00
C341   C     0.08940   0.90839   0.90847   0.00000  Uiso   1.00
C342   C     0.06361   0.00268   0.91633   0.00000  Uiso   1.00
C343   C     0.01228   0.72969   0.81031   0.00000  Uiso   1.00
C344   C     0.07267   0.68993   0.77025   0.00000  Uiso   1.00
C345   C     0.03925   0.68433   0.71490   0.00000  Uiso   1.00
H346   H     0.79714   0.82922   0.83466   0.00000  Uiso   1.00
H347   H     0.71321   0.71315   0.90384   0.00000  Uiso   1.00
H348   H     0.83481   0.00111   0.86712   0.00000  Uiso   1.00
H349   H     0.81809   0.78268   0.72892   0.00000  Uiso   1.00
H350   H     0.66011   0.56995   0.98703   0.00000  Uiso   1.00
H351   H     0.91651   0.17712   0.90958   0.00000  Uiso   1.00
H352   H     0.88125   0.71653   0.61818   0.00000  Uiso   1.00
H353   H     0.10493   0.71710   0.88465   0.00000  Uiso   1.00
H354   H     0.03789   0.59488   0.95656   0.00000  Uiso   1.00
H355   H     0.15948   0.88283   0.91984   0.00000  Uiso   1.00
H356   H     0.14276   0.66441   0.78165   0.00000  Uiso   1.00
H357   H     0.92363   0.47395   0.02983   0.00000  Uiso   1.00
H358   H     0.18003   0.08113   0.95238   0.00000  Uiso   1.00
H359   H     0.14477   0.62054   0.66097   0.00000  Uiso   1.00
O360   O     0.74222   0.44360   0.05485   0.00000  Uiso   1.00
O361   O     0.07861   0.24019   0.95323   0.00000  Uiso   1.00
O362   O     0.03234   0.63590   0.57092   0.00000  Uiso   1.00
N363   N     0.73133   0.56412   0.98722   0.00000  Uiso   1.00
N364   N     0.97104   0.13179   0.91483   0.00000  Uiso   1.00
N365   N     0.93808   0.70120   0.64238   0.00000  Uiso   1.00
N366   N     0.87312   0.51246   0.01025   0.00000  Uiso   1.00
N367   N     0.11284   0.08013   0.93785   0.00000  Uiso   1.00
N368   N     0.07988   0.64954   0.66541   0.00000  Uiso   1.00
