data_job_03010
_audit_creation_date              2018-12-19
_audit_creation_method            'Materials Studio'
_symmetry_space_group_name_H-M    'P1'
_symmetry_Int_Tables_number       1
_symmetry_cell_setting            triclinic
loop_
_symmetry_equiv_pos_as_xyz
  x,y,z
_cell_length_a                    11.9020
_cell_length_b                    14.3863
_cell_length_c                    18.9868
_cell_angle_alpha                 90.0000
_cell_angle_beta                  118.5706
_cell_angle_gamma                 90.0000
loop_
_atom_site_label
_atom_site_type_symbol
_atom_site_fract_x
_atom_site_fract_y
_atom_site_fract_z
_atom_site_U_iso_or_equiv
_atom_site_adp_type
_atom_site_occupancy
C1     C     0.93810   0.20355   0.85848   0.00000  Uiso   1.00
C2     C     0.86942   0.28791   0.80732   0.00000  Uiso   1.00
C3     C     0.84328   0.30279   0.72872   0.00000  Uiso   1.00
C4     C     0.77955   0.38433   0.69232   0.00000  Uiso   1.00
C5     C     0.67847   0.50557   0.60668   0.00000  Uiso   1.00
C6     C     0.05179   0.24165   0.93380   0.00000  Uiso   1.00
C7     C     0.17898   0.21762   0.96154   0.00000  Uiso   1.00
C8     C     0.26877   0.26021   0.03161   0.00000  Uiso   1.00
C9     C     0.45081   0.30957   0.14236   0.00000  Uiso   1.00
C10    C     0.84740   0.16218   0.88583   0.00000  Uiso   1.00
C11    C     0.80276   0.07134   0.87326   0.00000  Uiso   1.00
C12    C     0.72049   0.04702   0.90297   0.00000  Uiso   1.00
C13    C     0.58518   0.97300   0.93924   0.00000  Uiso   1.00
C14    C     0.87139   0.32189   0.93362   0.00000  Uiso   1.00
C15    C     0.83319   0.35219   0.84814   0.00000  Uiso   1.00
C16    C     0.76947   0.43373   0.81185   0.00000  Uiso   1.00
C17    C     0.74325   0.44873   0.73320   0.00000  Uiso   1.00
C18    C     0.01556   0.30592   0.97461   0.00000  Uiso   1.00
C19    C     0.10517   0.34855   0.04466   0.00000  Uiso   1.00
C20    C     0.23247   0.32460   0.07250   0.00000  Uiso   1.00
C21    C     0.81116   0.22646   0.92664   0.00000  Uiso   1.00
C22    C     0.72895   0.20227   0.95638   0.00000  Uiso   1.00
C23    C     0.68419   0.11141   0.94385   0.00000  Uiso   1.00
H24    H     0.96632   0.15350   0.82672   0.00000  Uiso   1.00
H25    H     0.87135   0.25303   0.69716   0.00000  Uiso   1.00
H26    H     0.20699   0.16787   0.92994   0.00000  Uiso   1.00
H27    H     0.83082   0.02161   0.84167   0.00000  Uiso   1.00
H28    H     0.75012   0.39175   0.57153   0.00000  Uiso   1.00
H29    H     0.45784   0.21215   0.06238   0.00000  Uiso   1.00
H30    H     0.66462   0.90373   0.87625   0.00000  Uiso   1.00
H31    H     0.84318   0.37193   0.96540   0.00000  Uiso   1.00
H32    H     0.74144   0.48346   0.84344   0.00000  Uiso   1.00
H33    H     0.07710   0.39829   0.07623   0.00000  Uiso   1.00
H34    H     0.70093   0.25203   0.98796   0.00000  Uiso   1.00
H35    H     0.64469   0.57877   0.69026   0.00000  Uiso   1.00
H36    H     0.35242   0.39917   0.18112   0.00000  Uiso   1.00
H37    H     0.55919   0.09076   0.99498   0.00000  Uiso   1.00
O38    O     0.63275   0.55470   0.54818   0.00000  Uiso   1.00
O39    O     0.56124   0.31905   0.19217   0.00000  Uiso   1.00
O40    O     0.52055   0.91442   0.94796   0.00000  Uiso   1.00
N41    N     0.73925   0.42045   0.61620   0.00000  Uiso   1.00
N42    N     0.40093   0.25255   0.07512   0.00000  Uiso   1.00
N43    N     0.65935   0.96420   0.90112   0.00000  Uiso   1.00
N44    N     0.68252   0.52108   0.68009   0.00000  Uiso   1.00
N45    N     0.34419   0.35318   0.13901   0.00000  Uiso   1.00
N46    N     0.60262   0.06483   0.96500   0.00000  Uiso   1.00
C47    C     0.06190   0.20355   0.64152   0.00000  Uiso   1.00
C48    C     0.13058   0.28791   0.69268   0.00000  Uiso   1.00
C49    C     0.15672   0.30279   0.77128   0.00000  Uiso   1.00
C50    C     0.22045   0.38433   0.80768   0.00000  Uiso   1.00
C51    C     0.32153   0.50557   0.89332   0.00000  Uiso   1.00
C52    C     0.94821   0.24165   0.56620   0.00000  Uiso   1.00
C53    C     0.82102   0.21762   0.53846   0.00000  Uiso   1.00
C54    C     0.73123   0.26021   0.46839   0.00000  Uiso   1.00
C55    C     0.54919   0.30957   0.35764   0.00000  Uiso   1.00
C56    C     0.15260   0.16218   0.61417   0.00000  Uiso   1.00
C57    C     0.19724   0.07134   0.62674   0.00000  Uiso   1.00
C58    C     0.27951   0.04702   0.59703   0.00000  Uiso   1.00
C59    C     0.41482   0.97300   0.56076   0.00000  Uiso   1.00
C60    C     0.12861   0.32189   0.56638   0.00000  Uiso   1.00
C61    C     0.16681   0.35219   0.65186   0.00000  Uiso   1.00
C62    C     0.23053   0.43373   0.68815   0.00000  Uiso   1.00
C63    C     0.25675   0.44873   0.76680   0.00000  Uiso   1.00
C64    C     0.98444   0.30592   0.52539   0.00000  Uiso   1.00
C65    C     0.89483   0.34855   0.45534   0.00000  Uiso   1.00
C66    C     0.76753   0.32460   0.42750   0.00000  Uiso   1.00
C67    C     0.18884   0.22646   0.57336   0.00000  Uiso   1.00
C68    C     0.27105   0.20227   0.54362   0.00000  Uiso   1.00
C69    C     0.31581   0.11141   0.55615   0.00000  Uiso   1.00
H70    H     0.03368   0.15350   0.67328   0.00000  Uiso   1.00
H71    H     0.12865   0.25303   0.80284   0.00000  Uiso   1.00
H72    H     0.79301   0.16787   0.57006   0.00000  Uiso   1.00
H73    H     0.16918   0.02161   0.65833   0.00000  Uiso   1.00
H74    H     0.24988   0.39175   0.92847   0.00000  Uiso   1.00
H75    H     0.54216   0.21215   0.43762   0.00000  Uiso   1.00
H76    H     0.33538   0.90373   0.62375   0.00000  Uiso   1.00
H77    H     0.15682   0.37193   0.53460   0.00000  Uiso   1.00
H78    H     0.25856   0.48346   0.65656   0.00000  Uiso   1.00
H79    H     0.92290   0.39829   0.42377   0.00000  Uiso   1.00
H80    H     0.29907   0.25203   0.51204   0.00000  Uiso   1.00
H81    H     0.35531   0.57877   0.80974   0.00000  Uiso   1.00
H82    H     0.64758   0.39917   0.31888   0.00000  Uiso   1.00
H83    H     0.44081   0.09076   0.50502   0.00000  Uiso   1.00
O84    O     0.36725   0.55470   0.95182   0.00000  Uiso   1.00
O85    O     0.43876   0.31905   0.30783   0.00000  Uiso   1.00
O86    O     0.47945   0.91442   0.55204   0.00000  Uiso   1.00
N87    N     0.26075   0.42045   0.88380   0.00000  Uiso   1.00
N88    N     0.59907   0.25255   0.42488   0.00000  Uiso   1.00
N89    N     0.34065   0.96420   0.59888   0.00000  Uiso   1.00
N90    N     0.31748   0.52108   0.81991   0.00000  Uiso   1.00
N91    N     0.65581   0.35318   0.36099   0.00000  Uiso   1.00
N92    N     0.39738   0.06483   0.53500   0.00000  Uiso   1.00
C93    C     0.06190   0.79645   0.14152   0.00000  Uiso   1.00
C94    C     0.13058   0.71209   0.19268   0.00000  Uiso   1.00
C95    C     0.15672   0.69721   0.27128   0.00000  Uiso   1.00
C96    C     0.22045   0.61567   0.30768   0.00000  Uiso   1.00
C97    C     0.32153   0.49443   0.39332   0.00000  Uiso   1.00
C98    C     0.94821   0.75835   0.06620   0.00000  Uiso   1.00
C99    C     0.82102   0.78238   0.03846   0.00000  Uiso   1.00
C100   C     0.73123   0.73979   0.96839   0.00000  Uiso   1.00
C101   C     0.54919   0.69043   0.85764   0.00000  Uiso   1.00
C102   C     0.15260   0.83782   0.11417   0.00000  Uiso   1.00
C103   C     0.19724   0.92866   0.12674   0.00000  Uiso   1.00
C104   C     0.27951   0.95298   0.09703   0.00000  Uiso   1.00
C105   C     0.41482   0.02700   0.06076   0.00000  Uiso   1.00
C106   C     0.12861   0.67811   0.06638   0.00000  Uiso   1.00
C107   C     0.16681   0.64781   0.15186   0.00000  Uiso   1.00
C108   C     0.23053   0.56627   0.18815   0.00000  Uiso   1.00
C109   C     0.25675   0.55127   0.26680   0.00000  Uiso   1.00
C110   C     0.98444   0.69408   0.02539   0.00000  Uiso   1.00
C111   C     0.89483   0.65145   0.95534   0.00000  Uiso   1.00
C112   C     0.76753   0.67540   0.92750   0.00000  Uiso   1.00
C113   C     0.18884   0.77354   0.07336   0.00000  Uiso   1.00
C114   C     0.27105   0.79773   0.04362   0.00000  Uiso   1.00
C115   C     0.31581   0.88859   0.05615   0.00000  Uiso   1.00
H116   H     0.03368   0.84650   0.17328   0.00000  Uiso   1.00
H117   H     0.12865   0.74697   0.30284   0.00000  Uiso   1.00
H118   H     0.79301   0.83213   0.07006   0.00000  Uiso   1.00
H119   H     0.16918   0.97839   0.15833   0.00000  Uiso   1.00
H120   H     0.24988   0.60825   0.42847   0.00000  Uiso   1.00
H121   H     0.54216   0.78785   0.93762   0.00000  Uiso   1.00
H122   H     0.33538   0.09627   0.12375   0.00000  Uiso   1.00
H123   H     0.15682   0.62807   0.03460   0.00000  Uiso   1.00
H124   H     0.25856   0.51654   0.15656   0.00000  Uiso   1.00
H125   H     0.92290   0.60171   0.92377   0.00000  Uiso   1.00
H126   H     0.29907   0.74797   0.01204   0.00000  Uiso   1.00
H127   H     0.35531   0.42123   0.30974   0.00000  Uiso   1.00
H128   H     0.64758   0.60083   0.81888   0.00000  Uiso   1.00
H129   H     0.44081   0.90924   0.00502   0.00000  Uiso   1.00
O130   O     0.36725   0.44530   0.45182   0.00000  Uiso   1.00
O131   O     0.43876   0.68095   0.80783   0.00000  Uiso   1.00
O132   O     0.47945   0.08558   0.05204   0.00000  Uiso   1.00
N133   N     0.26075   0.57955   0.38380   0.00000  Uiso   1.00
N134   N     0.59907   0.74745   0.92488   0.00000  Uiso   1.00
N135   N     0.34065   0.03580   0.09888   0.00000  Uiso   1.00
N136   N     0.31748   0.47892   0.31991   0.00000  Uiso   1.00
N137   N     0.65581   0.64682   0.86099   0.00000  Uiso   1.00
N138   N     0.39738   0.93517   0.03500   0.00000  Uiso   1.00
C139   C     0.93810   0.79645   0.35848   0.00000  Uiso   1.00
C140   C     0.86942   0.71209   0.30732   0.00000  Uiso   1.00
C141   C     0.84328   0.69721   0.22872   0.00000  Uiso   1.00
C142   C     0.77955   0.61567   0.19232   0.00000  Uiso   1.00
C143   C     0.67847   0.49443   0.10668   0.00000  Uiso   1.00
C144   C     0.05179   0.75835   0.43380   0.00000  Uiso   1.00
C145   C     0.17898   0.78238   0.46154   0.00000  Uiso   1.00
C146   C     0.26877   0.73979   0.53161   0.00000  Uiso   1.00
C147   C     0.45081   0.69043   0.64236   0.00000  Uiso   1.00
C148   C     0.84740   0.83782   0.38583   0.00000  Uiso   1.00
C149   C     0.80276   0.92866   0.37326   0.00000  Uiso   1.00
C150   C     0.72049   0.95298   0.40297   0.00000  Uiso   1.00
C151   C     0.58518   0.02700   0.43924   0.00000  Uiso   1.00
C152   C     0.87139   0.67811   0.43362   0.00000  Uiso   1.00
C153   C     0.83319   0.64781   0.34814   0.00000  Uiso   1.00
C154   C     0.76947   0.56627   0.31185   0.00000  Uiso   1.00
C155   C     0.74325   0.55127   0.23320   0.00000  Uiso   1.00
C156   C     0.01556   0.69408   0.47461   0.00000  Uiso   1.00
C157   C     0.10517   0.65145   0.54466   0.00000  Uiso   1.00
C158   C     0.23247   0.67540   0.57250   0.00000  Uiso   1.00
C159   C     0.81116   0.77354   0.42664   0.00000  Uiso   1.00
C160   C     0.72895   0.79773   0.45638   0.00000  Uiso   1.00
C161   C     0.68419   0.88859   0.44385   0.00000  Uiso   1.00
H162   H     0.96632   0.84650   0.32672   0.00000  Uiso   1.00
H163   H     0.87135   0.74697   0.19716   0.00000  Uiso   1.00
H164   H     0.20699   0.83213   0.42994   0.00000  Uiso   1.00
H165   H     0.83082   0.97839   0.34167   0.00000  Uiso   1.00
H166   H     0.75012   0.60825   0.07153   0.00000  Uiso   1.00
H167   H     0.45784   0.78785   0.56238   0.00000  Uiso   1.00
H168   H     0.66462   0.09627   0.37625   0.00000  Uiso   1.00
H169   H     0.84318   0.62807   0.46540   0.00000  Uiso   1.00
H170   H     0.74144   0.51654   0.34344   0.00000  Uiso   1.00
H171   H     0.07710   0.60171   0.57623   0.00000  Uiso   1.00
H172   H     0.70093   0.74797   0.48796   0.00000  Uiso   1.00
H173   H     0.64469   0.42123   0.19026   0.00000  Uiso   1.00
H174   H     0.35242   0.60083   0.68112   0.00000  Uiso   1.00
H175   H     0.55919   0.90924   0.49498   0.00000  Uiso   1.00
O176   O     0.63275   0.44530   0.04818   0.00000  Uiso   1.00
O177   O     0.56124   0.68095   0.69217   0.00000  Uiso   1.00
O178   O     0.52055   0.08558   0.44796   0.00000  Uiso   1.00
N179   N     0.73925   0.57955   0.11620   0.00000  Uiso   1.00
N180   N     0.40093   0.74745   0.57512   0.00000  Uiso   1.00
N181   N     0.65935   0.03580   0.40112   0.00000  Uiso   1.00
N182   N     0.68252   0.47892   0.18009   0.00000  Uiso   1.00
N183   N     0.34419   0.64682   0.63901   0.00000  Uiso   1.00
N184   N     0.60262   0.93517   0.46500   0.00000  Uiso   1.00
