data_job_06626
_audit_creation_date              2018-12-19
_audit_creation_method            'Materials Studio'
_symmetry_space_group_name_H-M    'P1'
_symmetry_Int_Tables_number       1
_symmetry_cell_setting            triclinic
loop_
_symmetry_equiv_pos_as_xyz
  x,y,z
_cell_length_a                    20.2723
_cell_length_b                    23.6363
_cell_length_c                    19.7381
_cell_angle_alpha                 96.8251
_cell_angle_beta                  97.3063
_cell_angle_gamma                 109.9700
loop_
_atom_site_label
_atom_site_type_symbol
_atom_site_fract_x
_atom_site_fract_y
_atom_site_fract_z
_atom_site_U_iso_or_equiv
_atom_site_adp_type
_atom_site_occupancy
C1     C     0.34407   0.32738   0.86934   0.00000  Uiso   1.00
C2     C     0.28894   0.30369   0.80250   0.00000  Uiso   1.00
C3     C     0.21544   0.28253   0.79816   0.00000  Uiso   1.00
C4     C     0.17412   0.26280   0.73216   0.00000  Uiso   1.00
C5     C     0.08378   0.22577   0.63741   0.00000  Uiso   1.00
C6     C     0.39060   0.28857   0.86690   0.00000  Uiso   1.00
C7     C     0.40257   0.25471   0.91673   0.00000  Uiso   1.00
C8     C     0.44683   0.22226   0.90495   0.00000  Uiso   1.00
C9     C     0.51436   0.16179   0.91023   0.00000  Uiso   1.00
C10    C     0.39195   0.39166   0.86358   0.00000  Uiso   1.00
C11    C     0.40509   0.44447   0.91063   0.00000  Uiso   1.00
C12    C     0.45050   0.49882   0.89605   0.00000  Uiso   1.00
C13    C     0.52013   0.59842   0.89617   0.00000  Uiso   1.00
C14    C     0.40138   0.32998   0.75983   0.00000  Uiso   1.00
C15    C     0.32007   0.30510   0.74301   0.00000  Uiso   1.00
C16    C     0.27885   0.28541   0.67700   0.00000  Uiso   1.00
C17    C     0.20530   0.26422   0.67257   0.00000  Uiso   1.00
C18    C     0.42172   0.28998   0.80742   0.00000  Uiso   1.00
C19    C     0.46598   0.25759   0.79557   0.00000  Uiso   1.00
C20    C     0.47802   0.22368   0.84536   0.00000  Uiso   1.00
C21    C     0.42308   0.39308   0.80410   0.00000  Uiso   1.00
C22    C     0.46849   0.44735   0.78946   0.00000  Uiso   1.00
C23    C     0.48168   0.50024   0.83646   0.00000  Uiso   1.00
H24    H     0.31984   0.32628   0.91565   0.00000  Uiso   1.00
H25    H     0.19137   0.28144   0.84421   0.00000  Uiso   1.00
H26    H     0.37848   0.25362   0.96276   0.00000  Uiso   1.00
H27    H     0.38099   0.44336   0.95665   0.00000  Uiso   1.00
H28    H     0.06267   0.23232   0.73877   0.00000  Uiso   1.00
H29    H     0.45722   0.17370   0.98876   0.00000  Uiso   1.00
H30    H     0.46251   0.57380   0.97587   0.00000  Uiso   1.00
H31    H     0.42562   0.33108   0.71352   0.00000  Uiso   1.00
H32    H     0.30295   0.28651   0.63098   0.00000  Uiso   1.00
H33    H     0.49006   0.25869   0.74953   0.00000  Uiso   1.00
H34    H     0.49257   0.44843   0.74342   0.00000  Uiso   1.00
H35    H     0.15323   0.23644   0.56570   0.00000  Uiso   1.00
H36    H     0.54779   0.17781   0.81569   0.00000  Uiso   1.00
H37    H     0.55307   0.57791   0.80280   0.00000  Uiso   1.00
O38    O     0.02535   0.20495   0.60159   0.00000  Uiso   1.00
O39    O     0.54299   0.12804   0.92957   0.00000  Uiso   1.00
O40    O     0.54992   0.65297   0.91266   0.00000  Uiso   1.00
N41    N     0.10082   0.23942   0.70936   0.00000  Uiso   1.00
N42    N     0.46969   0.18460   0.94308   0.00000  Uiso   1.00
N43    N     0.47465   0.55866   0.93104   0.00000  Uiso   1.00
N44    N     0.14955   0.24164   0.61624   0.00000  Uiso   1.00
N45    N     0.51842   0.18681   0.84996   0.00000  Uiso   1.00
N46    N     0.52338   0.56087   0.83792   0.00000  Uiso   1.00
C47    C     0.71505   0.36140   0.32051   0.00000  Uiso   1.00
C48    C     0.63480   0.32580   0.30500   0.00000  Uiso   1.00
C49    C     0.60150   0.26499   0.27352   0.00000  Uiso   1.00
C50    C     0.52754   0.24082   0.26391   0.00000  Uiso   1.00
C51    C     0.40889   0.18016   0.23658   0.00000  Uiso   1.00
C52    C     0.72696   0.41703   0.28495   0.00000  Uiso   1.00
C53    C     0.77115   0.43292   0.23662   0.00000  Uiso   1.00
C54    C     0.77477   0.48554   0.21014   0.00000  Uiso   1.00
C55    C     0.79923   0.56655   0.15172   0.00000  Uiso   1.00
C56    C     0.73396   0.38605   0.39823   0.00000  Uiso   1.00
C57    C     0.78405   0.37592   0.44515   0.00000  Uiso   1.00
C58    C     0.79356   0.40247   0.51404   0.00000  Uiso   1.00
C59    C     0.82889   0.43538   0.63151   0.00000  Uiso   1.00
C60    C     0.64291   0.42660   0.35941   0.00000  Uiso   1.00
C61    C     0.59562   0.36122   0.32612   0.00000  Uiso   1.00
C62    C     0.52168   0.33713   0.31656   0.00000  Uiso   1.00
C63    C     0.48828   0.27629   0.28507   0.00000  Uiso   1.00
C64    C     0.68777   0.45244   0.30607   0.00000  Uiso   1.00
C65    C     0.69133   0.50506   0.27966   0.00000  Uiso   1.00
C66    C     0.73551   0.52102   0.23130   0.00000  Uiso   1.00
C67    C     0.69477   0.42147   0.41936   0.00000  Uiso   1.00
C68    C     0.70422   0.44805   0.48819   0.00000  Uiso   1.00
C69    C     0.75431   0.43795   0.53521   0.00000  Uiso   1.00
H70    H     0.74557   0.33383   0.30406   0.00000  Uiso   1.00
H71    H     0.63185   0.23760   0.25717   0.00000  Uiso   1.00
H72    H     0.80148   0.40551   0.22029   0.00000  Uiso   1.00
H73    H     0.81436   0.34851   0.42878   0.00000  Uiso   1.00
H74    H     0.48849   0.14654   0.21449   0.00000  Uiso   1.00
H75    H     0.84618   0.50059   0.13673   0.00000  Uiso   1.00
H76    H     0.87335   0.38039   0.57639   0.00000  Uiso   1.00
H77    H     0.61240   0.45417   0.37585   0.00000  Uiso   1.00
H78    H     0.49137   0.36454   0.33291   0.00000  Uiso   1.00
H79    H     0.66100   0.53245   0.29602   0.00000  Uiso   1.00
H80    H     0.67388   0.47545   0.50452   0.00000  Uiso   1.00
H81    H     0.37447   0.24957   0.27596   0.00000  Uiso   1.00
H82    H     0.73216   0.60363   0.19820   0.00000  Uiso   1.00
H83    H     0.75933   0.48343   0.63786   0.00000  Uiso   1.00
O84    O     0.35427   0.13693   0.21566   0.00000  Uiso   1.00
O85    O     0.82355   0.60144   0.11365   0.00000  Uiso   1.00
O86    O     0.85920   0.44374   0.69047   0.00000  Uiso   1.00
N87    N     0.47827   0.18308   0.23486   0.00000  Uiso   1.00
N88    N     0.81267   0.51410   0.16215   0.00000  Uiso   1.00
N89    N     0.83809   0.40174   0.57319   0.00000  Uiso   1.00
N90    N     0.41691   0.23852   0.26794   0.00000  Uiso   1.00
N91    N     0.75132   0.56954   0.19523   0.00000  Uiso   1.00
N92    N     0.77674   0.45718   0.60627   0.00000  Uiso   1.00
C93    C     0.35759   0.88291   0.36479   0.00000  Uiso   1.00
C94    C     0.32844   0.81870   0.32184   0.00000  Uiso   1.00
C95    C     0.33802   0.80323   0.25471   0.00000  Uiso   1.00
C96    C     0.30707   0.74196   0.22436   0.00000  Uiso   1.00
C97    C     0.26772   0.64898   0.15225   0.00000  Uiso   1.00
C98    C     0.29322   0.89510   0.38588   0.00000  Uiso   1.00
C99    C     0.27320   0.94386   0.37260   0.00000  Uiso   1.00
C100   C     0.21261   0.94689   0.39617   0.00000  Uiso   1.00
C101   C     0.11862   0.97254   0.42353   0.00000  Uiso   1.00
C102   C     0.40178   0.87923   0.43151   0.00000  Uiso   1.00
C103   C     0.47302   0.91465   0.45662   0.00000  Uiso   1.00
C104   C     0.50383   0.90433   0.51863   0.00000  Uiso   1.00
C105   C     0.57838   0.90534   0.61684   0.00000  Uiso   1.00
C106   C     0.28561   0.80161   0.43027   0.00000  Uiso   1.00
C107   C     0.28934   0.77454   0.35740   0.00000  Uiso   1.00
C108   C     0.25837   0.71327   0.32715   0.00000  Uiso   1.00
C109   C     0.26790   0.69771   0.25999   0.00000  Uiso   1.00
C110   C     0.25412   0.85094   0.42144   0.00000  Uiso   1.00
C111   C     0.19355   0.85390   0.44504   0.00000  Uiso   1.00
C112   C     0.17344   0.90265   0.43180   0.00000  Uiso   1.00
C113   C     0.36268   0.83506   0.46708   0.00000  Uiso   1.00
C114   C     0.39338   0.82469   0.52906   0.00000  Uiso   1.00
C115   C     0.46466   0.86009   0.55426   0.00000  Uiso   1.00
H116   H     0.38803   0.91730   0.33710   0.00000  Uiso   1.00
H117   H     0.36827   0.83742   0.22720   0.00000  Uiso   1.00
H118   H     0.30347   0.97803   0.34508   0.00000  Uiso   1.00
H119   H     0.50326   0.94882   0.42908   0.00000  Uiso   1.00
H120   H     0.32910   0.72939   0.12103   0.00000  Uiso   1.00
H121   H     0.19248   0.02588   0.36961   0.00000  Uiso   1.00
H122   H     0.61378   0.96430   0.54675   0.00000  Uiso   1.00
H123   H     0.25516   0.76723   0.45796   0.00000  Uiso   1.00
H124   H     0.22811   0.67911   0.35469   0.00000  Uiso   1.00
H125   H     0.16331   0.81972   0.47257   0.00000  Uiso   1.00
H126   H     0.36310   0.79051   0.55657   0.00000  Uiso   1.00
H127   H     0.21534   0.60090   0.22450   0.00000  Uiso   1.00
H128   H     0.07872   0.89740   0.47309   0.00000  Uiso   1.00
H129   H     0.50002   0.83581   0.65022   0.00000  Uiso   1.00
O130   O     0.25681   0.60989   0.10264   0.00000  Uiso   1.00
O131   O     0.07757   0.99889   0.42878   0.00000  Uiso   1.00
O132   O     0.63031   0.91808   0.66118   0.00000  Uiso   1.00
N133   N     0.30605   0.71124   0.15956   0.00000  Uiso   1.00
N134   N     0.17831   0.98844   0.39196   0.00000  Uiso   1.00
N135   N     0.57219   0.93087   0.55758   0.00000  Uiso   1.00
N136   N     0.24484   0.64210   0.21524   0.00000  Uiso   1.00
N137   N     0.11710   0.91930   0.44764   0.00000  Uiso   1.00
N138   N     0.51098   0.86173   0.61326   0.00000  Uiso   1.00
C139   C     0.83920   0.20586   0.89097   0.00000  Uiso   1.00
C140   C     0.77738   0.14545   0.86334   0.00000  Uiso   1.00
C141   C     0.70754   0.13218   0.87343   0.00000  Uiso   1.00
C142   C     0.65884   0.07430   0.84391   0.00000  Uiso   1.00
C143   C     0.55973   0.98705   0.80680   0.00000  Uiso   1.00
C144   C     0.86939   0.22783   0.82787   0.00000  Uiso   1.00
C145   C     0.87691   0.28383   0.80816   0.00000  Uiso   1.00
C146   C     0.90567   0.29529   0.74879   0.00000  Uiso   1.00
C147   C     0.94944   0.33597   0.65665   0.00000  Uiso   1.00
C148   C     0.89668   0.19002   0.93346   0.00000  Uiso   1.00
C149   C     0.92717   0.21423   0.00251   0.00000  Uiso   1.00
C150   C     0.97892   0.19387   0.03203   0.00000  Uiso   1.00
C151   C     0.06506   0.17584   0.10382   0.00000  Uiso   1.00
C152   C     0.87691   0.12666   0.82060   0.00000  Uiso   1.00
C153   C     0.79787   0.10243   0.82511   0.00000  Uiso   1.00
C154   C     0.74926   0.04455   0.79558   0.00000  Uiso   1.00
C155   C     0.67936   0.03120   0.80562   0.00000  Uiso   1.00
C156   C     0.88987   0.18482   0.78965   0.00000  Uiso   1.00
C157   C     0.91863   0.19620   0.73030   0.00000  Uiso   1.00
C158   C     0.92619   0.25220   0.71050   0.00000  Uiso   1.00
C159   C     0.91716   0.14700   0.89524   0.00000  Uiso   1.00
C160   C     0.96888   0.12660   0.92466   0.00000  Uiso   1.00
C161   C     0.99944   0.15078   0.99374   0.00000  Uiso   1.00
H162   H     0.82326   0.23935   0.92072   0.00000  Uiso   1.00
H163   H     0.69171   0.16549   0.90301   0.00000  Uiso   1.00
H164   H     0.86106   0.31711   0.83775   0.00000  Uiso   1.00
H165   H     0.91130   0.24752   0.03207   0.00000  Uiso   1.00
H166   H     0.55489   0.06463   0.86649   0.00000  Uiso   1.00
H167   H     0.91200   0.38435   0.72891   0.00000  Uiso   1.00
H168   H     0.01795   0.23761   0.13867   0.00000  Uiso   1.00
H169   H     0.89286   0.09317   0.79084   0.00000  Uiso   1.00
H170   H     0.76513   0.01127   0.76600   0.00000  Uiso   1.00
H171   H     0.93448   0.16290   0.70074   0.00000  Uiso   1.00
H172   H     0.98472   0.09331   0.89506   0.00000  Uiso   1.00
H173   H     0.61448   0.93946   0.75529   0.00000  Uiso   1.00
H174   H     0.97159   0.25919   0.61771   0.00000  Uiso   1.00
H175   H     0.07753   0.11244   0.02747   0.00000  Uiso   1.00
O176   O     0.49940   0.95082   0.79688   0.00000  Uiso   1.00
O177   O     0.96792   0.37029   0.61638   0.00000  Uiso   1.00
O178   O     0.10692   0.17776   0.15398   0.00000  Uiso   1.00
N179   N     0.58645   0.04641   0.84374   0.00000  Uiso   1.00
N180   N     0.92031   0.34532   0.71510   0.00000  Uiso   1.00
N181   N     0.01938   0.20814   0.09819   0.00000  Uiso   1.00
N182   N     0.61852   0.97905   0.78390   0.00000  Uiso   1.00
N183   N     0.95237   0.27797   0.65527   0.00000  Uiso   1.00
N184   N     0.05144   0.14079   0.03836   0.00000  Uiso   1.00
C185   C     0.36400   0.84924   0.85790   0.00000  Uiso   1.00
C186   C     0.29437   0.82920   0.80603   0.00000  Uiso   1.00
C187   C     0.28834   0.82610   0.73474   0.00000  Uiso   1.00
C188   C     0.21988   0.80664   0.69627   0.00000  Uiso   1.00
C189   C     0.12092   0.77788   0.61090   0.00000  Uiso   1.00
C190   C     0.35805   0.79660   0.89748   0.00000  Uiso   1.00
C191   C     0.40558   0.76611   0.90309   0.00000  Uiso   1.00
C192   C     0.39072   0.71921   0.94160   0.00000  Uiso   1.00
C193   C     0.39066   0.63989   0.99825   0.00000  Uiso   1.00
C194   C     0.36359   0.90201   0.91023   0.00000  Uiso   1.00
C195   C     0.41579   0.96013   0.92657   0.00000  Uiso   1.00
C196   C     0.40561   0.00197   0.97583   0.00000  Uiso   1.00
C197   C     0.41415   0.08630   0.05228   0.00000  Uiso   1.00
C198   C     0.25312   0.82018   0.91633   0.00000  Uiso   1.00
C199   C     0.23414   0.81341   0.83777   0.00000  Uiso   1.00
C200   C     0.16567   0.79395   0.79939   0.00000  Uiso   1.00
C201   C     0.15954   0.79083   0.72806   0.00000  Uiso   1.00
C202   C     0.29783   0.78082   0.92922   0.00000  Uiso   1.00
C203   C     0.28290   0.73396   0.96774   0.00000  Uiso   1.00
C204   C     0.33039   0.70340   0.97340   0.00000  Uiso   1.00
C205   C     0.30337   0.88622   0.94197   0.00000  Uiso   1.00
C206   C     0.29311   0.92798   0.99122   0.00000  Uiso   1.00
C207   C     0.34527   0.98616   0.00763   0.00000  Uiso   1.00
H208   H     0.41089   0.86153   0.83319   0.00000  Uiso   1.00
H209   H     0.33496   0.83832   0.71020   0.00000  Uiso   1.00
H210   H     0.45218   0.77834   0.87853   0.00000  Uiso   1.00
H211   H     0.46239   0.97233   0.90200   0.00000  Uiso   1.00
H212   H     0.22423   0.80560   0.58784   0.00000  Uiso   1.00
H213   H     0.47140   0.67915   0.94278   0.00000  Uiso   1.00
H214   H     0.49292   0.08821   0.99228   0.00000  Uiso   1.00
H215   H     0.20623   0.80789   0.94105   0.00000  Uiso   1.00
H216   H     0.11907   0.78174   0.82397   0.00000  Uiso   1.00
H217   H     0.23629   0.72176   0.99229   0.00000  Uiso   1.00
H218   H     0.24650   0.91575   0.01577   0.00000  Uiso   1.00
H219   H     0.04900   0.75967   0.68017   0.00000  Uiso   1.00
H220   H     0.29618   0.63322   0.03512   0.00000  Uiso   1.00
H221   H     0.31770   0.04229   0.08462   0.00000  Uiso   1.00
O222   O     0.08297   0.76638   0.55504   0.00000  Uiso   1.00
O223   O     0.40726   0.60049   0.02072   0.00000  Uiso   1.00
O224   O     0.43549   0.13717   0.08567   0.00000  Uiso   1.00
N225   N     0.19495   0.79839   0.62564   0.00000  Uiso   1.00
N226   N     0.42604   0.68016   0.95747   0.00000  Uiso   1.00
N227   N     0.44617   0.06260   0.00377   0.00000  Uiso   1.00
N228   N     0.10066   0.77368   0.67532   0.00000  Uiso   1.00
N229   N     0.33175   0.65545   0.00716   0.00000  Uiso   1.00
N230   N     0.35188   0.03789   0.05346   0.00000  Uiso   1.00
C231   C     0.80427   0.87382   0.15650   0.00000  Uiso   1.00
C232   C     0.78653   0.85814   0.07753   0.00000  Uiso   1.00
C233   C     0.77000   0.80078   0.03822   0.00000  Uiso   1.00
C234   C     0.75536   0.79586   0.96666   0.00000  Uiso   1.00
C235   C     0.72750   0.76381   0.84877   0.00000  Uiso   1.00
C236   C     0.75134   0.90208   0.17850   0.00000  Uiso   1.00
C237   C     0.70522   0.88166   0.22410   0.00000  Uiso   1.00
C238   C     0.66096   0.91374   0.23754   0.00000  Uiso   1.00
C239   C     0.57850   0.94992   0.27645   0.00000  Uiso   1.00
C240   C     0.87726   0.92515   0.17427   0.00000  Uiso   1.00
C241   C     0.93702   0.92414   0.21633   0.00000  Uiso   1.00
C242   C     0.99878   0.97565   0.22622   0.00000  Uiso   1.00
C243   C     0.11183   0.04766   0.25856   0.00000  Uiso   1.00
C244   C     0.80767   0.96709   0.09930   0.00000  Uiso   1.00
C245   C     0.78838   0.90881   0.04646   0.00000  Uiso   1.00
C246   C     0.77376   0.90398   0.97494   0.00000  Uiso   1.00
C247   C     0.75721   0.84662   0.93553   0.00000  Uiso   1.00
C248   C     0.75318   0.95274   0.14743   0.00000  Uiso   1.00
C249   C     0.70898   0.98486   0.16081   0.00000  Uiso   1.00
C250   C     0.66281   0.96449   0.20642   0.00000  Uiso   1.00
C251   C     0.87911   0.97581   0.14320   0.00000  Uiso   1.00
C252   C     0.94078   0.02734   0.15304   0.00000  Uiso   1.00
C253   C     0.00062   0.02641   0.19510   0.00000  Uiso   1.00
H254   H     0.80283   0.83438   0.18069   0.00000  Uiso   1.00
H255   H     0.76857   0.76158   0.06229   0.00000  Uiso   1.00
H256   H     0.70381   0.84246   0.24814   0.00000  Uiso   1.00
H257   H     0.93557   0.88493   0.24036   0.00000  Uiso   1.00
H258   H     0.73137   0.70321   0.91732   0.00000  Uiso   1.00
H259   H     0.59484   0.87375   0.30921   0.00000  Uiso   1.00
H260   H     0.08356   0.96332   0.29282   0.00000  Uiso   1.00
H261   H     0.80911   0.00654   0.07511   0.00000  Uiso   1.00
H262   H     0.77519   0.94319   0.95091   0.00000  Uiso   1.00
H263   H     0.71043   0.02406   0.13676   0.00000  Uiso   1.00
H264   H     0.94219   0.06653   0.12899   0.00000  Uiso   1.00
H265   H     0.73674   0.85061   0.82692   0.00000  Uiso   1.00
H266   H     0.60021   0.02115   0.21882   0.00000  Uiso   1.00
H267   H     0.08893   0.11072   0.20242   0.00000  Uiso   1.00
O268   O     0.71161   0.73213   0.79232   0.00000  Uiso   1.00
O269   O     0.53250   0.95588   0.30648   0.00000  Uiso   1.00
O270   O     0.17368   0.07338   0.28497   0.00000  Uiso   1.00
N271   N     0.73731   0.74660   0.91309   0.00000  Uiso   1.00
N272   N     0.60965   0.90604   0.27948   0.00000  Uiso   1.00
N273   N     0.06655   0.98978   0.26417   0.00000  Uiso   1.00
N274   N     0.74020   0.82591   0.86444   0.00000  Uiso   1.00
N275   N     0.61254   0.98535   0.23083   0.00000  Uiso   1.00
N276   N     0.06944   0.06909   0.21552   0.00000  Uiso   1.00
C277   C     0.65593   0.67262   0.13066   0.00000  Uiso   1.00
C278   C     0.71106   0.69631   0.19750   0.00000  Uiso   1.00
C279   C     0.78456   0.71747   0.20184   0.00000  Uiso   1.00
C280   C     0.82588   0.73720   0.26784   0.00000  Uiso   1.00
C281   C     0.91622   0.77423   0.36259   0.00000  Uiso   1.00
C282   C     0.60940   0.71143   0.13310   0.00000  Uiso   1.00
C283   C     0.59743   0.74529   0.08327   0.00000  Uiso   1.00
C284   C     0.55317   0.77774   0.09505   0.00000  Uiso   1.00
C285   C     0.48564   0.83821   0.08977   0.00000  Uiso   1.00
C286   C     0.60805   0.60834   0.13642   0.00000  Uiso   1.00
C287   C     0.59491   0.55553   0.08937   0.00000  Uiso   1.00
C288   C     0.54950   0.50118   0.10395   0.00000  Uiso   1.00
C289   C     0.47987   0.40158   0.10383   0.00000  Uiso   1.00
C290   C     0.59862   0.67002   0.24017   0.00000  Uiso   1.00
C291   C     0.67993   0.69490   0.25699   0.00000  Uiso   1.00
C292   C     0.72115   0.71459   0.32300   0.00000  Uiso   1.00
C293   C     0.79470   0.73578   0.32743   0.00000  Uiso   1.00
C294   C     0.57828   0.71002   0.19258   0.00000  Uiso   1.00
C295   C     0.53402   0.74241   0.20443   0.00000  Uiso   1.00
C296   C     0.52198   0.77632   0.15464   0.00000  Uiso   1.00
C297   C     0.57692   0.60692   0.19590   0.00000  Uiso   1.00
C298   C     0.53151   0.55265   0.21054   0.00000  Uiso   1.00
C299   C     0.51832   0.49976   0.16354   0.00000  Uiso   1.00
H300   H     0.68016   0.67372   0.08435   0.00000  Uiso   1.00
H301   H     0.80863   0.71856   0.15579   0.00000  Uiso   1.00
H302   H     0.62152   0.74638   0.03724   0.00000  Uiso   1.00
H303   H     0.61901   0.55664   0.04335   0.00000  Uiso   1.00
H304   H     0.93733   0.76768   0.26123   0.00000  Uiso   1.00
H305   H     0.54278   0.82630   0.01124   0.00000  Uiso   1.00
H306   H     0.53749   0.42620   0.02413   0.00000  Uiso   1.00
H307   H     0.57438   0.66892   0.28648   0.00000  Uiso   1.00
H308   H     0.69705   0.71349   0.36902   0.00000  Uiso   1.00
H309   H     0.50994   0.74131   0.25047   0.00000  Uiso   1.00
H310   H     0.50743   0.55157   0.25658   0.00000  Uiso   1.00
H311   H     0.84677   0.76356   0.43430   0.00000  Uiso   1.00
H312   H     0.45221   0.82219   0.18431   0.00000  Uiso   1.00
H313   H     0.44693   0.42209   0.19720   0.00000  Uiso   1.00
O314   O     0.97465   0.79505   0.39841   0.00000  Uiso   1.00
O315   O     0.45701   0.87196   0.07043   0.00000  Uiso   1.00
O316   O     0.45008   0.34703   0.08734   0.00000  Uiso   1.00
N317   N     0.89918   0.76058   0.29064   0.00000  Uiso   1.00
N318   N     0.53031   0.81540   0.05692   0.00000  Uiso   1.00
N319   N     0.52535   0.44134   0.06896   0.00000  Uiso   1.00
N320   N     0.85045   0.75836   0.38376   0.00000  Uiso   1.00
N321   N     0.48158   0.81319   0.15004   0.00000  Uiso   1.00
N322   N     0.47662   0.43913   0.16208   0.00000  Uiso   1.00
C323   C     0.28495   0.63860   0.67949   0.00000  Uiso   1.00
C324   C     0.36520   0.67420   0.69500   0.00000  Uiso   1.00
C325   C     0.39850   0.73501   0.72648   0.00000  Uiso   1.00
C326   C     0.47246   0.75918   0.73609   0.00000  Uiso   1.00
C327   C     0.59111   0.81984   0.76342   0.00000  Uiso   1.00
C328   C     0.27304   0.58297   0.71505   0.00000  Uiso   1.00
C329   C     0.22885   0.56708   0.76338   0.00000  Uiso   1.00
C330   C     0.22523   0.51446   0.78986   0.00000  Uiso   1.00
C331   C     0.20077   0.43345   0.84828   0.00000  Uiso   1.00
C332   C     0.26604   0.61395   0.60177   0.00000  Uiso   1.00
C333   C     0.21595   0.62408   0.55485   0.00000  Uiso   1.00
C334   C     0.20644   0.59753   0.48596   0.00000  Uiso   1.00
C335   C     0.17111   0.56462   0.36849   0.00000  Uiso   1.00
C336   C     0.35709   0.57340   0.64059   0.00000  Uiso   1.00
C337   C     0.40438   0.63878   0.67388   0.00000  Uiso   1.00
C338   C     0.47832   0.66287   0.68344   0.00000  Uiso   1.00
C339   C     0.51172   0.72371   0.71493   0.00000  Uiso   1.00
C340   C     0.31223   0.54756   0.69393   0.00000  Uiso   1.00
C341   C     0.30867   0.49494   0.72034   0.00000  Uiso   1.00
C342   C     0.26449   0.47898   0.76870   0.00000  Uiso   1.00
C343   C     0.30523   0.57853   0.58064   0.00000  Uiso   1.00
C344   C     0.29578   0.55195   0.51181   0.00000  Uiso   1.00
C345   C     0.24569   0.56205   0.46479   0.00000  Uiso   1.00
H346   H     0.25443   0.66617   0.69594   0.00000  Uiso   1.00
H347   H     0.36815   0.76240   0.74283   0.00000  Uiso   1.00
H348   H     0.19852   0.59449   0.77971   0.00000  Uiso   1.00
H349   H     0.18564   0.65149   0.57122   0.00000  Uiso   1.00
H350   H     0.51151   0.85346   0.78551   0.00000  Uiso   1.00
H351   H     0.15382   0.49941   0.86327   0.00000  Uiso   1.00
H352   H     0.12665   0.61961   0.42361   0.00000  Uiso   1.00
H353   H     0.38760   0.54583   0.62415   0.00000  Uiso   1.00
H354   H     0.50863   0.63546   0.66709   0.00000  Uiso   1.00
H355   H     0.33900   0.46755   0.70398   0.00000  Uiso   1.00
H356   H     0.32612   0.52455   0.49548   0.00000  Uiso   1.00
H357   H     0.62553   0.75043   0.72404   0.00000  Uiso   1.00
H358   H     0.26784   0.39637   0.80180   0.00000  Uiso   1.00
H359   H     0.24067   0.51657   0.36214   0.00000  Uiso   1.00
O360   O     0.64573   0.86307   0.78434   0.00000  Uiso   1.00
O361   O     0.17645   0.39856   0.88635   0.00000  Uiso   1.00
O362   O     0.14080   0.55626   0.30953   0.00000  Uiso   1.00
N363   N     0.52173   0.81692   0.76514   0.00000  Uiso   1.00
N364   N     0.18733   0.48590   0.83785   0.00000  Uiso   1.00
N365   N     0.16191   0.59826   0.42681   0.00000  Uiso   1.00
N366   N     0.58309   0.76148   0.73206   0.00000  Uiso   1.00
N367   N     0.24868   0.43046   0.80477   0.00000  Uiso   1.00
N368   N     0.22326   0.54282   0.39373   0.00000  Uiso   1.00
C369   C     0.64241   0.11709   0.63521   0.00000  Uiso   1.00
C370   C     0.67156   0.18130   0.67816   0.00000  Uiso   1.00
C371   C     0.66198   0.19677   0.74529   0.00000  Uiso   1.00
C372   C     0.69293   0.25804   0.77564   0.00000  Uiso   1.00
C373   C     0.73228   0.35102   0.84775   0.00000  Uiso   1.00
C374   C     0.70678   0.10490   0.61412   0.00000  Uiso   1.00
C375   C     0.72680   0.05614   0.62740   0.00000  Uiso   1.00
C376   C     0.78739   0.05311   0.60383   0.00000  Uiso   1.00
C377   C     0.88138   0.02746   0.57647   0.00000  Uiso   1.00
C378   C     0.59822   0.12077   0.56849   0.00000  Uiso   1.00
C379   C     0.52698   0.08535   0.54338   0.00000  Uiso   1.00
C380   C     0.49617   0.09567   0.48137   0.00000  Uiso   1.00
C381   C     0.42162   0.09466   0.38316   0.00000  Uiso   1.00
C382   C     0.71439   0.19839   0.56973   0.00000  Uiso   1.00
C383   C     0.71066   0.22546   0.64260   0.00000  Uiso   1.00
C384   C     0.74163   0.28673   0.67285   0.00000  Uiso   1.00
C385   C     0.73210   0.30229   0.74001   0.00000  Uiso   1.00
C386   C     0.74588   0.14906   0.57856   0.00000  Uiso   1.00
C387   C     0.80645   0.14610   0.55496   0.00000  Uiso   1.00
C388   C     0.82656   0.09735   0.56820   0.00000  Uiso   1.00
C389   C     0.63732   0.16494   0.53292   0.00000  Uiso   1.00
C390   C     0.60662   0.17531   0.47094   0.00000  Uiso   1.00
C391   C     0.53534   0.13991   0.44574   0.00000  Uiso   1.00
H392   H     0.61197   0.08270   0.66290   0.00000  Uiso   1.00
H393   H     0.63173   0.16258   0.77280   0.00000  Uiso   1.00
H394   H     0.69653   0.02197   0.65492   0.00000  Uiso   1.00
H395   H     0.49674   0.05118   0.57092   0.00000  Uiso   1.00
H396   H     0.67090   0.27061   0.87897   0.00000  Uiso   1.00
H397   H     0.80752   0.97412   0.63039   0.00000  Uiso   1.00
H398   H     0.38622   0.03570   0.45325   0.00000  Uiso   1.00
H399   H     0.74484   0.23277   0.54204   0.00000  Uiso   1.00
H400   H     0.77189   0.32089   0.64531   0.00000  Uiso   1.00
H401   H     0.83669   0.18028   0.52743   0.00000  Uiso   1.00
H402   H     0.63690   0.20949   0.44343   0.00000  Uiso   1.00
H403   H     0.78466   0.39910   0.77550   0.00000  Uiso   1.00
H404   H     0.92128   0.10260   0.52691   0.00000  Uiso   1.00
H405   H     0.49998   0.16419   0.34978   0.00000  Uiso   1.00
O406   O     0.74319   0.39011   0.89736   0.00000  Uiso   1.00
O407   O     0.92243   0.00111   0.57122   0.00000  Uiso   1.00
O408   O     0.36969   0.08192   0.33882   0.00000  Uiso   1.00
N409   N     0.69395   0.28876   0.84044   0.00000  Uiso   1.00
N410   N     0.82169   0.01156   0.60804   0.00000  Uiso   1.00
N411   N     0.42781   0.06913   0.44242   0.00000  Uiso   1.00
N412   N     0.75516   0.35790   0.78476   0.00000  Uiso   1.00
N413   N     0.88290   0.08070   0.55236   0.00000  Uiso   1.00
N414   N     0.48902   0.13827   0.38674   0.00000  Uiso   1.00
C415   C     0.16080   0.79414   0.10903   0.00000  Uiso   1.00
C416   C     0.22262   0.85455   0.13666   0.00000  Uiso   1.00
C417   C     0.29246   0.86782   0.12657   0.00000  Uiso   1.00
C418   C     0.34116   0.92570   0.15609   0.00000  Uiso   1.00
C419   C     0.44027   0.01295   0.19320   0.00000  Uiso   1.00
C420   C     0.13061   0.77217   0.17213   0.00000  Uiso   1.00
C421   C     0.12309   0.71617   0.19184   0.00000  Uiso   1.00
C422   C     0.09433   0.70471   0.25121   0.00000  Uiso   1.00
C423   C     0.05056   0.66403   0.34335   0.00000  Uiso   1.00
C424   C     0.10332   0.80998   0.06654   0.00000  Uiso   1.00
C425   C     0.07283   0.78577   0.99749   0.00000  Uiso   1.00
C426   C     0.02108   0.80613   0.96797   0.00000  Uiso   1.00
C427   C     0.93494   0.82416   0.89618   0.00000  Uiso   1.00
C428   C     0.12309   0.87334   0.17940   0.00000  Uiso   1.00
C429   C     0.20213   0.89757   0.17489   0.00000  Uiso   1.00
C430   C     0.25074   0.95545   0.20442   0.00000  Uiso   1.00
C431   C     0.32064   0.96880   0.19438   0.00000  Uiso   1.00
C432   C     0.11013   0.81518   0.21035   0.00000  Uiso   1.00
C433   C     0.08137   0.80380   0.26970   0.00000  Uiso   1.00
C434   C     0.07381   0.74780   0.28950   0.00000  Uiso   1.00
C435   C     0.08284   0.85300   0.10476   0.00000  Uiso   1.00
C436   C     0.03112   0.87340   0.07534   0.00000  Uiso   1.00
C437   C     0.00056   0.84922   0.00626   0.00000  Uiso   1.00
H438   H     0.17674   0.76065   0.07928   0.00000  Uiso   1.00
H439   H     0.30829   0.83451   0.09699   0.00000  Uiso   1.00
H440   H     0.13894   0.68289   0.16225   0.00000  Uiso   1.00
H441   H     0.08870   0.75248   0.96793   0.00000  Uiso   1.00
H442   H     0.44511   0.93537   0.13351   0.00000  Uiso   1.00
H443   H     0.08800   0.61565   0.27109   0.00000  Uiso   1.00
H444   H     0.98205   0.76239   0.86133   0.00000  Uiso   1.00
H445   H     0.10714   0.90683   0.20916   0.00000  Uiso   1.00
H446   H     0.23487   0.98873   0.23400   0.00000  Uiso   1.00
H447   H     0.06552   0.83710   0.29926   0.00000  Uiso   1.00
H448   H     0.01528   0.90669   0.10494   0.00000  Uiso   1.00
H449   H     0.38552   0.06054   0.24471   0.00000  Uiso   1.00
H450   H     0.02841   0.74081   0.38229   0.00000  Uiso   1.00
H451   H     0.92247   0.88756   0.97253   0.00000  Uiso   1.00
O452   O     0.50060   0.04918   0.20312   0.00000  Uiso   1.00
O453   O     0.03208   0.62971   0.38362   0.00000  Uiso   1.00
O454   O     0.89308   0.82224   0.84602   0.00000  Uiso   1.00
N455   N     0.41355   0.95359   0.15626   0.00000  Uiso   1.00
N456   N     0.07969   0.65468   0.28490   0.00000  Uiso   1.00
N457   N     0.98062   0.79186   0.90181   0.00000  Uiso   1.00
N458   N     0.38148   0.02095   0.21610   0.00000  Uiso   1.00
N459   N     0.04763   0.72203   0.34473   0.00000  Uiso   1.00
N460   N     0.94856   0.85921   0.96164   0.00000  Uiso   1.00
C461   C     0.63600   0.15076   0.14210   0.00000  Uiso   1.00
C462   C     0.70563   0.17080   0.19397   0.00000  Uiso   1.00
C463   C     0.71166   0.17390   0.26526   0.00000  Uiso   1.00
C464   C     0.78012   0.19336   0.30373   0.00000  Uiso   1.00
C465   C     0.87908   0.22212   0.38910   0.00000  Uiso   1.00
C466   C     0.64195   0.20340   0.10252   0.00000  Uiso   1.00
C467   C     0.59442   0.23389   0.09691   0.00000  Uiso   1.00
C468   C     0.60928   0.28079   0.05840   0.00000  Uiso   1.00
C469   C     0.60934   0.36011   0.00175   0.00000  Uiso   1.00
C470   C     0.63641   0.09799   0.08977   0.00000  Uiso   1.00
C471   C     0.58421   0.03987   0.07343   0.00000  Uiso   1.00
C472   C     0.59439   0.99803   0.02417   0.00000  Uiso   1.00
C473   C     0.58585   0.91370   0.94772   0.00000  Uiso   1.00
C474   C     0.74688   0.17982   0.08367   0.00000  Uiso   1.00
C475   C     0.76586   0.18659   0.16223   0.00000  Uiso   1.00
C476   C     0.83433   0.20605   0.20061   0.00000  Uiso   1.00
C477   C     0.84046   0.20917   0.27194   0.00000  Uiso   1.00
C478   C     0.70217   0.21918   0.07078   0.00000  Uiso   1.00
C479   C     0.71710   0.26604   0.03226   0.00000  Uiso   1.00
C480   C     0.66961   0.29660   0.02660   0.00000  Uiso   1.00
C481   C     0.69663   0.11378   0.05803   0.00000  Uiso   1.00
C482   C     0.70689   0.07202   0.00878   0.00000  Uiso   1.00
C483   C     0.65473   0.01384   0.99237   0.00000  Uiso   1.00
H484   H     0.58911   0.13847   0.16681   0.00000  Uiso   1.00
H485   H     0.66504   0.16168   0.28980   0.00000  Uiso   1.00
H486   H     0.54782   0.22166   0.12147   0.00000  Uiso   1.00
H487   H     0.53761   0.02767   0.09800   0.00000  Uiso   1.00
H488   H     0.77577   0.19440   0.41216   0.00000  Uiso   1.00
H489   H     0.52860   0.32085   0.05722   0.00000  Uiso   1.00
H490   H     0.50708   0.91179   0.00772   0.00000  Uiso   1.00
H491   H     0.79377   0.19211   0.05895   0.00000  Uiso   1.00
H492   H     0.88093   0.21826   0.17603   0.00000  Uiso   1.00
H493   H     0.76371   0.27824   0.00771   0.00000  Uiso   1.00
H494   H     0.75350   0.08425   0.98423   0.00000  Uiso   1.00
H495   H     0.95100   0.24033   0.31983   0.00000  Uiso   1.00
H496   H     0.70382   0.36678   0.96488   0.00000  Uiso   1.00
H497   H     0.68230   0.95771   0.91538   0.00000  Uiso   1.00
O498   O     0.91703   0.23362   0.44496   0.00000  Uiso   1.00
O499   O     0.59274   0.39951   0.97928   0.00000  Uiso   1.00
O500   O     0.56451   0.86283   0.91433   0.00000  Uiso   1.00
N501   N     0.80505   0.20161   0.37436   0.00000  Uiso   1.00
N502   N     0.57396   0.31984   0.04253   0.00000  Uiso   1.00
N503   N     0.55383   0.93740   0.99623   0.00000  Uiso   1.00
N504   N     0.89934   0.22632   0.32468   0.00000  Uiso   1.00
N505   N     0.66825   0.34455   0.99284   0.00000  Uiso   1.00
N506   N     0.64812   0.96211   0.94654   0.00000  Uiso   1.00
C507   C     0.19573   0.12618   0.84350   0.00000  Uiso   1.00
C508   C     0.21347   0.14186   0.92247   0.00000  Uiso   1.00
C509   C     0.23000   0.19922   0.96178   0.00000  Uiso   1.00
C510   C     0.24464   0.20414   0.03334   0.00000  Uiso   1.00
C511   C     0.27250   0.23619   0.15123   0.00000  Uiso   1.00
C512   C     0.24866   0.09792   0.82150   0.00000  Uiso   1.00
C513   C     0.29478   0.11834   0.77590   0.00000  Uiso   1.00
C514   C     0.33904   0.08626   0.76246   0.00000  Uiso   1.00
C515   C     0.42150   0.05008   0.72355   0.00000  Uiso   1.00
C516   C     0.12274   0.07485   0.82573   0.00000  Uiso   1.00
C517   C     0.06298   0.07586   0.78367   0.00000  Uiso   1.00
C518   C     0.00122   0.02435   0.77378   0.00000  Uiso   1.00
C519   C     0.88817   0.95234   0.74144   0.00000  Uiso   1.00
C520   C     0.19233   0.03291   0.90070   0.00000  Uiso   1.00
C521   C     0.21162   0.09119   0.95354   0.00000  Uiso   1.00
C522   C     0.22624   0.09602   0.02506   0.00000  Uiso   1.00
C523   C     0.24279   0.15338   0.06447   0.00000  Uiso   1.00
C524   C     0.24682   0.04726   0.85257   0.00000  Uiso   1.00
C525   C     0.29102   0.01514   0.83919   0.00000  Uiso   1.00
C526   C     0.33719   0.03551   0.79358   0.00000  Uiso   1.00
C527   C     0.12089   0.02419   0.85680   0.00000  Uiso   1.00
C528   C     0.05922   0.97266   0.84696   0.00000  Uiso   1.00
C529   C     0.99938   0.97359   0.80490   0.00000  Uiso   1.00
H530   H     0.19717   0.16562   0.81931   0.00000  Uiso   1.00
H531   H     0.23143   0.23842   0.93771   0.00000  Uiso   1.00
H532   H     0.29619   0.15754   0.75186   0.00000  Uiso   1.00
H533   H     0.06443   0.11507   0.75964   0.00000  Uiso   1.00
H534   H     0.26863   0.29679   0.08268   0.00000  Uiso   1.00
H535   H     0.40516   0.12625   0.69079   0.00000  Uiso   1.00
H536   H     0.91644   0.03668   0.70718   0.00000  Uiso   1.00
H537   H     0.19089   0.99346   0.92489   0.00000  Uiso   1.00
H538   H     0.22481   0.05681   0.04909   0.00000  Uiso   1.00
H539   H     0.28957   0.97594   0.86324   0.00000  Uiso   1.00
H540   H     0.05781   0.93347   0.87101   0.00000  Uiso   1.00
H541   H     0.26326   0.14939   0.17308   0.00000  Uiso   1.00
H542   H     0.39979   0.97885   0.78118   0.00000  Uiso   1.00
H543   H     0.91107   0.88928   0.79758   0.00000  Uiso   1.00
O544   O     0.28839   0.26787   0.20768   0.00000  Uiso   1.00
O545   O     0.46750   0.04412   0.69352   0.00000  Uiso   1.00
O546   O     0.82632   0.92662   0.71503   0.00000  Uiso   1.00
N547   N     0.26269   0.25340   0.08691   0.00000  Uiso   1.00
N548   N     0.39035   0.09396   0.72052   0.00000  Uiso   1.00
N549   N     0.93345   0.01022   0.73583   0.00000  Uiso   1.00
N550   N     0.25980   0.17409   0.13556   0.00000  Uiso   1.00
N551   N     0.38746   0.01465   0.76917   0.00000  Uiso   1.00
N552   N     0.93056   0.93091   0.78448   0.00000  Uiso   1.00
