data_job_02825
_audit_creation_date              2018-12-19
_audit_creation_method            'Materials Studio'
_symmetry_space_group_name_H-M    'P1'
_symmetry_Int_Tables_number       1
_symmetry_cell_setting            triclinic
loop_
_symmetry_equiv_pos_as_xyz
  x,y,z
_cell_length_a                    11.6664
_cell_length_b                    19.9731
_cell_length_c                    14.0204
_cell_angle_alpha                 90.0000
_cell_angle_beta                  109.7730
_cell_angle_gamma                 90.0000
loop_
_atom_site_label
_atom_site_type_symbol
_atom_site_fract_x
_atom_site_fract_y
_atom_site_fract_z
_atom_site_U_iso_or_equiv
_atom_site_adp_type
_atom_site_occupancy
C1     C     0.99485   0.82217   0.90806   0.00000  Uiso   1.00
C2     C     0.86896   0.81903   0.82688   0.00000  Uiso   1.00
C3     C     0.83727   0.84608   0.73023   0.00000  Uiso   1.00
C4     C     0.71739   0.83786   0.66720   0.00000  Uiso   1.00
C5     C     0.53486   0.83814   0.53617   0.00000  Uiso   1.00
C6     C     0.03153   0.74983   0.93801   0.00000  Uiso   1.00
C7     C     0.13652   0.71871   0.93480   0.00000  Uiso   1.00
C8     C     0.15349   0.65223   0.96533   0.00000  Uiso   1.00
C9     C     0.22340   0.54509   0.00691   0.00000  Uiso   1.00
C10    C     0.97680   0.85468   0.00037   0.00000  Uiso   1.00
C11    C     0.03581   0.91170   0.04962   0.00000  Uiso   1.00
C12    C     0.00673   0.93349   0.13268   0.00000  Uiso   1.00
C13    C     0.99166   0.98914   0.27108   0.00000  Uiso   1.00
C14    C     0.83832   0.75947   0.96800   0.00000  Uiso   1.00
C15    C     0.78395   0.78498   0.85944   0.00000  Uiso   1.00
C16    C     0.66408   0.77672   0.79654   0.00000  Uiso   1.00
C17    C     0.63221   0.80375   0.69981   0.00000  Uiso   1.00
C18    C     0.94651   0.71578   0.97056   0.00000  Uiso   1.00
C19    C     0.96334   0.64934   0.00111   0.00000  Uiso   1.00
C20    C     0.06832   0.61812   0.99795   0.00000  Uiso   1.00
C21    C     0.89178   0.82063   0.03293   0.00000  Uiso   1.00
C22    C     0.86261   0.84233   0.11593   0.00000  Uiso   1.00
C23    C     0.92155   0.89937   0.16529   0.00000  Uiso   1.00
H24    H     0.06105   0.84868   0.88272   0.00000  Uiso   1.00
H25    H     0.90310   0.87243   0.70506   0.00000  Uiso   1.00
H26    H     0.20231   0.74508   0.90961   0.00000  Uiso   1.00
H27    H     0.10160   0.93804   0.02441   0.00000  Uiso   1.00
H28    H     0.69049   0.88372   0.52243   0.00000  Uiso   1.00
H29    H     0.32141   0.61519   0.95378   0.00000  Uiso   1.00
H30    H     0.10905   0.02209   0.19585   0.00000  Uiso   1.00
H31    H     0.77213   0.73296   0.99335   0.00000  Uiso   1.00
H32    H     0.59831   0.75036   0.82175   0.00000  Uiso   1.00
H33    H     0.89752   0.62300   0.02631   0.00000  Uiso   1.00
H34    H     0.79681   0.81596   0.14110   0.00000  Uiso   1.00
H35    H     0.44311   0.78464   0.61714   0.00000  Uiso   1.00
H36    H     0.07404   0.51611   0.04850   0.00000  Uiso   1.00
H37    H     0.86167   0.92301   0.29056   0.00000  Uiso   1.00
O38    O     0.45768   0.84769   0.45490   0.00000  Uiso   1.00
O39    O     0.28544   0.49540   0.02083   0.00000  Uiso   1.00
O40    O     0.00682   0.02924   0.33841   0.00000  Uiso   1.00
N41    N     0.65611   0.85802   0.56828   0.00000  Uiso   1.00
N42    N     0.24598   0.60696   0.97155   0.00000  Uiso   1.00
N43    N     0.04747   0.98737   0.19788   0.00000  Uiso   1.00
N44    N     0.52300   0.80471   0.61924   0.00000  Uiso   1.00
N45    N     0.11287   0.55365   0.02251   0.00000  Uiso   1.00
N46    N     0.91436   0.93406   0.24884   0.00000  Uiso   1.00
C47    C     0.00515   0.32217   0.59194   0.00000  Uiso   1.00
C48    C     0.13104   0.31903   0.67312   0.00000  Uiso   1.00
C49    C     0.16273   0.34608   0.76977   0.00000  Uiso   1.00
C50    C     0.28261   0.33786   0.83280   0.00000  Uiso   1.00
C51    C     0.46514   0.33814   0.96383   0.00000  Uiso   1.00
C52    C     0.96847   0.24983   0.56199   0.00000  Uiso   1.00
C53    C     0.86348   0.21871   0.56520   0.00000  Uiso   1.00
C54    C     0.84651   0.15223   0.53467   0.00000  Uiso   1.00
C55    C     0.77660   0.04509   0.49309   0.00000  Uiso   1.00
C56    C     0.02320   0.35468   0.49963   0.00000  Uiso   1.00
C57    C     0.96419   0.41170   0.45038   0.00000  Uiso   1.00
C58    C     0.99327   0.43349   0.36732   0.00000  Uiso   1.00
C59    C     0.00834   0.48914   0.22892   0.00000  Uiso   1.00
C60    C     0.16168   0.25947   0.53200   0.00000  Uiso   1.00
C61    C     0.21605   0.28498   0.64056   0.00000  Uiso   1.00
C62    C     0.33592   0.27672   0.70346   0.00000  Uiso   1.00
C63    C     0.36779   0.30375   0.80019   0.00000  Uiso   1.00
C64    C     0.05349   0.21578   0.52944   0.00000  Uiso   1.00
C65    C     0.03666   0.14934   0.49889   0.00000  Uiso   1.00
C66    C     0.93168   0.11812   0.50205   0.00000  Uiso   1.00
C67    C     0.10822   0.32063   0.46707   0.00000  Uiso   1.00
C68    C     0.13739   0.34233   0.38407   0.00000  Uiso   1.00
C69    C     0.07845   0.39937   0.33471   0.00000  Uiso   1.00
H70    H     0.93895   0.34868   0.61728   0.00000  Uiso   1.00
H71    H     0.09690   0.37243   0.79494   0.00000  Uiso   1.00
H72    H     0.79769   0.24508   0.59039   0.00000  Uiso   1.00
H73    H     0.89840   0.43804   0.47559   0.00000  Uiso   1.00
H74    H     0.30951   0.38372   0.97757   0.00000  Uiso   1.00
H75    H     0.67859   0.11519   0.54622   0.00000  Uiso   1.00
H76    H     0.89095   0.52209   0.30415   0.00000  Uiso   1.00
H77    H     0.22787   0.23296   0.50665   0.00000  Uiso   1.00
H78    H     0.40169   0.25036   0.67825   0.00000  Uiso   1.00
H79    H     0.10248   0.12300   0.47369   0.00000  Uiso   1.00
H80    H     0.20319   0.31596   0.35890   0.00000  Uiso   1.00
H81    H     0.55689   0.28464   0.88286   0.00000  Uiso   1.00
H82    H     0.92596   0.01611   0.45150   0.00000  Uiso   1.00
H83    H     0.13833   0.42301   0.20944   0.00000  Uiso   1.00
O84    O     0.54232   0.34769   0.04510   0.00000  Uiso   1.00
O85    O     0.71456   0.99540   0.47917   0.00000  Uiso   1.00
O86    O     0.99318   0.52924   0.16159   0.00000  Uiso   1.00
N87    N     0.34389   0.35802   0.93172   0.00000  Uiso   1.00
N88    N     0.75402   0.10696   0.52845   0.00000  Uiso   1.00
N89    N     0.95253   0.48737   0.30212   0.00000  Uiso   1.00
N90    N     0.47700   0.30471   0.88076   0.00000  Uiso   1.00
N91    N     0.88713   0.05365   0.47749   0.00000  Uiso   1.00
N92    N     0.08564   0.43406   0.25116   0.00000  Uiso   1.00
C93    C     0.00515   0.17783   0.09194   0.00000  Uiso   1.00
C94    C     0.13104   0.18097   0.17312   0.00000  Uiso   1.00
C95    C     0.16273   0.15392   0.26977   0.00000  Uiso   1.00
C96    C     0.28261   0.16214   0.33280   0.00000  Uiso   1.00
C97    C     0.46514   0.16186   0.46383   0.00000  Uiso   1.00
C98    C     0.96847   0.25017   0.06199   0.00000  Uiso   1.00
C99    C     0.86348   0.28129   0.06520   0.00000  Uiso   1.00
C100   C     0.84651   0.34777   0.03467   0.00000  Uiso   1.00
C101   C     0.77660   0.45491   0.99309   0.00000  Uiso   1.00
C102   C     0.02320   0.14532   0.99963   0.00000  Uiso   1.00
C103   C     0.96419   0.08830   0.95038   0.00000  Uiso   1.00
C104   C     0.99327   0.06651   0.86732   0.00000  Uiso   1.00
C105   C     0.00834   0.01086   0.72892   0.00000  Uiso   1.00
C106   C     0.16168   0.24053   0.03200   0.00000  Uiso   1.00
C107   C     0.21605   0.21502   0.14056   0.00000  Uiso   1.00
C108   C     0.33592   0.22328   0.20346   0.00000  Uiso   1.00
C109   C     0.36779   0.19625   0.30019   0.00000  Uiso   1.00
C110   C     0.05349   0.28422   0.02944   0.00000  Uiso   1.00
C111   C     0.03666   0.35066   0.99889   0.00000  Uiso   1.00
C112   C     0.93168   0.38188   0.00205   0.00000  Uiso   1.00
C113   C     0.10822   0.17937   0.96707   0.00000  Uiso   1.00
C114   C     0.13739   0.15767   0.88407   0.00000  Uiso   1.00
C115   C     0.07845   0.10063   0.83471   0.00000  Uiso   1.00
H116   H     0.93895   0.15132   0.11728   0.00000  Uiso   1.00
H117   H     0.09690   0.12757   0.29494   0.00000  Uiso   1.00
H118   H     0.79769   0.25492   0.09039   0.00000  Uiso   1.00
H119   H     0.89840   0.06196   0.97559   0.00000  Uiso   1.00
H120   H     0.30951   0.11628   0.47757   0.00000  Uiso   1.00
H121   H     0.67859   0.38481   0.04622   0.00000  Uiso   1.00
H122   H     0.89095   0.97791   0.80415   0.00000  Uiso   1.00
H123   H     0.22787   0.26704   0.00665   0.00000  Uiso   1.00
H124   H     0.40169   0.24964   0.17825   0.00000  Uiso   1.00
H125   H     0.10248   0.37700   0.97369   0.00000  Uiso   1.00
H126   H     0.20319   0.18404   0.85890   0.00000  Uiso   1.00
H127   H     0.55689   0.21536   0.38286   0.00000  Uiso   1.00
H128   H     0.92596   0.48389   0.95150   0.00000  Uiso   1.00
H129   H     0.13833   0.07699   0.70944   0.00000  Uiso   1.00
O130   O     0.54232   0.15231   0.54510   0.00000  Uiso   1.00
O131   O     0.71456   0.50460   0.97917   0.00000  Uiso   1.00
O132   O     0.99318   0.97076   0.66159   0.00000  Uiso   1.00
N133   N     0.34389   0.14198   0.43172   0.00000  Uiso   1.00
N134   N     0.75402   0.39304   0.02845   0.00000  Uiso   1.00
N135   N     0.95253   0.01263   0.80212   0.00000  Uiso   1.00
N136   N     0.47700   0.19529   0.38076   0.00000  Uiso   1.00
N137   N     0.88713   0.44635   0.97749   0.00000  Uiso   1.00
N138   N     0.08564   0.06594   0.75116   0.00000  Uiso   1.00
C139   C     0.99485   0.67783   0.40806   0.00000  Uiso   1.00
C140   C     0.86896   0.68097   0.32688   0.00000  Uiso   1.00
C141   C     0.83727   0.65392   0.23023   0.00000  Uiso   1.00
C142   C     0.71739   0.66214   0.16720   0.00000  Uiso   1.00
C143   C     0.53486   0.66186   0.03617   0.00000  Uiso   1.00
C144   C     0.03153   0.75017   0.43801   0.00000  Uiso   1.00
C145   C     0.13652   0.78129   0.43480   0.00000  Uiso   1.00
C146   C     0.15349   0.84777   0.46533   0.00000  Uiso   1.00
C147   C     0.22340   0.95491   0.50691   0.00000  Uiso   1.00
C148   C     0.97680   0.64532   0.50037   0.00000  Uiso   1.00
C149   C     0.03581   0.58830   0.54962   0.00000  Uiso   1.00
C150   C     0.00673   0.56651   0.63268   0.00000  Uiso   1.00
C151   C     0.99166   0.51086   0.77108   0.00000  Uiso   1.00
C152   C     0.83832   0.74053   0.46800   0.00000  Uiso   1.00
C153   C     0.78395   0.71502   0.35944   0.00000  Uiso   1.00
C154   C     0.66408   0.72328   0.29654   0.00000  Uiso   1.00
C155   C     0.63221   0.69625   0.19981   0.00000  Uiso   1.00
C156   C     0.94651   0.78422   0.47056   0.00000  Uiso   1.00
C157   C     0.96334   0.85066   0.50111   0.00000  Uiso   1.00
C158   C     0.06832   0.88188   0.49795   0.00000  Uiso   1.00
C159   C     0.89178   0.67937   0.53293   0.00000  Uiso   1.00
C160   C     0.86261   0.65767   0.61593   0.00000  Uiso   1.00
C161   C     0.92155   0.60063   0.66529   0.00000  Uiso   1.00
H162   H     0.06105   0.65132   0.38272   0.00000  Uiso   1.00
H163   H     0.90310   0.62757   0.20506   0.00000  Uiso   1.00
H164   H     0.20231   0.75492   0.40961   0.00000  Uiso   1.00
H165   H     0.10160   0.56196   0.52441   0.00000  Uiso   1.00
H166   H     0.69049   0.61628   0.02243   0.00000  Uiso   1.00
H167   H     0.32141   0.88481   0.45378   0.00000  Uiso   1.00
H168   H     0.10905   0.47791   0.69585   0.00000  Uiso   1.00
H169   H     0.77213   0.76704   0.49335   0.00000  Uiso   1.00
H170   H     0.59831   0.74964   0.32175   0.00000  Uiso   1.00
H171   H     0.89752   0.87700   0.52631   0.00000  Uiso   1.00
H172   H     0.79681   0.68404   0.64110   0.00000  Uiso   1.00
H173   H     0.44311   0.71536   0.11714   0.00000  Uiso   1.00
H174   H     0.07404   0.98389   0.54850   0.00000  Uiso   1.00
H175   H     0.86167   0.57699   0.79056   0.00000  Uiso   1.00
O176   O     0.45768   0.65231   0.95490   0.00000  Uiso   1.00
O177   O     0.28544   0.00460   0.52083   0.00000  Uiso   1.00
O178   O     0.00682   0.47076   0.83841   0.00000  Uiso   1.00
N179   N     0.65611   0.64198   0.06828   0.00000  Uiso   1.00
N180   N     0.24598   0.89304   0.47155   0.00000  Uiso   1.00
N181   N     0.04747   0.51263   0.69788   0.00000  Uiso   1.00
N182   N     0.52300   0.69529   0.11924   0.00000  Uiso   1.00
N183   N     0.11287   0.94635   0.52251   0.00000  Uiso   1.00
N184   N     0.91436   0.56594   0.74884   0.00000  Uiso   1.00
