data_job_00896
_audit_creation_date              2018-12-19
_audit_creation_method            'Materials Studio'
_symmetry_space_group_name_H-M    'P1'
_symmetry_Int_Tables_number       1
_symmetry_cell_setting            triclinic
loop_
_symmetry_equiv_pos_as_xyz
  x,y,z
_cell_length_a                    28.9448
_cell_length_b                    12.5001
_cell_length_c                    12.4845
_cell_angle_alpha                 90.0000
_cell_angle_beta                  90.0000
_cell_angle_gamma                 90.0000
loop_
_atom_site_label
_atom_site_type_symbol
_atom_site_fract_x
_atom_site_fract_y
_atom_site_fract_z
_atom_site_U_iso_or_equiv
_atom_site_adp_type
_atom_site_occupancy
C1     C     0.62210   0.86798   0.37249   0.00000  Uiso   1.00
C2     C     0.67386   0.85193   0.35622   0.00000  Uiso   1.00
C3     C     0.70764   0.86440   0.43410   0.00000  Uiso   1.00
C4     C     0.75303   0.84604   0.40322   0.00000  Uiso   1.00
C5     C     0.83170   0.82569   0.39391   0.00000  Uiso   1.00
C6     C     0.60727   0.95114   0.29000   0.00000  Uiso   1.00
C7     C     0.58507   0.04701   0.31221   0.00000  Uiso   1.00
C8     C     0.57441   0.11215   0.22558   0.00000  Uiso   1.00
C9     C     0.54967   0.24578   0.11346   0.00000  Uiso   1.00
C10    C     0.59926   0.76335   0.33878   0.00000  Uiso   1.00
C11    C     0.57030   0.70133   0.40200   0.00000  Uiso   1.00
C12    C     0.55289   0.60838   0.35644   0.00000  Uiso   1.00
C13    C     0.51570   0.45044   0.32006   0.00000  Uiso   1.00
C14    C     0.64264   0.81319   0.17917   0.00000  Uiso   1.00
C15    C     0.68501   0.82217   0.25121   0.00000  Uiso   1.00
C16    C     0.73037   0.80378   0.22021   0.00000  Uiso   1.00
C17    C     0.76421   0.81622   0.29803   0.00000  Uiso   1.00
C18    C     0.61843   0.92138   0.18500   0.00000  Uiso   1.00
C19    C     0.60780   0.98639   0.09832   0.00000  Uiso   1.00
C20    C     0.58559   0.08234   0.12039   0.00000  Uiso   1.00
C21    C     0.61041   0.73358   0.23378   0.00000  Uiso   1.00
C22    C     0.59303   0.64071   0.18811   0.00000  Uiso   1.00
C23    C     0.56406   0.57857   0.25125   0.00000  Uiso   1.00
H24    H     0.61342   0.89116   0.45424   0.00000  Uiso   1.00
H25    H     0.69899   0.88744   0.51535   0.00000  Uiso   1.00
H26    H     0.57644   0.07001   0.39347   0.00000  Uiso   1.00
H27    H     0.56168   0.72439   0.48325   0.00000  Uiso   1.00
H28    H     0.79879   0.87024   0.53678   0.00000  Uiso   1.00
H29    H     0.54036   0.25518   0.27979   0.00000  Uiso   1.00
H30    H     0.50924   0.52637   0.46911   0.00000  Uiso   1.00
H31    H     0.65133   0.79002   0.09742   0.00000  Uiso   1.00
H32    H     0.73899   0.78075   0.13894   0.00000  Uiso   1.00
H33    H     0.61643   0.96333   0.01707   0.00000  Uiso   1.00
H34    H     0.60167   0.61770   0.10685   0.00000  Uiso   1.00
H35    H     0.83125   0.78365   0.23127   0.00000  Uiso   1.00
H36    H     0.57282   0.16859   0.97429   0.00000  Uiso   1.00
H37    H     0.54170   0.43978   0.16361   0.00000  Uiso   1.00
O38    O     0.87200   0.82271   0.41777   0.00000  Uiso   1.00
O39    O     0.53295   0.32773   0.08062   0.00000  Uiso   1.00
O40    O     0.49212   0.37154   0.32901   0.00000  Uiso   1.00
N41    N     0.79440   0.85111   0.45918   0.00000  Uiso   1.00
N42    N     0.55279   0.21102   0.21892   0.00000  Uiso   1.00
N43    N     0.52368   0.52965   0.39591   0.00000  Uiso   1.00
N44    N     0.81187   0.80451   0.29479   0.00000  Uiso   1.00
N45    N     0.57026   0.16442   0.05453   0.00000  Uiso   1.00
N46    N     0.54115   0.48306   0.23152   0.00000  Uiso   1.00
C47    C     0.12044   0.86325   0.85833   0.00000  Uiso   1.00
C48    C     0.17249   0.85907   0.87669   0.00000  Uiso   1.00
C49    C     0.19496   0.88353   0.97179   0.00000  Uiso   1.00
C50    C     0.24278   0.87479   0.97231   0.00000  Uiso   1.00
C51    C     0.31989   0.87323   0.01470   0.00000  Uiso   1.00
C52    C     0.11306   0.93815   0.76345   0.00000  Uiso   1.00
C53    C     0.08555   0.02908   0.76333   0.00000  Uiso   1.00
C54    C     0.08333   0.08689   0.66851   0.00000  Uiso   1.00
C55    C     0.06814   0.20805   0.53505   0.00000  Uiso   1.00
C56    C     0.10658   0.75210   0.81960   0.00000  Uiso   1.00
C57    C     0.07362   0.68661   0.86667   0.00000  Uiso   1.00
C58    C     0.06594   0.58779   0.81911   0.00000  Uiso   1.00
C59    C     0.04069   0.42009   0.77284   0.00000  Uiso   1.00
C60    C     0.16541   0.80423   0.69014   0.00000  Uiso   1.00
C61    C     0.19692   0.82702   0.78534   0.00000  Uiso   1.00
C62    C     0.24472   0.81823   0.78571   0.00000  Uiso   1.00
C63    C     0.26725   0.84267   0.88079   0.00000  Uiso   1.00
C64    C     0.13749   0.90609   0.67209   0.00000  Uiso   1.00
C65    C     0.13530   0.96378   0.57725   0.00000  Uiso   1.00
C66    C     0.10780   0.05478   0.57699   0.00000  Uiso   1.00
C67    C     0.13101   0.72004   0.72824   0.00000  Uiso   1.00
C68    C     0.12338   0.62131   0.68059   0.00000  Uiso   1.00
C69    C     0.09041   0.55568   0.72759   0.00000  Uiso   1.00
H70    H     0.10142   0.88822   0.92945   0.00000  Uiso   1.00
H71    H     0.17605   0.90835   0.04247   0.00000  Uiso   1.00
H72    H     0.06665   0.05387   0.83403   0.00000  Uiso   1.00
H73    H     0.05472   0.71145   0.93736   0.00000  Uiso   1.00
H74    H     0.26955   0.91657   0.12747   0.00000  Uiso   1.00
H75    H     0.03887   0.22338   0.68796   0.00000  Uiso   1.00
H76    H     0.01372   0.50132   0.90586   0.00000  Uiso   1.00
H77    H     0.18443   0.77927   0.61902   0.00000  Uiso   1.00
H78    H     0.26361   0.79342   0.71500   0.00000  Uiso   1.00
H79    H     0.15421   0.93894   0.50657   0.00000  Uiso   1.00
H80    H     0.14228   0.59652   0.60990   0.00000  Uiso   1.00
H81    H     0.34062   0.82329   0.86169   0.00000  Uiso   1.00
H82    H     0.10994   0.13010   0.42218   0.00000  Uiso   1.00
H83    H     0.08479   0.40805   0.64007   0.00000  Uiso   1.00
O84    O     0.35568   0.88124   0.06331   0.00000  Uiso   1.00
O85    O     0.05302   0.28375   0.48669   0.00000  Uiso   1.00
O86    O     0.02003   0.33643   0.77257   0.00000  Uiso   1.00
N87    N     0.27541   0.89265   0.05175   0.00000  Uiso   1.00
N88    N     0.05974   0.17951   0.64084   0.00000  Uiso   1.00
N89    N     0.03622   0.50446   0.84454   0.00000  Uiso   1.00
N90    N     0.31365   0.84246   0.90874   0.00000  Uiso   1.00
N91    N     0.09798   0.12932   0.49783   0.00000  Uiso   1.00
N92    N     0.07446   0.45427   0.70152   0.00000  Uiso   1.00
C93    C     0.37790   0.13202   0.87249   0.00000  Uiso   1.00
C94    C     0.32614   0.14807   0.85622   0.00000  Uiso   1.00
C95    C     0.29236   0.13560   0.93410   0.00000  Uiso   1.00
C96    C     0.24697   0.15396   0.90322   0.00000  Uiso   1.00
C97    C     0.16830   0.17431   0.89391   0.00000  Uiso   1.00
C98    C     0.39273   0.04886   0.79000   0.00000  Uiso   1.00
C99    C     0.41493   0.95299   0.81221   0.00000  Uiso   1.00
C100   C     0.42559   0.88785   0.72558   0.00000  Uiso   1.00
C101   C     0.45033   0.75422   0.61346   0.00000  Uiso   1.00
C102   C     0.40074   0.23665   0.83878   0.00000  Uiso   1.00
C103   C     0.42970   0.29867   0.90200   0.00000  Uiso   1.00
C104   C     0.44711   0.39162   0.85644   0.00000  Uiso   1.00
C105   C     0.48430   0.54956   0.82006   0.00000  Uiso   1.00
C106   C     0.35736   0.18681   0.67917   0.00000  Uiso   1.00
C107   C     0.31499   0.17783   0.75121   0.00000  Uiso   1.00
C108   C     0.26963   0.19622   0.72021   0.00000  Uiso   1.00
C109   C     0.23579   0.18378   0.79803   0.00000  Uiso   1.00
C110   C     0.38157   0.07862   0.68500   0.00000  Uiso   1.00
C111   C     0.39220   0.01361   0.59832   0.00000  Uiso   1.00
C112   C     0.41441   0.91766   0.62039   0.00000  Uiso   1.00
C113   C     0.38959   0.26642   0.73378   0.00000  Uiso   1.00
C114   C     0.40697   0.35929   0.68811   0.00000  Uiso   1.00
C115   C     0.43594   0.42143   0.75125   0.00000  Uiso   1.00
H116   H     0.38658   0.10884   0.95424   0.00000  Uiso   1.00
H117   H     0.30101   0.11256   0.01535   0.00000  Uiso   1.00
H118   H     0.42356   0.92999   0.89347   0.00000  Uiso   1.00
H119   H     0.43832   0.27561   0.98325   0.00000  Uiso   1.00
H120   H     0.20121   0.12976   0.03678   0.00000  Uiso   1.00
H121   H     0.45964   0.74482   0.77979   0.00000  Uiso   1.00
H122   H     0.49076   0.47363   0.96911   0.00000  Uiso   1.00
H123   H     0.34867   0.20998   0.59742   0.00000  Uiso   1.00
H124   H     0.26101   0.21925   0.63894   0.00000  Uiso   1.00
H125   H     0.38357   0.03667   0.51707   0.00000  Uiso   1.00
H126   H     0.39833   0.38230   0.60685   0.00000  Uiso   1.00
H127   H     0.16875   0.21635   0.73127   0.00000  Uiso   1.00
H128   H     0.42718   0.83141   0.47429   0.00000  Uiso   1.00
H129   H     0.45830   0.56022   0.66361   0.00000  Uiso   1.00
O130   O     0.12800   0.17729   0.91777   0.00000  Uiso   1.00
O131   O     0.46705   0.67227   0.58062   0.00000  Uiso   1.00
O132   O     0.50788   0.62846   0.82901   0.00000  Uiso   1.00
N133   N     0.20560   0.14889   0.95918   0.00000  Uiso   1.00
N134   N     0.44721   0.78898   0.71892   0.00000  Uiso   1.00
N135   N     0.47632   0.47035   0.89591   0.00000  Uiso   1.00
N136   N     0.18813   0.19549   0.79479   0.00000  Uiso   1.00
N137   N     0.42974   0.83558   0.55453   0.00000  Uiso   1.00
N138   N     0.45885   0.51694   0.73152   0.00000  Uiso   1.00
C139   C     0.87956   0.13675   0.35833   0.00000  Uiso   1.00
C140   C     0.82751   0.14093   0.37669   0.00000  Uiso   1.00
C141   C     0.80504   0.11647   0.47179   0.00000  Uiso   1.00
C142   C     0.75722   0.12521   0.47231   0.00000  Uiso   1.00
C143   C     0.68011   0.12677   0.51470   0.00000  Uiso   1.00
C144   C     0.88694   0.06185   0.26345   0.00000  Uiso   1.00
C145   C     0.91445   0.97092   0.26333   0.00000  Uiso   1.00
C146   C     0.91667   0.91311   0.16851   0.00000  Uiso   1.00
C147   C     0.93186   0.79195   0.03505   0.00000  Uiso   1.00
C148   C     0.89342   0.24790   0.31960   0.00000  Uiso   1.00
C149   C     0.92638   0.31339   0.36667   0.00000  Uiso   1.00
C150   C     0.93406   0.41221   0.31911   0.00000  Uiso   1.00
C151   C     0.95931   0.57991   0.27284   0.00000  Uiso   1.00
C152   C     0.83459   0.19577   0.19014   0.00000  Uiso   1.00
C153   C     0.80308   0.17298   0.28534   0.00000  Uiso   1.00
C154   C     0.75528   0.18177   0.28571   0.00000  Uiso   1.00
C155   C     0.73275   0.15733   0.38079   0.00000  Uiso   1.00
C156   C     0.86251   0.09391   0.17209   0.00000  Uiso   1.00
C157   C     0.86470   0.03622   0.07725   0.00000  Uiso   1.00
C158   C     0.89220   0.94522   0.07699   0.00000  Uiso   1.00
C159   C     0.86899   0.27996   0.22824   0.00000  Uiso   1.00
C160   C     0.87662   0.37869   0.18059   0.00000  Uiso   1.00
C161   C     0.90959   0.44432   0.22759   0.00000  Uiso   1.00
H162   H     0.89858   0.11178   0.42945   0.00000  Uiso   1.00
H163   H     0.82395   0.09165   0.54247   0.00000  Uiso   1.00
H164   H     0.93335   0.94613   0.33403   0.00000  Uiso   1.00
H165   H     0.94528   0.28855   0.43736   0.00000  Uiso   1.00
H166   H     0.73045   0.08343   0.62747   0.00000  Uiso   1.00
H167   H     0.96113   0.77662   0.18796   0.00000  Uiso   1.00
H168   H     0.98628   0.49868   0.40586   0.00000  Uiso   1.00
H169   H     0.81557   0.22073   0.11902   0.00000  Uiso   1.00
H170   H     0.73639   0.20658   0.21500   0.00000  Uiso   1.00
H171   H     0.84579   0.06106   0.00657   0.00000  Uiso   1.00
H172   H     0.85772   0.40348   0.10990   0.00000  Uiso   1.00
H173   H     0.65938   0.17671   0.36169   0.00000  Uiso   1.00
H174   H     0.89006   0.86990   0.92218   0.00000  Uiso   1.00
H175   H     0.91521   0.59195   0.14007   0.00000  Uiso   1.00
O176   O     0.64432   0.11876   0.56331   0.00000  Uiso   1.00
O177   O     0.94698   0.71625   0.98669   0.00000  Uiso   1.00
O178   O     0.97997   0.66357   0.27257   0.00000  Uiso   1.00
N179   N     0.72459   0.10735   0.55175   0.00000  Uiso   1.00
N180   N     0.94026   0.82049   0.14084   0.00000  Uiso   1.00
N181   N     0.96378   0.49554   0.34454   0.00000  Uiso   1.00
N182   N     0.68635   0.15754   0.40874   0.00000  Uiso   1.00
N183   N     0.90202   0.87068   0.99783   0.00000  Uiso   1.00
N184   N     0.92554   0.54573   0.20152   0.00000  Uiso   1.00
C185   C     0.12210   0.63202   0.37249   0.00000  Uiso   1.00
C186   C     0.17386   0.64807   0.35622   0.00000  Uiso   1.00
C187   C     0.20764   0.63560   0.43410   0.00000  Uiso   1.00
C188   C     0.25303   0.65396   0.40322   0.00000  Uiso   1.00
C189   C     0.33170   0.67431   0.39391   0.00000  Uiso   1.00
C190   C     0.10727   0.54886   0.29000   0.00000  Uiso   1.00
C191   C     0.08507   0.45299   0.31221   0.00000  Uiso   1.00
C192   C     0.07441   0.38785   0.22558   0.00000  Uiso   1.00
C193   C     0.04967   0.25422   0.11346   0.00000  Uiso   1.00
C194   C     0.09926   0.73665   0.33878   0.00000  Uiso   1.00
C195   C     0.07030   0.79867   0.40200   0.00000  Uiso   1.00
C196   C     0.05289   0.89162   0.35644   0.00000  Uiso   1.00
C197   C     0.01570   0.04956   0.32006   0.00000  Uiso   1.00
C198   C     0.14264   0.68681   0.17917   0.00000  Uiso   1.00
C199   C     0.18501   0.67783   0.25121   0.00000  Uiso   1.00
C200   C     0.23037   0.69622   0.22021   0.00000  Uiso   1.00
C201   C     0.26421   0.68378   0.29803   0.00000  Uiso   1.00
C202   C     0.11843   0.57862   0.18500   0.00000  Uiso   1.00
C203   C     0.10780   0.51361   0.09832   0.00000  Uiso   1.00
C204   C     0.08559   0.41766   0.12039   0.00000  Uiso   1.00
C205   C     0.11041   0.76642   0.23378   0.00000  Uiso   1.00
C206   C     0.09303   0.85929   0.18811   0.00000  Uiso   1.00
C207   C     0.06406   0.92143   0.25125   0.00000  Uiso   1.00
H208   H     0.11342   0.60884   0.45424   0.00000  Uiso   1.00
H209   H     0.19899   0.61256   0.51535   0.00000  Uiso   1.00
H210   H     0.07644   0.42999   0.39347   0.00000  Uiso   1.00
H211   H     0.06168   0.77561   0.48325   0.00000  Uiso   1.00
H212   H     0.29879   0.62976   0.53678   0.00000  Uiso   1.00
H213   H     0.04036   0.24482   0.27979   0.00000  Uiso   1.00
H214   H     0.00924   0.97363   0.46911   0.00000  Uiso   1.00
H215   H     0.15133   0.70998   0.09742   0.00000  Uiso   1.00
H216   H     0.23899   0.71925   0.13894   0.00000  Uiso   1.00
H217   H     0.11643   0.53667   0.01707   0.00000  Uiso   1.00
H218   H     0.10167   0.88230   0.10685   0.00000  Uiso   1.00
H219   H     0.33125   0.71635   0.23127   0.00000  Uiso   1.00
H220   H     0.07282   0.33141   0.97429   0.00000  Uiso   1.00
H221   H     0.04170   0.06022   0.16361   0.00000  Uiso   1.00
O222   O     0.37200   0.67729   0.41777   0.00000  Uiso   1.00
O223   O     0.03295   0.17227   0.08062   0.00000  Uiso   1.00
O224   O     0.99212   0.12846   0.32901   0.00000  Uiso   1.00
N225   N     0.29440   0.64889   0.45918   0.00000  Uiso   1.00
N226   N     0.05279   0.28898   0.21892   0.00000  Uiso   1.00
N227   N     0.02368   0.97035   0.39591   0.00000  Uiso   1.00
N228   N     0.31187   0.69549   0.29479   0.00000  Uiso   1.00
N229   N     0.07026   0.33558   0.05453   0.00000  Uiso   1.00
N230   N     0.04115   0.01694   0.23152   0.00000  Uiso   1.00
C231   C     0.62044   0.63675   0.85833   0.00000  Uiso   1.00
C232   C     0.67249   0.64093   0.87669   0.00000  Uiso   1.00
C233   C     0.69496   0.61647   0.97179   0.00000  Uiso   1.00
C234   C     0.74278   0.62521   0.97231   0.00000  Uiso   1.00
C235   C     0.81989   0.62677   0.01470   0.00000  Uiso   1.00
C236   C     0.61306   0.56185   0.76345   0.00000  Uiso   1.00
C237   C     0.58555   0.47092   0.76333   0.00000  Uiso   1.00
C238   C     0.58333   0.41311   0.66851   0.00000  Uiso   1.00
C239   C     0.56814   0.29195   0.53505   0.00000  Uiso   1.00
C240   C     0.60658   0.74790   0.81960   0.00000  Uiso   1.00
C241   C     0.57362   0.81339   0.86667   0.00000  Uiso   1.00
C242   C     0.56594   0.91221   0.81911   0.00000  Uiso   1.00
C243   C     0.54069   0.07991   0.77284   0.00000  Uiso   1.00
C244   C     0.66541   0.69577   0.69014   0.00000  Uiso   1.00
C245   C     0.69692   0.67298   0.78534   0.00000  Uiso   1.00
C246   C     0.74472   0.68177   0.78571   0.00000  Uiso   1.00
C247   C     0.76725   0.65733   0.88079   0.00000  Uiso   1.00
C248   C     0.63749   0.59391   0.67209   0.00000  Uiso   1.00
C249   C     0.63530   0.53622   0.57725   0.00000  Uiso   1.00
C250   C     0.60780   0.44522   0.57699   0.00000  Uiso   1.00
C251   C     0.63101   0.77996   0.72824   0.00000  Uiso   1.00
C252   C     0.62338   0.87869   0.68059   0.00000  Uiso   1.00
C253   C     0.59041   0.94432   0.72759   0.00000  Uiso   1.00
H254   H     0.60142   0.61178   0.92945   0.00000  Uiso   1.00
H255   H     0.67605   0.59165   0.04247   0.00000  Uiso   1.00
H256   H     0.56665   0.44613   0.83403   0.00000  Uiso   1.00
H257   H     0.55472   0.78855   0.93736   0.00000  Uiso   1.00
H258   H     0.76955   0.58343   0.12747   0.00000  Uiso   1.00
H259   H     0.53887   0.27662   0.68796   0.00000  Uiso   1.00
H260   H     0.51372   0.99868   0.90586   0.00000  Uiso   1.00
H261   H     0.68443   0.72073   0.61902   0.00000  Uiso   1.00
H262   H     0.76361   0.70658   0.71500   0.00000  Uiso   1.00
H263   H     0.65421   0.56106   0.50657   0.00000  Uiso   1.00
H264   H     0.64228   0.90348   0.60990   0.00000  Uiso   1.00
H265   H     0.84062   0.67671   0.86169   0.00000  Uiso   1.00
H266   H     0.60994   0.36990   0.42218   0.00000  Uiso   1.00
H267   H     0.58479   0.09195   0.64007   0.00000  Uiso   1.00
O268   O     0.85568   0.61876   0.06331   0.00000  Uiso   1.00
O269   O     0.55302   0.21625   0.48669   0.00000  Uiso   1.00
O270   O     0.52003   0.16357   0.77257   0.00000  Uiso   1.00
N271   N     0.77541   0.60735   0.05175   0.00000  Uiso   1.00
N272   N     0.55974   0.32049   0.64084   0.00000  Uiso   1.00
N273   N     0.53622   0.99554   0.84454   0.00000  Uiso   1.00
N274   N     0.81365   0.65754   0.90874   0.00000  Uiso   1.00
N275   N     0.59798   0.37068   0.49783   0.00000  Uiso   1.00
N276   N     0.57446   0.04573   0.70152   0.00000  Uiso   1.00
C277   C     0.87790   0.36798   0.87249   0.00000  Uiso   1.00
C278   C     0.82614   0.35193   0.85622   0.00000  Uiso   1.00
C279   C     0.79236   0.36440   0.93410   0.00000  Uiso   1.00
C280   C     0.74697   0.34604   0.90322   0.00000  Uiso   1.00
C281   C     0.66830   0.32569   0.89391   0.00000  Uiso   1.00
C282   C     0.89273   0.45114   0.79000   0.00000  Uiso   1.00
C283   C     0.91493   0.54701   0.81221   0.00000  Uiso   1.00
C284   C     0.92559   0.61215   0.72558   0.00000  Uiso   1.00
C285   C     0.95033   0.74578   0.61346   0.00000  Uiso   1.00
C286   C     0.90074   0.26335   0.83878   0.00000  Uiso   1.00
C287   C     0.92970   0.20133   0.90200   0.00000  Uiso   1.00
C288   C     0.94711   0.10838   0.85644   0.00000  Uiso   1.00
C289   C     0.98430   0.95044   0.82006   0.00000  Uiso   1.00
C290   C     0.85736   0.31319   0.67917   0.00000  Uiso   1.00
C291   C     0.81499   0.32217   0.75121   0.00000  Uiso   1.00
C292   C     0.76963   0.30378   0.72021   0.00000  Uiso   1.00
C293   C     0.73579   0.31622   0.79803   0.00000  Uiso   1.00
C294   C     0.88157   0.42138   0.68500   0.00000  Uiso   1.00
C295   C     0.89220   0.48639   0.59832   0.00000  Uiso   1.00
C296   C     0.91441   0.58234   0.62039   0.00000  Uiso   1.00
C297   C     0.88959   0.23358   0.73378   0.00000  Uiso   1.00
C298   C     0.90697   0.14071   0.68811   0.00000  Uiso   1.00
C299   C     0.93594   0.07857   0.75125   0.00000  Uiso   1.00
H300   H     0.88658   0.39116   0.95424   0.00000  Uiso   1.00
H301   H     0.80101   0.38744   0.01535   0.00000  Uiso   1.00
H302   H     0.92356   0.57001   0.89347   0.00000  Uiso   1.00
H303   H     0.93832   0.22439   0.98325   0.00000  Uiso   1.00
H304   H     0.70121   0.37024   0.03678   0.00000  Uiso   1.00
H305   H     0.95964   0.75518   0.77979   0.00000  Uiso   1.00
H306   H     0.99076   0.02637   0.96911   0.00000  Uiso   1.00
H307   H     0.84867   0.29002   0.59742   0.00000  Uiso   1.00
H308   H     0.76101   0.28075   0.63894   0.00000  Uiso   1.00
H309   H     0.88357   0.46333   0.51707   0.00000  Uiso   1.00
H310   H     0.89833   0.11770   0.60685   0.00000  Uiso   1.00
H311   H     0.66875   0.28365   0.73127   0.00000  Uiso   1.00
H312   H     0.92718   0.66859   0.47429   0.00000  Uiso   1.00
H313   H     0.95830   0.93978   0.66361   0.00000  Uiso   1.00
O314   O     0.62800   0.32271   0.91777   0.00000  Uiso   1.00
O315   O     0.96705   0.82773   0.58062   0.00000  Uiso   1.00
O316   O     0.00788   0.87154   0.82901   0.00000  Uiso   1.00
N317   N     0.70560   0.35111   0.95918   0.00000  Uiso   1.00
N318   N     0.94721   0.71102   0.71892   0.00000  Uiso   1.00
N319   N     0.97632   0.02965   0.89591   0.00000  Uiso   1.00
N320   N     0.68813   0.30451   0.79479   0.00000  Uiso   1.00
N321   N     0.92974   0.66442   0.55453   0.00000  Uiso   1.00
N322   N     0.95885   0.98306   0.73152   0.00000  Uiso   1.00
C323   C     0.37956   0.36325   0.35833   0.00000  Uiso   1.00
C324   C     0.32751   0.35907   0.37669   0.00000  Uiso   1.00
C325   C     0.30504   0.38353   0.47179   0.00000  Uiso   1.00
C326   C     0.25722   0.37479   0.47231   0.00000  Uiso   1.00
C327   C     0.18011   0.37323   0.51470   0.00000  Uiso   1.00
C328   C     0.38694   0.43815   0.26345   0.00000  Uiso   1.00
C329   C     0.41445   0.52908   0.26333   0.00000  Uiso   1.00
C330   C     0.41667   0.58689   0.16851   0.00000  Uiso   1.00
C331   C     0.43186   0.70805   0.03505   0.00000  Uiso   1.00
C332   C     0.39342   0.25210   0.31960   0.00000  Uiso   1.00
C333   C     0.42638   0.18661   0.36667   0.00000  Uiso   1.00
C334   C     0.43406   0.08779   0.31911   0.00000  Uiso   1.00
C335   C     0.45931   0.92009   0.27284   0.00000  Uiso   1.00
C336   C     0.33459   0.30423   0.19014   0.00000  Uiso   1.00
C337   C     0.30308   0.32702   0.28534   0.00000  Uiso   1.00
C338   C     0.25528   0.31823   0.28571   0.00000  Uiso   1.00
C339   C     0.23275   0.34267   0.38079   0.00000  Uiso   1.00
C340   C     0.36251   0.40609   0.17209   0.00000  Uiso   1.00
C341   C     0.36470   0.46378   0.07725   0.00000  Uiso   1.00
C342   C     0.39220   0.55478   0.07699   0.00000  Uiso   1.00
C343   C     0.36899   0.22004   0.22824   0.00000  Uiso   1.00
C344   C     0.37662   0.12131   0.18059   0.00000  Uiso   1.00
C345   C     0.40959   0.05568   0.22759   0.00000  Uiso   1.00
H346   H     0.39858   0.38822   0.42945   0.00000  Uiso   1.00
H347   H     0.32395   0.40835   0.54247   0.00000  Uiso   1.00
H348   H     0.43335   0.55387   0.33403   0.00000  Uiso   1.00
H349   H     0.44528   0.21145   0.43736   0.00000  Uiso   1.00
H350   H     0.23045   0.41657   0.62747   0.00000  Uiso   1.00
H351   H     0.46113   0.72338   0.18796   0.00000  Uiso   1.00
H352   H     0.48628   0.00132   0.40586   0.00000  Uiso   1.00
H353   H     0.31557   0.27927   0.11902   0.00000  Uiso   1.00
H354   H     0.23639   0.29342   0.21500   0.00000  Uiso   1.00
H355   H     0.34579   0.43894   0.00657   0.00000  Uiso   1.00
H356   H     0.35772   0.09652   0.10990   0.00000  Uiso   1.00
H357   H     0.15938   0.32329   0.36169   0.00000  Uiso   1.00
H358   H     0.39006   0.63010   0.92218   0.00000  Uiso   1.00
H359   H     0.41521   0.90805   0.14007   0.00000  Uiso   1.00
O360   O     0.14432   0.38124   0.56331   0.00000  Uiso   1.00
O361   O     0.44698   0.78375   0.98669   0.00000  Uiso   1.00
O362   O     0.47997   0.83643   0.27257   0.00000  Uiso   1.00
N363   N     0.22459   0.39265   0.55175   0.00000  Uiso   1.00
N364   N     0.44026   0.67951   0.14084   0.00000  Uiso   1.00
N365   N     0.46378   0.00446   0.34454   0.00000  Uiso   1.00
N366   N     0.18635   0.34246   0.40874   0.00000  Uiso   1.00
N367   N     0.40202   0.62932   0.99783   0.00000  Uiso   1.00
N368   N     0.42554   0.95427   0.20152   0.00000  Uiso   1.00
