data_job_00952
_audit_creation_date              2018-12-19
_audit_creation_method            'Materials Studio'
_symmetry_space_group_name_H-M    'P1'
_symmetry_Int_Tables_number       1
_symmetry_cell_setting            triclinic
loop_
_symmetry_equiv_pos_as_xyz
  x,y,z
_cell_length_a                    14.5040
_cell_length_b                    19.8710
_cell_length_c                    9.3680
_cell_angle_alpha                 90.0000
_cell_angle_beta                  71.4359
_cell_angle_gamma                 90.0000
loop_
_atom_site_label
_atom_site_type_symbol
_atom_site_fract_x
_atom_site_fract_y
_atom_site_fract_z
_atom_site_U_iso_or_equiv
_atom_site_adp_type
_atom_site_occupancy
C1     C     0.30764   0.11893   0.45978   0.00000  Uiso   1.00
C2     C     0.20512   0.14337   0.54447   0.00000  Uiso   1.00
C3     C     0.18160   0.19565   0.64802   0.00000  Uiso   1.00
C4     C     0.08354   0.21027   0.71328   0.00000  Uiso   1.00
C5     C     0.93527   0.25373   0.85049   0.00000  Uiso   1.00
C6     C     0.30912   0.04411   0.49522   0.00000  Uiso   1.00
C7     C     0.37307   0.01294   0.55734   0.00000  Uiso   1.00
C8     C     0.36255   0.94400   0.58112   0.00000  Uiso   1.00
C9     C     0.37581   0.83336   0.64175   0.00000  Uiso   1.00
C10    C     0.31799   0.12338   0.29289   0.00000  Uiso   1.00
C11    C     0.38941   0.15884   0.18487   0.00000  Uiso   1.00
C12    C     0.38638   0.15663   0.03829   0.00000  Uiso   1.00
C13    C     0.41340   0.16907   0.78478   0.00000  Uiso   1.00
C14    C     0.17529   0.05193   0.39153   0.00000  Uiso   1.00
C15    C     0.13323   0.10697   0.50740   0.00000  Uiso   1.00
C16    C     0.03517   0.12152   0.57252   0.00000  Uiso   1.00
C17    C     0.01152   0.17381   0.67615   0.00000  Uiso   1.00
C18    C     0.23724   0.00772   0.45816   0.00000  Uiso   1.00
C19    C     0.22663   0.93881   0.48183   0.00000  Uiso   1.00
C20    C     0.29054   0.90754   0.54398   0.00000  Uiso   1.00
C21    C     0.24610   0.08699   0.25582   0.00000  Uiso   1.00
C22    C     0.24297   0.08472   0.10937   0.00000  Uiso   1.00
C23    C     0.31436   0.12017   0.00116   0.00000  Uiso   1.00
H24    H     0.36361   0.14725   0.48864   0.00000  Uiso   1.00
H25    H     0.23726   0.22380   0.67669   0.00000  Uiso   1.00
H26    H     0.42869   0.04111   0.58600   0.00000  Uiso   1.00
H27    H     0.44503   0.18700   0.21360   0.00000  Uiso   1.00
H28    H     0.06547   0.29259   0.86887   0.00000  Uiso   1.00
H29    H     0.46914   0.90739   0.67760   0.00000  Uiso   1.00
H30    H     0.50359   0.21502   0.89232   0.00000  Uiso   1.00
H31    H     0.11932   0.02359   0.36267   0.00000  Uiso   1.00
H32    H     0.97956   0.09335   0.54381   0.00000  Uiso   1.00
H33    H     0.17100   0.91066   0.45313   0.00000  Uiso   1.00
H34    H     0.18733   0.05655   0.08073   0.00000  Uiso   1.00
H35    H     0.85631   0.18671   0.76103   0.00000  Uiso   1.00
H36    H     0.25999   0.80151   0.56976   0.00000  Uiso   1.00
H37    H     0.29443   0.10914   0.78448   0.00000  Uiso   1.00
O38    O     0.87335   0.28776   0.93642   0.00000  Uiso   1.00
O39    O     0.40297   0.78239   0.68545   0.00000  Uiso   1.00
O40    O     0.44816   0.18599   0.65519   0.00000  Uiso   1.00
N41    N     0.03542   0.25811   0.81861   0.00000  Uiso   1.00
N42    N     0.41282   0.89797   0.63981   0.00000  Uiso   1.00
N43    N     0.44505   0.18556   0.90563   0.00000  Uiso   1.00
N44    N     0.92288   0.20114   0.76058   0.00000  Uiso   1.00
N45    N     0.30028   0.84100   0.58178   0.00000  Uiso   1.00
N46    N     0.33250   0.12859   0.84760   0.00000  Uiso   1.00
C47    C     0.69236   0.61893   0.04022   0.00000  Uiso   1.00
C48    C     0.79488   0.64337   0.95553   0.00000  Uiso   1.00
C49    C     0.81840   0.69565   0.85198   0.00000  Uiso   1.00
C50    C     0.91646   0.71027   0.78672   0.00000  Uiso   1.00
C51    C     0.06473   0.75373   0.64951   0.00000  Uiso   1.00
C52    C     0.69088   0.54411   0.00478   0.00000  Uiso   1.00
C53    C     0.62693   0.51294   0.94266   0.00000  Uiso   1.00
C54    C     0.63745   0.44400   0.91888   0.00000  Uiso   1.00
C55    C     0.62419   0.33336   0.85825   0.00000  Uiso   1.00
C56    C     0.68201   0.62338   0.20711   0.00000  Uiso   1.00
C57    C     0.61059   0.65884   0.31513   0.00000  Uiso   1.00
C58    C     0.61362   0.65663   0.46171   0.00000  Uiso   1.00
C59    C     0.58660   0.66907   0.71522   0.00000  Uiso   1.00
C60    C     0.82471   0.55193   0.10847   0.00000  Uiso   1.00
C61    C     0.86677   0.60697   0.99260   0.00000  Uiso   1.00
C62    C     0.96483   0.62152   0.92748   0.00000  Uiso   1.00
C63    C     0.98848   0.67381   0.82385   0.00000  Uiso   1.00
C64    C     0.76276   0.50772   0.04184   0.00000  Uiso   1.00
C65    C     0.77337   0.43881   0.01817   0.00000  Uiso   1.00
C66    C     0.70946   0.40754   0.95602   0.00000  Uiso   1.00
C67    C     0.75390   0.58699   0.24418   0.00000  Uiso   1.00
C68    C     0.75703   0.58472   0.39063   0.00000  Uiso   1.00
C69    C     0.68564   0.62017   0.49884   0.00000  Uiso   1.00
H70    H     0.63639   0.64725   0.01136   0.00000  Uiso   1.00
H71    H     0.76274   0.72380   0.82331   0.00000  Uiso   1.00
H72    H     0.57131   0.54111   0.91400   0.00000  Uiso   1.00
H73    H     0.55497   0.68700   0.28640   0.00000  Uiso   1.00
H74    H     0.93453   0.79259   0.63113   0.00000  Uiso   1.00
H75    H     0.53086   0.40739   0.82240   0.00000  Uiso   1.00
H76    H     0.49641   0.71502   0.60768   0.00000  Uiso   1.00
H77    H     0.88068   0.52359   0.13733   0.00000  Uiso   1.00
H78    H     0.02044   0.59335   0.95619   0.00000  Uiso   1.00
H79    H     0.82900   0.41066   0.04687   0.00000  Uiso   1.00
H80    H     0.81267   0.55655   0.41927   0.00000  Uiso   1.00
H81    H     0.14369   0.68671   0.73897   0.00000  Uiso   1.00
H82    H     0.74001   0.30151   0.93024   0.00000  Uiso   1.00
H83    H     0.70557   0.60914   0.71552   0.00000  Uiso   1.00
O84    O     0.12665   0.78776   0.56358   0.00000  Uiso   1.00
O85    O     0.59703   0.28239   0.81455   0.00000  Uiso   1.00
O86    O     0.55184   0.68599   0.84481   0.00000  Uiso   1.00
N87    N     0.96458   0.75811   0.68139   0.00000  Uiso   1.00
N88    N     0.58718   0.39797   0.86019   0.00000  Uiso   1.00
N89    N     0.55495   0.68556   0.59437   0.00000  Uiso   1.00
N90    N     0.07712   0.70114   0.73942   0.00000  Uiso   1.00
N91    N     0.69972   0.34100   0.91822   0.00000  Uiso   1.00
N92    N     0.66750   0.62859   0.65240   0.00000  Uiso   1.00
C93    C     0.69236   0.88107   0.54022   0.00000  Uiso   1.00
C94    C     0.79488   0.85663   0.45553   0.00000  Uiso   1.00
C95    C     0.81840   0.80435   0.35198   0.00000  Uiso   1.00
C96    C     0.91646   0.78973   0.28672   0.00000  Uiso   1.00
C97    C     0.06473   0.74627   0.14951   0.00000  Uiso   1.00
C98    C     0.69088   0.95589   0.50478   0.00000  Uiso   1.00
C99    C     0.62693   0.98706   0.44266   0.00000  Uiso   1.00
C100   C     0.63745   0.05600   0.41888   0.00000  Uiso   1.00
C101   C     0.62419   0.16664   0.35825   0.00000  Uiso   1.00
C102   C     0.68201   0.87662   0.70711   0.00000  Uiso   1.00
C103   C     0.61059   0.84116   0.81513   0.00000  Uiso   1.00
C104   C     0.61362   0.84337   0.96171   0.00000  Uiso   1.00
C105   C     0.58660   0.83093   0.21522   0.00000  Uiso   1.00
C106   C     0.82471   0.94807   0.60847   0.00000  Uiso   1.00
C107   C     0.86677   0.89303   0.49260   0.00000  Uiso   1.00
C108   C     0.96483   0.87848   0.42748   0.00000  Uiso   1.00
C109   C     0.98848   0.82619   0.32385   0.00000  Uiso   1.00
C110   C     0.76276   0.99228   0.54184   0.00000  Uiso   1.00
C111   C     0.77337   0.06119   0.51817   0.00000  Uiso   1.00
C112   C     0.70946   0.09246   0.45602   0.00000  Uiso   1.00
C113   C     0.75390   0.91301   0.74418   0.00000  Uiso   1.00
C114   C     0.75703   0.91528   0.89063   0.00000  Uiso   1.00
C115   C     0.68564   0.87983   0.99884   0.00000  Uiso   1.00
H116   H     0.63639   0.85275   0.51136   0.00000  Uiso   1.00
H117   H     0.76274   0.77620   0.32331   0.00000  Uiso   1.00
H118   H     0.57131   0.95889   0.41400   0.00000  Uiso   1.00
H119   H     0.55497   0.81300   0.78640   0.00000  Uiso   1.00
H120   H     0.93453   0.70741   0.13113   0.00000  Uiso   1.00
H121   H     0.53086   0.09261   0.32240   0.00000  Uiso   1.00
H122   H     0.49641   0.78498   0.10768   0.00000  Uiso   1.00
H123   H     0.88068   0.97641   0.63733   0.00000  Uiso   1.00
H124   H     0.02044   0.90665   0.45619   0.00000  Uiso   1.00
H125   H     0.82900   0.08934   0.54687   0.00000  Uiso   1.00
H126   H     0.81267   0.94345   0.91927   0.00000  Uiso   1.00
H127   H     0.14369   0.81329   0.23897   0.00000  Uiso   1.00
H128   H     0.74001   0.19849   0.43024   0.00000  Uiso   1.00
H129   H     0.70557   0.89086   0.21552   0.00000  Uiso   1.00
O130   O     0.12665   0.71224   0.06358   0.00000  Uiso   1.00
O131   O     0.59703   0.21761   0.31455   0.00000  Uiso   1.00
O132   O     0.55184   0.81401   0.34481   0.00000  Uiso   1.00
N133   N     0.96458   0.74189   0.18139   0.00000  Uiso   1.00
N134   N     0.58718   0.10203   0.36019   0.00000  Uiso   1.00
N135   N     0.55495   0.81444   0.09437   0.00000  Uiso   1.00
N136   N     0.07712   0.79886   0.23942   0.00000  Uiso   1.00
N137   N     0.69972   0.15900   0.41822   0.00000  Uiso   1.00
N138   N     0.66750   0.87141   0.15240   0.00000  Uiso   1.00
C139   C     0.30764   0.38107   0.95978   0.00000  Uiso   1.00
C140   C     0.20512   0.35663   0.04447   0.00000  Uiso   1.00
C141   C     0.18160   0.30435   0.14802   0.00000  Uiso   1.00
C142   C     0.08354   0.28973   0.21328   0.00000  Uiso   1.00
C143   C     0.93527   0.24627   0.35049   0.00000  Uiso   1.00
C144   C     0.30912   0.45589   0.99522   0.00000  Uiso   1.00
C145   C     0.37307   0.48706   0.05734   0.00000  Uiso   1.00
C146   C     0.36255   0.55600   0.08112   0.00000  Uiso   1.00
C147   C     0.37581   0.66664   0.14175   0.00000  Uiso   1.00
C148   C     0.31799   0.37662   0.79289   0.00000  Uiso   1.00
C149   C     0.38941   0.34116   0.68487   0.00000  Uiso   1.00
C150   C     0.38638   0.34337   0.53829   0.00000  Uiso   1.00
C151   C     0.41340   0.33093   0.28478   0.00000  Uiso   1.00
C152   C     0.17529   0.44807   0.89153   0.00000  Uiso   1.00
C153   C     0.13323   0.39303   0.00740   0.00000  Uiso   1.00
C154   C     0.03517   0.37848   0.07252   0.00000  Uiso   1.00
C155   C     0.01152   0.32619   0.17615   0.00000  Uiso   1.00
C156   C     0.23724   0.49228   0.95816   0.00000  Uiso   1.00
C157   C     0.22663   0.56119   0.98183   0.00000  Uiso   1.00
C158   C     0.29054   0.59246   0.04398   0.00000  Uiso   1.00
C159   C     0.24610   0.41301   0.75582   0.00000  Uiso   1.00
C160   C     0.24297   0.41528   0.60937   0.00000  Uiso   1.00
C161   C     0.31436   0.37983   0.50116   0.00000  Uiso   1.00
H162   H     0.36361   0.35275   0.98864   0.00000  Uiso   1.00
H163   H     0.23726   0.27620   0.17669   0.00000  Uiso   1.00
H164   H     0.42869   0.45889   0.08600   0.00000  Uiso   1.00
H165   H     0.44503   0.31300   0.71360   0.00000  Uiso   1.00
H166   H     0.06547   0.20741   0.36887   0.00000  Uiso   1.00
H167   H     0.46914   0.59261   0.17760   0.00000  Uiso   1.00
H168   H     0.50359   0.28498   0.39232   0.00000  Uiso   1.00
H169   H     0.11932   0.47641   0.86267   0.00000  Uiso   1.00
H170   H     0.97956   0.40665   0.04381   0.00000  Uiso   1.00
H171   H     0.17100   0.58934   0.95313   0.00000  Uiso   1.00
H172   H     0.18733   0.44345   0.58073   0.00000  Uiso   1.00
H173   H     0.85631   0.31329   0.26103   0.00000  Uiso   1.00
H174   H     0.25999   0.69849   0.06976   0.00000  Uiso   1.00
H175   H     0.29443   0.39086   0.28448   0.00000  Uiso   1.00
O176   O     0.87335   0.21224   0.43642   0.00000  Uiso   1.00
O177   O     0.40297   0.71761   0.18545   0.00000  Uiso   1.00
O178   O     0.44816   0.31401   0.15519   0.00000  Uiso   1.00
N179   N     0.03542   0.24189   0.31861   0.00000  Uiso   1.00
N180   N     0.41282   0.60203   0.13981   0.00000  Uiso   1.00
N181   N     0.44505   0.31444   0.40563   0.00000  Uiso   1.00
N182   N     0.92288   0.29886   0.26058   0.00000  Uiso   1.00
N183   N     0.30028   0.65900   0.08178   0.00000  Uiso   1.00
N184   N     0.33250   0.37141   0.34760   0.00000  Uiso   1.00
