data_job_03782
_audit_creation_date              2018-12-19
_audit_creation_method            'Materials Studio'
_symmetry_space_group_name_H-M    'P1'
_symmetry_Int_Tables_number       1
_symmetry_cell_setting            triclinic
loop_
_symmetry_equiv_pos_as_xyz
  x,y,z
_cell_length_a                    22.5754
_cell_length_b                    10.1791
_cell_length_c                    23.6091
_cell_angle_alpha                 90.0000
_cell_angle_beta                  101.7600
_cell_angle_gamma                 90.0000
loop_
_atom_site_label
_atom_site_type_symbol
_atom_site_fract_x
_atom_site_fract_y
_atom_site_fract_z
_atom_site_U_iso_or_equiv
_atom_site_adp_type
_atom_site_occupancy
C1     C     0.59094   0.11681   0.83896   0.00000  Uiso   1.00
C2     C     0.64988   0.04436   0.83811   0.00000  Uiso   1.00
C3     C     0.67880   0.03833   0.79164   0.00000  Uiso   1.00
C4     C     0.73228   0.96703   0.79950   0.00000  Uiso   1.00
C5     C     0.82018   0.86405   0.79020   0.00000  Uiso   1.00
C6     C     0.54787   0.01463   0.85516   0.00000  Uiso   1.00
C7     C     0.49101   0.98363   0.82302   0.00000  Uiso   1.00
C8     C     0.45861   0.88731   0.84524   0.00000  Uiso   1.00
C9     C     0.38811   0.73826   0.86242   0.00000  Uiso   1.00
C10    C     0.60493   0.21200   0.88981   0.00000  Uiso   1.00
C11    C     0.59604   0.34693   0.88680   0.00000  Uiso   1.00
C12    C     0.61167   0.41678   0.93820   0.00000  Uiso   1.00
C13    C     0.62977   0.57416   0.00918   0.00000  Uiso   1.00
C14    C     0.63450   0.00091   0.93558   0.00000  Uiso   1.00
C15    C     0.67354   0.98141   0.89059   0.00000  Uiso   1.00
C16    C     0.72699   0.91010   0.89853   0.00000  Uiso   1.00
C17    C     0.75599   0.90397   0.85208   0.00000  Uiso   1.00
C18    C     0.57152   0.95168   0.90764   0.00000  Uiso   1.00
C19    C     0.53920   0.85540   0.92991   0.00000  Uiso   1.00
C20    C     0.48231   0.82424   0.89781   0.00000  Uiso   1.00
C21    C     0.62859   0.14905   0.94229   0.00000  Uiso   1.00
C22    C     0.64424   0.21870   0.99370   0.00000  Uiso   1.00
C23    C     0.63537   0.35371   0.99077   0.00000  Uiso   1.00
H24    H     0.57252   0.16581   0.79810   0.00000  Uiso   1.00
H25    H     0.66047   0.08705   0.75103   0.00000  Uiso   1.00
H26    H     0.47271   0.03237   0.78241   0.00000  Uiso   1.00
H27    H     0.57773   0.39561   0.84618   0.00000  Uiso   1.00
H28    H     0.76841   0.97192   0.72198   0.00000  Uiso   1.00
H29    H     0.37248   0.85665   0.78816   0.00000  Uiso   1.00
H30    H     0.59393   0.62263   0.92264   0.00000  Uiso   1.00
H31    H     0.65292   0.95190   0.97643   0.00000  Uiso   1.00
H32    H     0.74529   0.86140   0.93915   0.00000  Uiso   1.00
H33    H     0.55752   0.80671   0.97053   0.00000  Uiso   1.00
H34    H     0.66254   0.16995   0.03430   0.00000  Uiso   1.00
H35    H     0.83725   0.78877   0.87466   0.00000  Uiso   1.00
H36    H     0.44132   0.67350   0.94084   0.00000  Uiso   1.00
H37    H     0.66277   0.43947   0.07532   0.00000  Uiso   1.00
O38    O     0.86213   0.82463   0.77057   0.00000  Uiso   1.00
O39    O     0.34269   0.67342   0.85740   0.00000  Uiso   1.00
O40    O     0.63323   0.67836   0.03383   0.00000  Uiso   1.00
N41    N     0.77194   0.94126   0.76304   0.00000  Uiso   1.00
N42    N     0.40178   0.83347   0.82490   0.00000  Uiso   1.00
N43    N     0.60880   0.54959   0.95063   0.00000  Uiso   1.00
N44    N     0.80898   0.84271   0.84519   0.00000  Uiso   1.00
N45    N     0.43882   0.73492   0.90706   0.00000  Uiso   1.00
N46    N     0.64584   0.45104   0.03279   0.00000  Uiso   1.00
C47    C     0.09094   0.61681   0.83896   0.00000  Uiso   1.00
C48    C     0.14988   0.54436   0.83811   0.00000  Uiso   1.00
C49    C     0.17880   0.53833   0.79164   0.00000  Uiso   1.00
C50    C     0.23228   0.46703   0.79950   0.00000  Uiso   1.00
C51    C     0.32018   0.36405   0.79020   0.00000  Uiso   1.00
C52    C     0.04787   0.51463   0.85516   0.00000  Uiso   1.00
C53    C     0.99101   0.48363   0.82302   0.00000  Uiso   1.00
C54    C     0.95861   0.38731   0.84524   0.00000  Uiso   1.00
C55    C     0.88811   0.23826   0.86242   0.00000  Uiso   1.00
C56    C     0.10493   0.71200   0.88981   0.00000  Uiso   1.00
C57    C     0.09604   0.84693   0.88680   0.00000  Uiso   1.00
C58    C     0.11167   0.91678   0.93820   0.00000  Uiso   1.00
C59    C     0.12977   0.07416   0.00918   0.00000  Uiso   1.00
C60    C     0.13450   0.50091   0.93558   0.00000  Uiso   1.00
C61    C     0.17354   0.48141   0.89059   0.00000  Uiso   1.00
C62    C     0.22699   0.41010   0.89853   0.00000  Uiso   1.00
C63    C     0.25599   0.40397   0.85208   0.00000  Uiso   1.00
C64    C     0.07152   0.45168   0.90764   0.00000  Uiso   1.00
C65    C     0.03920   0.35540   0.92991   0.00000  Uiso   1.00
C66    C     0.98231   0.32424   0.89781   0.00000  Uiso   1.00
C67    C     0.12859   0.64905   0.94229   0.00000  Uiso   1.00
C68    C     0.14424   0.71870   0.99370   0.00000  Uiso   1.00
C69    C     0.13537   0.85371   0.99077   0.00000  Uiso   1.00
H70    H     0.07252   0.66581   0.79810   0.00000  Uiso   1.00
H71    H     0.16047   0.58705   0.75103   0.00000  Uiso   1.00
H72    H     0.97271   0.53237   0.78241   0.00000  Uiso   1.00
H73    H     0.07773   0.89561   0.84618   0.00000  Uiso   1.00
H74    H     0.26841   0.47192   0.72198   0.00000  Uiso   1.00
H75    H     0.87248   0.35665   0.78816   0.00000  Uiso   1.00
H76    H     0.09393   0.12263   0.92264   0.00000  Uiso   1.00
H77    H     0.15292   0.45190   0.97643   0.00000  Uiso   1.00
H78    H     0.24529   0.36140   0.93915   0.00000  Uiso   1.00
H79    H     0.05752   0.30671   0.97053   0.00000  Uiso   1.00
H80    H     0.16254   0.66995   0.03430   0.00000  Uiso   1.00
H81    H     0.33725   0.28877   0.87466   0.00000  Uiso   1.00
H82    H     0.94132   0.17350   0.94084   0.00000  Uiso   1.00
H83    H     0.16277   0.93947   0.07532   0.00000  Uiso   1.00
O84    O     0.36213   0.32463   0.77057   0.00000  Uiso   1.00
O85    O     0.84269   0.17342   0.85740   0.00000  Uiso   1.00
O86    O     0.13323   0.17836   0.03383   0.00000  Uiso   1.00
N87    N     0.27194   0.44126   0.76304   0.00000  Uiso   1.00
N88    N     0.90178   0.33347   0.82490   0.00000  Uiso   1.00
N89    N     0.10880   0.04959   0.95063   0.00000  Uiso   1.00
N90    N     0.30898   0.34271   0.84519   0.00000  Uiso   1.00
N91    N     0.93882   0.23492   0.90706   0.00000  Uiso   1.00
N92    N     0.14584   0.95104   0.03279   0.00000  Uiso   1.00
C93    C     0.40906   0.11681   0.66104   0.00000  Uiso   1.00
C94    C     0.35012   0.04436   0.66189   0.00000  Uiso   1.00
C95    C     0.32120   0.03833   0.70836   0.00000  Uiso   1.00
C96    C     0.26772   0.96703   0.70050   0.00000  Uiso   1.00
C97    C     0.17982   0.86405   0.70980   0.00000  Uiso   1.00
C98    C     0.45213   0.01463   0.64484   0.00000  Uiso   1.00
C99    C     0.50899   0.98363   0.67698   0.00000  Uiso   1.00
C100   C     0.54139   0.88731   0.65476   0.00000  Uiso   1.00
C101   C     0.61189   0.73826   0.63758   0.00000  Uiso   1.00
C102   C     0.39507   0.21200   0.61019   0.00000  Uiso   1.00
C103   C     0.40396   0.34693   0.61320   0.00000  Uiso   1.00
C104   C     0.38833   0.41678   0.56180   0.00000  Uiso   1.00
C105   C     0.37023   0.57416   0.49082   0.00000  Uiso   1.00
C106   C     0.36550   0.00091   0.56442   0.00000  Uiso   1.00
C107   C     0.32646   0.98141   0.60941   0.00000  Uiso   1.00
C108   C     0.27301   0.91010   0.60147   0.00000  Uiso   1.00
C109   C     0.24401   0.90397   0.64792   0.00000  Uiso   1.00
C110   C     0.42848   0.95168   0.59236   0.00000  Uiso   1.00
C111   C     0.46080   0.85540   0.57009   0.00000  Uiso   1.00
C112   C     0.51769   0.82424   0.60219   0.00000  Uiso   1.00
C113   C     0.37141   0.14905   0.55771   0.00000  Uiso   1.00
C114   C     0.35576   0.21870   0.50630   0.00000  Uiso   1.00
C115   C     0.36463   0.35371   0.50923   0.00000  Uiso   1.00
H116   H     0.42748   0.16581   0.70190   0.00000  Uiso   1.00
H117   H     0.33953   0.08705   0.74897   0.00000  Uiso   1.00
H118   H     0.52729   0.03237   0.71759   0.00000  Uiso   1.00
H119   H     0.42227   0.39561   0.65382   0.00000  Uiso   1.00
H120   H     0.23159   0.97192   0.77802   0.00000  Uiso   1.00
H121   H     0.62752   0.85665   0.71184   0.00000  Uiso   1.00
H122   H     0.40607   0.62263   0.57736   0.00000  Uiso   1.00
H123   H     0.34708   0.95190   0.52357   0.00000  Uiso   1.00
H124   H     0.25471   0.86140   0.56085   0.00000  Uiso   1.00
H125   H     0.44248   0.80671   0.52947   0.00000  Uiso   1.00
H126   H     0.33746   0.16995   0.46570   0.00000  Uiso   1.00
H127   H     0.16275   0.78877   0.62534   0.00000  Uiso   1.00
H128   H     0.55868   0.67350   0.55916   0.00000  Uiso   1.00
H129   H     0.33723   0.43947   0.42468   0.00000  Uiso   1.00
O130   O     0.13787   0.82463   0.72943   0.00000  Uiso   1.00
O131   O     0.65731   0.67342   0.64260   0.00000  Uiso   1.00
O132   O     0.36677   0.67836   0.46617   0.00000  Uiso   1.00
N133   N     0.22806   0.94126   0.73696   0.00000  Uiso   1.00
N134   N     0.59822   0.83347   0.67510   0.00000  Uiso   1.00
N135   N     0.39120   0.54959   0.54937   0.00000  Uiso   1.00
N136   N     0.19102   0.84271   0.65481   0.00000  Uiso   1.00
N137   N     0.56118   0.73492   0.59294   0.00000  Uiso   1.00
N138   N     0.35416   0.45104   0.46721   0.00000  Uiso   1.00
C139   C     0.90906   0.61681   0.66104   0.00000  Uiso   1.00
C140   C     0.85012   0.54436   0.66189   0.00000  Uiso   1.00
C141   C     0.82120   0.53833   0.70836   0.00000  Uiso   1.00
C142   C     0.76772   0.46703   0.70050   0.00000  Uiso   1.00
C143   C     0.67982   0.36405   0.70980   0.00000  Uiso   1.00
C144   C     0.95213   0.51463   0.64484   0.00000  Uiso   1.00
C145   C     0.00899   0.48363   0.67698   0.00000  Uiso   1.00
C146   C     0.04139   0.38731   0.65476   0.00000  Uiso   1.00
C147   C     0.11189   0.23826   0.63758   0.00000  Uiso   1.00
C148   C     0.89507   0.71200   0.61019   0.00000  Uiso   1.00
C149   C     0.90396   0.84693   0.61320   0.00000  Uiso   1.00
C150   C     0.88833   0.91678   0.56180   0.00000  Uiso   1.00
C151   C     0.87023   0.07416   0.49082   0.00000  Uiso   1.00
C152   C     0.86550   0.50091   0.56442   0.00000  Uiso   1.00
C153   C     0.82646   0.48141   0.60941   0.00000  Uiso   1.00
C154   C     0.77301   0.41010   0.60147   0.00000  Uiso   1.00
C155   C     0.74401   0.40397   0.64792   0.00000  Uiso   1.00
C156   C     0.92848   0.45168   0.59236   0.00000  Uiso   1.00
C157   C     0.96080   0.35540   0.57009   0.00000  Uiso   1.00
C158   C     0.01769   0.32424   0.60219   0.00000  Uiso   1.00
C159   C     0.87141   0.64905   0.55771   0.00000  Uiso   1.00
C160   C     0.85576   0.71870   0.50630   0.00000  Uiso   1.00
C161   C     0.86463   0.85371   0.50923   0.00000  Uiso   1.00
H162   H     0.92748   0.66581   0.70190   0.00000  Uiso   1.00
H163   H     0.83953   0.58705   0.74897   0.00000  Uiso   1.00
H164   H     0.02729   0.53237   0.71759   0.00000  Uiso   1.00
H165   H     0.92227   0.89561   0.65382   0.00000  Uiso   1.00
H166   H     0.73159   0.47192   0.77802   0.00000  Uiso   1.00
H167   H     0.12752   0.35665   0.71184   0.00000  Uiso   1.00
H168   H     0.90607   0.12263   0.57736   0.00000  Uiso   1.00
H169   H     0.84708   0.45190   0.52357   0.00000  Uiso   1.00
H170   H     0.75471   0.36140   0.56085   0.00000  Uiso   1.00
H171   H     0.94248   0.30671   0.52947   0.00000  Uiso   1.00
H172   H     0.83746   0.66995   0.46570   0.00000  Uiso   1.00
H173   H     0.66275   0.28877   0.62534   0.00000  Uiso   1.00
H174   H     0.05868   0.17350   0.55916   0.00000  Uiso   1.00
H175   H     0.83723   0.93947   0.42468   0.00000  Uiso   1.00
O176   O     0.63787   0.32463   0.72943   0.00000  Uiso   1.00
O177   O     0.15731   0.17342   0.64260   0.00000  Uiso   1.00
O178   O     0.86677   0.17836   0.46617   0.00000  Uiso   1.00
N179   N     0.72806   0.44126   0.73696   0.00000  Uiso   1.00
N180   N     0.09822   0.33347   0.67510   0.00000  Uiso   1.00
N181   N     0.89120   0.04959   0.54937   0.00000  Uiso   1.00
N182   N     0.69102   0.34271   0.65481   0.00000  Uiso   1.00
N183   N     0.06118   0.23492   0.59294   0.00000  Uiso   1.00
N184   N     0.85416   0.95104   0.46721   0.00000  Uiso   1.00
C185   C     0.40906   0.88319   0.16104   0.00000  Uiso   1.00
C186   C     0.35012   0.95564   0.16189   0.00000  Uiso   1.00
C187   C     0.32120   0.96167   0.20836   0.00000  Uiso   1.00
C188   C     0.26772   0.03297   0.20050   0.00000  Uiso   1.00
C189   C     0.17982   0.13595   0.20980   0.00000  Uiso   1.00
C190   C     0.45213   0.98537   0.14484   0.00000  Uiso   1.00
C191   C     0.50899   0.01637   0.17698   0.00000  Uiso   1.00
C192   C     0.54139   0.11269   0.15476   0.00000  Uiso   1.00
C193   C     0.61189   0.26174   0.13758   0.00000  Uiso   1.00
C194   C     0.39507   0.78800   0.11019   0.00000  Uiso   1.00
C195   C     0.40396   0.65307   0.11320   0.00000  Uiso   1.00
C196   C     0.38833   0.58322   0.06180   0.00000  Uiso   1.00
C197   C     0.37023   0.42584   0.99082   0.00000  Uiso   1.00
C198   C     0.36550   0.99909   0.06442   0.00000  Uiso   1.00
C199   C     0.32646   0.01859   0.10941   0.00000  Uiso   1.00
C200   C     0.27301   0.08990   0.10147   0.00000  Uiso   1.00
C201   C     0.24401   0.09603   0.14792   0.00000  Uiso   1.00
C202   C     0.42848   0.04832   0.09236   0.00000  Uiso   1.00
C203   C     0.46080   0.14460   0.07009   0.00000  Uiso   1.00
C204   C     0.51769   0.17576   0.10219   0.00000  Uiso   1.00
C205   C     0.37141   0.85095   0.05771   0.00000  Uiso   1.00
C206   C     0.35576   0.78130   0.00630   0.00000  Uiso   1.00
C207   C     0.36463   0.64629   0.00923   0.00000  Uiso   1.00
H208   H     0.42748   0.83419   0.20190   0.00000  Uiso   1.00
H209   H     0.33953   0.91295   0.24897   0.00000  Uiso   1.00
H210   H     0.52729   0.96763   0.21759   0.00000  Uiso   1.00
H211   H     0.42227   0.60439   0.15382   0.00000  Uiso   1.00
H212   H     0.23159   0.02808   0.27802   0.00000  Uiso   1.00
H213   H     0.62752   0.14335   0.21184   0.00000  Uiso   1.00
H214   H     0.40607   0.37737   0.07736   0.00000  Uiso   1.00
H215   H     0.34708   0.04810   0.02357   0.00000  Uiso   1.00
H216   H     0.25471   0.13860   0.06085   0.00000  Uiso   1.00
H217   H     0.44248   0.19329   0.02947   0.00000  Uiso   1.00
H218   H     0.33746   0.83005   0.96570   0.00000  Uiso   1.00
H219   H     0.16275   0.21123   0.12534   0.00000  Uiso   1.00
H220   H     0.55868   0.32650   0.05916   0.00000  Uiso   1.00
H221   H     0.33723   0.56053   0.92468   0.00000  Uiso   1.00
O222   O     0.13787   0.17537   0.22943   0.00000  Uiso   1.00
O223   O     0.65731   0.32658   0.14260   0.00000  Uiso   1.00
O224   O     0.36677   0.32164   0.96617   0.00000  Uiso   1.00
N225   N     0.22806   0.05874   0.23696   0.00000  Uiso   1.00
N226   N     0.59822   0.16653   0.17510   0.00000  Uiso   1.00
N227   N     0.39120   0.45041   0.04937   0.00000  Uiso   1.00
N228   N     0.19102   0.15729   0.15481   0.00000  Uiso   1.00
N229   N     0.56118   0.26508   0.09294   0.00000  Uiso   1.00
N230   N     0.35416   0.54896   0.96721   0.00000  Uiso   1.00
C231   C     0.90906   0.38319   0.16104   0.00000  Uiso   1.00
C232   C     0.85012   0.45564   0.16189   0.00000  Uiso   1.00
C233   C     0.82120   0.46167   0.20836   0.00000  Uiso   1.00
C234   C     0.76772   0.53297   0.20050   0.00000  Uiso   1.00
C235   C     0.67982   0.63595   0.20980   0.00000  Uiso   1.00
C236   C     0.95213   0.48537   0.14484   0.00000  Uiso   1.00
C237   C     0.00899   0.51637   0.17698   0.00000  Uiso   1.00
C238   C     0.04139   0.61269   0.15476   0.00000  Uiso   1.00
C239   C     0.11189   0.76174   0.13758   0.00000  Uiso   1.00
C240   C     0.89507   0.28800   0.11019   0.00000  Uiso   1.00
C241   C     0.90396   0.15307   0.11320   0.00000  Uiso   1.00
C242   C     0.88833   0.08322   0.06180   0.00000  Uiso   1.00
C243   C     0.87023   0.92584   0.99082   0.00000  Uiso   1.00
C244   C     0.86550   0.49909   0.06442   0.00000  Uiso   1.00
C245   C     0.82646   0.51859   0.10941   0.00000  Uiso   1.00
C246   C     0.77301   0.58990   0.10147   0.00000  Uiso   1.00
C247   C     0.74401   0.59603   0.14792   0.00000  Uiso   1.00
C248   C     0.92848   0.54832   0.09236   0.00000  Uiso   1.00
C249   C     0.96080   0.64460   0.07009   0.00000  Uiso   1.00
C250   C     0.01769   0.67576   0.10219   0.00000  Uiso   1.00
C251   C     0.87141   0.35095   0.05771   0.00000  Uiso   1.00
C252   C     0.85576   0.28130   0.00630   0.00000  Uiso   1.00
C253   C     0.86463   0.14629   0.00923   0.00000  Uiso   1.00
H254   H     0.92748   0.33419   0.20190   0.00000  Uiso   1.00
H255   H     0.83953   0.41295   0.24897   0.00000  Uiso   1.00
H256   H     0.02729   0.46763   0.21759   0.00000  Uiso   1.00
H257   H     0.92227   0.10439   0.15382   0.00000  Uiso   1.00
H258   H     0.73159   0.52808   0.27802   0.00000  Uiso   1.00
H259   H     0.12752   0.64335   0.21184   0.00000  Uiso   1.00
H260   H     0.90607   0.87737   0.07736   0.00000  Uiso   1.00
H261   H     0.84708   0.54810   0.02357   0.00000  Uiso   1.00
H262   H     0.75471   0.63860   0.06085   0.00000  Uiso   1.00
H263   H     0.94248   0.69329   0.02947   0.00000  Uiso   1.00
H264   H     0.83746   0.33005   0.96570   0.00000  Uiso   1.00
H265   H     0.66275   0.71123   0.12534   0.00000  Uiso   1.00
H266   H     0.05868   0.82650   0.05916   0.00000  Uiso   1.00
H267   H     0.83723   0.06053   0.92468   0.00000  Uiso   1.00
O268   O     0.63787   0.67537   0.22943   0.00000  Uiso   1.00
O269   O     0.15731   0.82658   0.14260   0.00000  Uiso   1.00
O270   O     0.86677   0.82164   0.96617   0.00000  Uiso   1.00
N271   N     0.72806   0.55874   0.23696   0.00000  Uiso   1.00
N272   N     0.09822   0.66653   0.17510   0.00000  Uiso   1.00
N273   N     0.89120   0.95041   0.04937   0.00000  Uiso   1.00
N274   N     0.69102   0.65729   0.15481   0.00000  Uiso   1.00
N275   N     0.06118   0.76508   0.09294   0.00000  Uiso   1.00
N276   N     0.85416   0.04896   0.96721   0.00000  Uiso   1.00
C277   C     0.59094   0.88319   0.33896   0.00000  Uiso   1.00
C278   C     0.64988   0.95564   0.33811   0.00000  Uiso   1.00
C279   C     0.67880   0.96167   0.29164   0.00000  Uiso   1.00
C280   C     0.73228   0.03297   0.29950   0.00000  Uiso   1.00
C281   C     0.82018   0.13595   0.29020   0.00000  Uiso   1.00
C282   C     0.54787   0.98537   0.35516   0.00000  Uiso   1.00
C283   C     0.49101   0.01637   0.32302   0.00000  Uiso   1.00
C284   C     0.45861   0.11269   0.34524   0.00000  Uiso   1.00
C285   C     0.38811   0.26174   0.36242   0.00000  Uiso   1.00
C286   C     0.60493   0.78800   0.38981   0.00000  Uiso   1.00
C287   C     0.59604   0.65307   0.38680   0.00000  Uiso   1.00
C288   C     0.61167   0.58322   0.43820   0.00000  Uiso   1.00
C289   C     0.62977   0.42584   0.50918   0.00000  Uiso   1.00
C290   C     0.63450   0.99909   0.43558   0.00000  Uiso   1.00
C291   C     0.67354   0.01859   0.39059   0.00000  Uiso   1.00
C292   C     0.72699   0.08990   0.39853   0.00000  Uiso   1.00
C293   C     0.75599   0.09603   0.35208   0.00000  Uiso   1.00
C294   C     0.57152   0.04832   0.40764   0.00000  Uiso   1.00
C295   C     0.53920   0.14460   0.42991   0.00000  Uiso   1.00
C296   C     0.48231   0.17576   0.39781   0.00000  Uiso   1.00
C297   C     0.62859   0.85095   0.44229   0.00000  Uiso   1.00
C298   C     0.64424   0.78130   0.49370   0.00000  Uiso   1.00
C299   C     0.63537   0.64629   0.49077   0.00000  Uiso   1.00
H300   H     0.57252   0.83419   0.29810   0.00000  Uiso   1.00
H301   H     0.66047   0.91295   0.25103   0.00000  Uiso   1.00
H302   H     0.47271   0.96763   0.28241   0.00000  Uiso   1.00
H303   H     0.57773   0.60439   0.34618   0.00000  Uiso   1.00
H304   H     0.76841   0.02808   0.22198   0.00000  Uiso   1.00
H305   H     0.37248   0.14335   0.28816   0.00000  Uiso   1.00
H306   H     0.59393   0.37737   0.42264   0.00000  Uiso   1.00
H307   H     0.65292   0.04810   0.47643   0.00000  Uiso   1.00
H308   H     0.74529   0.13860   0.43915   0.00000  Uiso   1.00
H309   H     0.55752   0.19329   0.47053   0.00000  Uiso   1.00
H310   H     0.66254   0.83005   0.53430   0.00000  Uiso   1.00
H311   H     0.83725   0.21123   0.37466   0.00000  Uiso   1.00
H312   H     0.44132   0.32650   0.44084   0.00000  Uiso   1.00
H313   H     0.66277   0.56053   0.57532   0.00000  Uiso   1.00
O314   O     0.86213   0.17537   0.27057   0.00000  Uiso   1.00
O315   O     0.34269   0.32658   0.35740   0.00000  Uiso   1.00
O316   O     0.63323   0.32164   0.53383   0.00000  Uiso   1.00
N317   N     0.77194   0.05874   0.26304   0.00000  Uiso   1.00
N318   N     0.40178   0.16653   0.32490   0.00000  Uiso   1.00
N319   N     0.60880   0.45041   0.45063   0.00000  Uiso   1.00
N320   N     0.80898   0.15729   0.34519   0.00000  Uiso   1.00
N321   N     0.43882   0.26508   0.40706   0.00000  Uiso   1.00
N322   N     0.64584   0.54896   0.53279   0.00000  Uiso   1.00
C323   C     0.09094   0.38319   0.33896   0.00000  Uiso   1.00
C324   C     0.14988   0.45564   0.33811   0.00000  Uiso   1.00
C325   C     0.17880   0.46167   0.29164   0.00000  Uiso   1.00
C326   C     0.23228   0.53297   0.29950   0.00000  Uiso   1.00
C327   C     0.32018   0.63595   0.29020   0.00000  Uiso   1.00
C328   C     0.04787   0.48537   0.35516   0.00000  Uiso   1.00
C329   C     0.99101   0.51637   0.32302   0.00000  Uiso   1.00
C330   C     0.95861   0.61269   0.34524   0.00000  Uiso   1.00
C331   C     0.88811   0.76174   0.36242   0.00000  Uiso   1.00
C332   C     0.10493   0.28800   0.38981   0.00000  Uiso   1.00
C333   C     0.09604   0.15307   0.38680   0.00000  Uiso   1.00
C334   C     0.11167   0.08322   0.43820   0.00000  Uiso   1.00
C335   C     0.12977   0.92584   0.50918   0.00000  Uiso   1.00
C336   C     0.13450   0.49909   0.43558   0.00000  Uiso   1.00
C337   C     0.17354   0.51859   0.39059   0.00000  Uiso   1.00
C338   C     0.22699   0.58990   0.39853   0.00000  Uiso   1.00
C339   C     0.25599   0.59603   0.35208   0.00000  Uiso   1.00
C340   C     0.07152   0.54832   0.40764   0.00000  Uiso   1.00
C341   C     0.03920   0.64460   0.42991   0.00000  Uiso   1.00
C342   C     0.98231   0.67576   0.39781   0.00000  Uiso   1.00
C343   C     0.12859   0.35095   0.44229   0.00000  Uiso   1.00
C344   C     0.14424   0.28130   0.49370   0.00000  Uiso   1.00
C345   C     0.13537   0.14629   0.49077   0.00000  Uiso   1.00
H346   H     0.07252   0.33419   0.29810   0.00000  Uiso   1.00
H347   H     0.16047   0.41295   0.25103   0.00000  Uiso   1.00
H348   H     0.97271   0.46763   0.28241   0.00000  Uiso   1.00
H349   H     0.07773   0.10439   0.34618   0.00000  Uiso   1.00
H350   H     0.26841   0.52808   0.22198   0.00000  Uiso   1.00
H351   H     0.87248   0.64335   0.28816   0.00000  Uiso   1.00
H352   H     0.09393   0.87737   0.42264   0.00000  Uiso   1.00
H353   H     0.15292   0.54810   0.47643   0.00000  Uiso   1.00
H354   H     0.24529   0.63860   0.43915   0.00000  Uiso   1.00
H355   H     0.05752   0.69329   0.47053   0.00000  Uiso   1.00
H356   H     0.16254   0.33005   0.53430   0.00000  Uiso   1.00
H357   H     0.33725   0.71123   0.37466   0.00000  Uiso   1.00
H358   H     0.94132   0.82650   0.44084   0.00000  Uiso   1.00
H359   H     0.16277   0.06053   0.57532   0.00000  Uiso   1.00
O360   O     0.36213   0.67537   0.27057   0.00000  Uiso   1.00
O361   O     0.84269   0.82658   0.35740   0.00000  Uiso   1.00
O362   O     0.13323   0.82164   0.53383   0.00000  Uiso   1.00
N363   N     0.27194   0.55874   0.26304   0.00000  Uiso   1.00
N364   N     0.90178   0.66653   0.32490   0.00000  Uiso   1.00
N365   N     0.10880   0.95041   0.45063   0.00000  Uiso   1.00
N366   N     0.30898   0.65729   0.34519   0.00000  Uiso   1.00
N367   N     0.93882   0.76508   0.40706   0.00000  Uiso   1.00
N368   N     0.14584   0.04896   0.53279   0.00000  Uiso   1.00
