data_job_01287
_audit_creation_date              2018-12-19
_audit_creation_method            'Materials Studio'
_symmetry_space_group_name_H-M    'P1'
_symmetry_Int_Tables_number       1
_symmetry_cell_setting            triclinic
loop_
_symmetry_equiv_pos_as_xyz
  x,y,z
_cell_length_a                    19.2023
_cell_length_b                    10.9581
_cell_length_c                    24.6513
_cell_angle_alpha                 90.0000
_cell_angle_beta                  90.0000
_cell_angle_gamma                 90.0000
loop_
_atom_site_label
_atom_site_type_symbol
_atom_site_fract_x
_atom_site_fract_y
_atom_site_fract_z
_atom_site_U_iso_or_equiv
_atom_site_adp_type
_atom_site_occupancy
C1     C     0.05344   0.29068   0.92907   0.00000  Uiso   1.00
C2     C     0.00504   0.19412   0.90536   0.00000  Uiso   1.00
C3     C     0.94109   0.15956   0.92661   0.00000  Uiso   1.00
C4     C     0.90470   0.06950   0.89893   0.00000  Uiso   1.00
C5     C     0.82550   0.92765   0.86931   0.00000  Uiso   1.00
C6     C     0.12311   0.22726   0.93840   0.00000  Uiso   1.00
C7     C     0.15843   0.22058   0.98742   0.00000  Uiso   1.00
C8     C     0.22144   0.15843   0.98755   0.00000  Uiso   1.00
C9     C     0.32557   0.06811   0.00921   0.00000  Uiso   1.00
C10    C     0.06583   0.38319   0.88388   0.00000  Uiso   1.00
C11    C     0.05302   0.50762   0.88708   0.00000  Uiso   1.00
C12    C     0.06783   0.57677   0.84131   0.00000  Uiso   1.00
C13    C     0.08303   0.72855   0.77832   0.00000  Uiso   1.00
C14    C     0.10254   0.19221   0.84212   0.00000  Uiso   1.00
C15    C     0.03171   0.14063   0.85813   0.00000  Uiso   1.00
C16    C     0.99541   0.05061   0.83041   0.00000  Uiso   1.00
C17    C     0.93141   0.01592   0.85162   0.00000  Uiso   1.00
C18    C     0.14978   0.17377   0.89117   0.00000  Uiso   1.00
C19    C     0.21275   0.11163   0.89122   0.00000  Uiso   1.00
C20    C     0.24816   0.10485   0.94024   0.00000  Uiso   1.00
C21    C     0.09250   0.32970   0.83665   0.00000  Uiso   1.00
C22    C     0.10734   0.39867   0.79087   0.00000  Uiso   1.00
C23    C     0.09454   0.52318   0.79399   0.00000  Uiso   1.00
H24    H     0.03268   0.33232   0.96585   0.00000  Uiso   1.00
H25    H     0.92047   0.20096   0.96317   0.00000  Uiso   1.00
H26    H     0.13778   0.26198   0.02396   0.00000  Uiso   1.00
H27    H     0.03238   0.54898   0.92363   0.00000  Uiso   1.00
H28    H     0.80783   0.03170   0.93938   0.00000  Uiso   1.00
H29    H     0.26606   0.16041   0.06757   0.00000  Uiso   1.00
H30    H     0.04381   0.76560   0.85600   0.00000  Uiso   1.00
H31    H     0.12331   0.15057   0.80535   0.00000  Uiso   1.00
H32    H     0.01606   0.00923   0.79387   0.00000  Uiso   1.00
H33    H     0.23338   0.07026   0.85467   0.00000  Uiso   1.00
H34    H     0.12797   0.35725   0.75433   0.00000  Uiso   1.00
H35    H     0.88541   0.87609   0.80197   0.00000  Uiso   1.00
H36    H     0.34365   0.00480   0.93016   0.00000  Uiso   1.00
H37    H     0.12139   0.60998   0.71859   0.00000  Uiso   1.00
O38    O     0.77445   0.86417   0.86603   0.00000  Uiso   1.00
O39    O     0.37564   0.03305   0.03421   0.00000  Uiso   1.00
O40    O     0.08404   0.82704   0.75663   0.00000  Uiso   1.00
N41    N     0.84080   0.01449   0.90861   0.00000  Uiso   1.00
N42    N     0.26922   0.13481   0.02847   0.00000  Uiso   1.00
N43    N     0.06144   0.70062   0.83067   0.00000  Uiso   1.00
N44    N     0.88255   0.93076   0.83467   0.00000  Uiso   1.00
N45    N     0.31096   0.05107   0.95453   0.00000  Uiso   1.00
N46    N     0.10319   0.61688   0.75673   0.00000  Uiso   1.00
C47    C     0.44656   0.20932   0.42907   0.00000  Uiso   1.00
C48    C     0.49496   0.30588   0.40536   0.00000  Uiso   1.00
C49    C     0.55891   0.34044   0.42661   0.00000  Uiso   1.00
C50    C     0.59530   0.43050   0.39893   0.00000  Uiso   1.00
C51    C     0.67450   0.57235   0.36931   0.00000  Uiso   1.00
C52    C     0.37689   0.27274   0.43840   0.00000  Uiso   1.00
C53    C     0.34157   0.27942   0.48742   0.00000  Uiso   1.00
C54    C     0.27856   0.34157   0.48755   0.00000  Uiso   1.00
C55    C     0.17443   0.43189   0.50921   0.00000  Uiso   1.00
C56    C     0.43417   0.11681   0.38388   0.00000  Uiso   1.00
C57    C     0.44698   0.99238   0.38708   0.00000  Uiso   1.00
C58    C     0.43217   0.92323   0.34131   0.00000  Uiso   1.00
C59    C     0.41697   0.77145   0.27832   0.00000  Uiso   1.00
C60    C     0.39746   0.30779   0.34212   0.00000  Uiso   1.00
C61    C     0.46829   0.35937   0.35813   0.00000  Uiso   1.00
C62    C     0.50459   0.44939   0.33041   0.00000  Uiso   1.00
C63    C     0.56859   0.48408   0.35162   0.00000  Uiso   1.00
C64    C     0.35022   0.32623   0.39117   0.00000  Uiso   1.00
C65    C     0.28725   0.38837   0.39122   0.00000  Uiso   1.00
C66    C     0.25184   0.39515   0.44024   0.00000  Uiso   1.00
C67    C     0.40750   0.17030   0.33665   0.00000  Uiso   1.00
C68    C     0.39266   0.10133   0.29087   0.00000  Uiso   1.00
C69    C     0.40546   0.97682   0.29399   0.00000  Uiso   1.00
H70    H     0.46732   0.16768   0.46585   0.00000  Uiso   1.00
H71    H     0.57953   0.29904   0.46317   0.00000  Uiso   1.00
H72    H     0.36222   0.23802   0.52396   0.00000  Uiso   1.00
H73    H     0.46762   0.95102   0.42363   0.00000  Uiso   1.00
H74    H     0.69217   0.46830   0.43938   0.00000  Uiso   1.00
H75    H     0.23394   0.33959   0.56757   0.00000  Uiso   1.00
H76    H     0.45619   0.73440   0.35600   0.00000  Uiso   1.00
H77    H     0.37669   0.34943   0.30535   0.00000  Uiso   1.00
H78    H     0.48394   0.49077   0.29387   0.00000  Uiso   1.00
H79    H     0.26662   0.42974   0.35467   0.00000  Uiso   1.00
H80    H     0.37203   0.14275   0.25433   0.00000  Uiso   1.00
H81    H     0.61459   0.62391   0.30197   0.00000  Uiso   1.00
H82    H     0.15635   0.49520   0.43016   0.00000  Uiso   1.00
H83    H     0.37861   0.89002   0.21859   0.00000  Uiso   1.00
O84    O     0.72555   0.63583   0.36603   0.00000  Uiso   1.00
O85    O     0.12436   0.46695   0.53421   0.00000  Uiso   1.00
O86    O     0.41596   0.67296   0.25663   0.00000  Uiso   1.00
N87    N     0.65920   0.48551   0.40861   0.00000  Uiso   1.00
N88    N     0.23078   0.36519   0.52847   0.00000  Uiso   1.00
N89    N     0.43856   0.79938   0.33067   0.00000  Uiso   1.00
N90    N     0.61745   0.56924   0.33467   0.00000  Uiso   1.00
N91    N     0.18904   0.44893   0.45453   0.00000  Uiso   1.00
N92    N     0.39681   0.88312   0.25673   0.00000  Uiso   1.00
C93    C     0.94656   0.29068   0.57093   0.00000  Uiso   1.00
C94    C     0.99496   0.19412   0.59464   0.00000  Uiso   1.00
C95    C     0.05891   0.15956   0.57339   0.00000  Uiso   1.00
C96    C     0.09530   0.06950   0.60107   0.00000  Uiso   1.00
C97    C     0.17450   0.92765   0.63069   0.00000  Uiso   1.00
C98    C     0.87689   0.22726   0.56160   0.00000  Uiso   1.00
C99    C     0.84157   0.22058   0.51258   0.00000  Uiso   1.00
C100   C     0.77856   0.15843   0.51245   0.00000  Uiso   1.00
C101   C     0.67443   0.06811   0.49079   0.00000  Uiso   1.00
C102   C     0.93417   0.38319   0.61612   0.00000  Uiso   1.00
C103   C     0.94698   0.50762   0.61292   0.00000  Uiso   1.00
C104   C     0.93217   0.57677   0.65869   0.00000  Uiso   1.00
C105   C     0.91697   0.72855   0.72168   0.00000  Uiso   1.00
C106   C     0.89746   0.19221   0.65788   0.00000  Uiso   1.00
C107   C     0.96829   0.14063   0.64187   0.00000  Uiso   1.00
C108   C     0.00459   0.05061   0.66959   0.00000  Uiso   1.00
C109   C     0.06859   0.01592   0.64838   0.00000  Uiso   1.00
C110   C     0.85022   0.17377   0.60883   0.00000  Uiso   1.00
C111   C     0.78725   0.11163   0.60878   0.00000  Uiso   1.00
C112   C     0.75184   0.10485   0.55976   0.00000  Uiso   1.00
C113   C     0.90750   0.32970   0.66335   0.00000  Uiso   1.00
C114   C     0.89266   0.39867   0.70913   0.00000  Uiso   1.00
C115   C     0.90546   0.52318   0.70601   0.00000  Uiso   1.00
H116   H     0.96732   0.33232   0.53415   0.00000  Uiso   1.00
H117   H     0.07953   0.20096   0.53683   0.00000  Uiso   1.00
H118   H     0.86222   0.26198   0.47604   0.00000  Uiso   1.00
H119   H     0.96762   0.54898   0.57637   0.00000  Uiso   1.00
H120   H     0.19217   0.03170   0.56062   0.00000  Uiso   1.00
H121   H     0.73394   0.16041   0.43243   0.00000  Uiso   1.00
H122   H     0.95619   0.76560   0.64400   0.00000  Uiso   1.00
H123   H     0.87669   0.15057   0.69465   0.00000  Uiso   1.00
H124   H     0.98394   0.00923   0.70613   0.00000  Uiso   1.00
H125   H     0.76662   0.07026   0.64533   0.00000  Uiso   1.00
H126   H     0.87203   0.35725   0.74567   0.00000  Uiso   1.00
H127   H     0.11459   0.87609   0.69803   0.00000  Uiso   1.00
H128   H     0.65635   0.00480   0.56984   0.00000  Uiso   1.00
H129   H     0.87861   0.60998   0.78141   0.00000  Uiso   1.00
O130   O     0.22555   0.86417   0.63397   0.00000  Uiso   1.00
O131   O     0.62436   0.03305   0.46579   0.00000  Uiso   1.00
O132   O     0.91596   0.82704   0.74337   0.00000  Uiso   1.00
N133   N     0.15920   0.01449   0.59139   0.00000  Uiso   1.00
N134   N     0.73078   0.13481   0.47153   0.00000  Uiso   1.00
N135   N     0.93856   0.70062   0.66933   0.00000  Uiso   1.00
N136   N     0.11745   0.93076   0.66533   0.00000  Uiso   1.00
N137   N     0.68904   0.05107   0.54547   0.00000  Uiso   1.00
N138   N     0.89681   0.61688   0.74327   0.00000  Uiso   1.00
C139   C     0.55344   0.20932   0.07093   0.00000  Uiso   1.00
C140   C     0.50504   0.30588   0.09464   0.00000  Uiso   1.00
C141   C     0.44109   0.34044   0.07339   0.00000  Uiso   1.00
C142   C     0.40470   0.43050   0.10107   0.00000  Uiso   1.00
C143   C     0.32550   0.57235   0.13069   0.00000  Uiso   1.00
C144   C     0.62311   0.27274   0.06160   0.00000  Uiso   1.00
C145   C     0.65843   0.27942   0.01258   0.00000  Uiso   1.00
C146   C     0.72144   0.34157   0.01245   0.00000  Uiso   1.00
C147   C     0.82557   0.43189   0.99079   0.00000  Uiso   1.00
C148   C     0.56583   0.11681   0.11612   0.00000  Uiso   1.00
C149   C     0.55302   0.99238   0.11292   0.00000  Uiso   1.00
C150   C     0.56783   0.92323   0.15869   0.00000  Uiso   1.00
C151   C     0.58303   0.77145   0.22168   0.00000  Uiso   1.00
C152   C     0.60254   0.30779   0.15788   0.00000  Uiso   1.00
C153   C     0.53171   0.35937   0.14187   0.00000  Uiso   1.00
C154   C     0.49541   0.44939   0.16959   0.00000  Uiso   1.00
C155   C     0.43141   0.48408   0.14838   0.00000  Uiso   1.00
C156   C     0.64978   0.32623   0.10883   0.00000  Uiso   1.00
C157   C     0.71275   0.38837   0.10878   0.00000  Uiso   1.00
C158   C     0.74816   0.39515   0.05976   0.00000  Uiso   1.00
C159   C     0.59250   0.17030   0.16335   0.00000  Uiso   1.00
C160   C     0.60734   0.10133   0.20913   0.00000  Uiso   1.00
C161   C     0.59454   0.97682   0.20601   0.00000  Uiso   1.00
H162   H     0.53268   0.16768   0.03415   0.00000  Uiso   1.00
H163   H     0.42047   0.29904   0.03683   0.00000  Uiso   1.00
H164   H     0.63778   0.23802   0.97604   0.00000  Uiso   1.00
H165   H     0.53238   0.95102   0.07637   0.00000  Uiso   1.00
H166   H     0.30783   0.46830   0.06062   0.00000  Uiso   1.00
H167   H     0.76606   0.33959   0.93243   0.00000  Uiso   1.00
H168   H     0.54381   0.73440   0.14400   0.00000  Uiso   1.00
H169   H     0.62331   0.34943   0.19465   0.00000  Uiso   1.00
H170   H     0.51606   0.49077   0.20613   0.00000  Uiso   1.00
H171   H     0.73338   0.42974   0.14533   0.00000  Uiso   1.00
H172   H     0.62797   0.14275   0.24567   0.00000  Uiso   1.00
H173   H     0.38541   0.62391   0.19803   0.00000  Uiso   1.00
H174   H     0.84365   0.49520   0.06984   0.00000  Uiso   1.00
H175   H     0.62139   0.89002   0.28141   0.00000  Uiso   1.00
O176   O     0.27445   0.63583   0.13397   0.00000  Uiso   1.00
O177   O     0.87564   0.46695   0.96579   0.00000  Uiso   1.00
O178   O     0.58404   0.67296   0.24337   0.00000  Uiso   1.00
N179   N     0.34080   0.48551   0.09139   0.00000  Uiso   1.00
N180   N     0.76922   0.36519   0.97153   0.00000  Uiso   1.00
N181   N     0.56144   0.79938   0.16933   0.00000  Uiso   1.00
N182   N     0.38255   0.56924   0.16533   0.00000  Uiso   1.00
N183   N     0.81096   0.44893   0.04547   0.00000  Uiso   1.00
N184   N     0.60319   0.88312   0.24327   0.00000  Uiso   1.00
C185   C     0.94656   0.70932   0.07093   0.00000  Uiso   1.00
C186   C     0.99496   0.80588   0.09464   0.00000  Uiso   1.00
C187   C     0.05891   0.84044   0.07339   0.00000  Uiso   1.00
C188   C     0.09530   0.93050   0.10107   0.00000  Uiso   1.00
C189   C     0.17450   0.07235   0.13069   0.00000  Uiso   1.00
C190   C     0.87689   0.77274   0.06160   0.00000  Uiso   1.00
C191   C     0.84157   0.77942   0.01258   0.00000  Uiso   1.00
C192   C     0.77856   0.84157   0.01245   0.00000  Uiso   1.00
C193   C     0.67443   0.93189   0.99079   0.00000  Uiso   1.00
C194   C     0.93417   0.61681   0.11612   0.00000  Uiso   1.00
C195   C     0.94698   0.49238   0.11292   0.00000  Uiso   1.00
C196   C     0.93217   0.42323   0.15869   0.00000  Uiso   1.00
C197   C     0.91697   0.27145   0.22168   0.00000  Uiso   1.00
C198   C     0.89746   0.80779   0.15788   0.00000  Uiso   1.00
C199   C     0.96829   0.85937   0.14187   0.00000  Uiso   1.00
C200   C     0.00459   0.94939   0.16959   0.00000  Uiso   1.00
C201   C     0.06859   0.98408   0.14838   0.00000  Uiso   1.00
C202   C     0.85022   0.82623   0.10883   0.00000  Uiso   1.00
C203   C     0.78725   0.88837   0.10878   0.00000  Uiso   1.00
C204   C     0.75184   0.89515   0.05976   0.00000  Uiso   1.00
C205   C     0.90750   0.67030   0.16335   0.00000  Uiso   1.00
C206   C     0.89266   0.60133   0.20913   0.00000  Uiso   1.00
C207   C     0.90546   0.47682   0.20601   0.00000  Uiso   1.00
H208   H     0.96732   0.66768   0.03415   0.00000  Uiso   1.00
H209   H     0.07953   0.79904   0.03683   0.00000  Uiso   1.00
H210   H     0.86222   0.73802   0.97604   0.00000  Uiso   1.00
H211   H     0.96762   0.45102   0.07637   0.00000  Uiso   1.00
H212   H     0.19217   0.96830   0.06062   0.00000  Uiso   1.00
H213   H     0.73394   0.83959   0.93243   0.00000  Uiso   1.00
H214   H     0.95619   0.23440   0.14400   0.00000  Uiso   1.00
H215   H     0.87669   0.84943   0.19465   0.00000  Uiso   1.00
H216   H     0.98394   0.99077   0.20613   0.00000  Uiso   1.00
H217   H     0.76662   0.92974   0.14533   0.00000  Uiso   1.00
H218   H     0.87203   0.64275   0.24567   0.00000  Uiso   1.00
H219   H     0.11459   0.12391   0.19803   0.00000  Uiso   1.00
H220   H     0.65635   0.99520   0.06984   0.00000  Uiso   1.00
H221   H     0.87861   0.39002   0.28141   0.00000  Uiso   1.00
O222   O     0.22555   0.13583   0.13397   0.00000  Uiso   1.00
O223   O     0.62436   0.96695   0.96579   0.00000  Uiso   1.00
O224   O     0.91596   0.17296   0.24337   0.00000  Uiso   1.00
N225   N     0.15920   0.98551   0.09139   0.00000  Uiso   1.00
N226   N     0.73078   0.86519   0.97153   0.00000  Uiso   1.00
N227   N     0.93856   0.29938   0.16933   0.00000  Uiso   1.00
N228   N     0.11745   0.06924   0.16533   0.00000  Uiso   1.00
N229   N     0.68904   0.94893   0.04547   0.00000  Uiso   1.00
N230   N     0.89681   0.38312   0.24327   0.00000  Uiso   1.00
C231   C     0.55344   0.79068   0.57093   0.00000  Uiso   1.00
C232   C     0.50504   0.69412   0.59464   0.00000  Uiso   1.00
C233   C     0.44109   0.65956   0.57339   0.00000  Uiso   1.00
C234   C     0.40470   0.56950   0.60107   0.00000  Uiso   1.00
C235   C     0.32550   0.42765   0.63069   0.00000  Uiso   1.00
C236   C     0.62311   0.72726   0.56160   0.00000  Uiso   1.00
C237   C     0.65843   0.72058   0.51258   0.00000  Uiso   1.00
C238   C     0.72144   0.65843   0.51245   0.00000  Uiso   1.00
C239   C     0.82557   0.56811   0.49079   0.00000  Uiso   1.00
C240   C     0.56583   0.88319   0.61612   0.00000  Uiso   1.00
C241   C     0.55302   0.00762   0.61292   0.00000  Uiso   1.00
C242   C     0.56783   0.07677   0.65869   0.00000  Uiso   1.00
C243   C     0.58303   0.22855   0.72168   0.00000  Uiso   1.00
C244   C     0.60254   0.69221   0.65788   0.00000  Uiso   1.00
C245   C     0.53171   0.64063   0.64187   0.00000  Uiso   1.00
C246   C     0.49541   0.55061   0.66959   0.00000  Uiso   1.00
C247   C     0.43141   0.51592   0.64838   0.00000  Uiso   1.00
C248   C     0.64978   0.67377   0.60883   0.00000  Uiso   1.00
C249   C     0.71275   0.61163   0.60878   0.00000  Uiso   1.00
C250   C     0.74816   0.60485   0.55976   0.00000  Uiso   1.00
C251   C     0.59250   0.82970   0.66335   0.00000  Uiso   1.00
C252   C     0.60734   0.89867   0.70913   0.00000  Uiso   1.00
C253   C     0.59454   0.02318   0.70601   0.00000  Uiso   1.00
H254   H     0.53268   0.83232   0.53415   0.00000  Uiso   1.00
H255   H     0.42047   0.70096   0.53683   0.00000  Uiso   1.00
H256   H     0.63778   0.76198   0.47604   0.00000  Uiso   1.00
H257   H     0.53238   0.04898   0.57637   0.00000  Uiso   1.00
H258   H     0.30783   0.53170   0.56062   0.00000  Uiso   1.00
H259   H     0.76606   0.66041   0.43243   0.00000  Uiso   1.00
H260   H     0.54381   0.26560   0.64400   0.00000  Uiso   1.00
H261   H     0.62331   0.65057   0.69465   0.00000  Uiso   1.00
H262   H     0.51606   0.50923   0.70613   0.00000  Uiso   1.00
H263   H     0.73338   0.57026   0.64533   0.00000  Uiso   1.00
H264   H     0.62797   0.85725   0.74567   0.00000  Uiso   1.00
H265   H     0.38541   0.37609   0.69803   0.00000  Uiso   1.00
H266   H     0.84365   0.50480   0.56984   0.00000  Uiso   1.00
H267   H     0.62139   0.10998   0.78141   0.00000  Uiso   1.00
O268   O     0.27445   0.36417   0.63397   0.00000  Uiso   1.00
O269   O     0.87564   0.53305   0.46579   0.00000  Uiso   1.00
O270   O     0.58404   0.32704   0.74337   0.00000  Uiso   1.00
N271   N     0.34080   0.51449   0.59139   0.00000  Uiso   1.00
N272   N     0.76922   0.63481   0.47153   0.00000  Uiso   1.00
N273   N     0.56144   0.20062   0.66933   0.00000  Uiso   1.00
N274   N     0.38255   0.43076   0.66533   0.00000  Uiso   1.00
N275   N     0.81096   0.55107   0.54547   0.00000  Uiso   1.00
N276   N     0.60319   0.11688   0.74327   0.00000  Uiso   1.00
C277   C     0.05344   0.70932   0.42907   0.00000  Uiso   1.00
C278   C     0.00504   0.80588   0.40536   0.00000  Uiso   1.00
C279   C     0.94109   0.84044   0.42661   0.00000  Uiso   1.00
C280   C     0.90470   0.93050   0.39893   0.00000  Uiso   1.00
C281   C     0.82550   0.07235   0.36931   0.00000  Uiso   1.00
C282   C     0.12311   0.77274   0.43840   0.00000  Uiso   1.00
C283   C     0.15843   0.77942   0.48742   0.00000  Uiso   1.00
C284   C     0.22144   0.84157   0.48755   0.00000  Uiso   1.00
C285   C     0.32557   0.93189   0.50921   0.00000  Uiso   1.00
C286   C     0.06583   0.61681   0.38388   0.00000  Uiso   1.00
C287   C     0.05302   0.49238   0.38708   0.00000  Uiso   1.00
C288   C     0.06783   0.42323   0.34131   0.00000  Uiso   1.00
C289   C     0.08303   0.27145   0.27832   0.00000  Uiso   1.00
C290   C     0.10254   0.80779   0.34212   0.00000  Uiso   1.00
C291   C     0.03171   0.85937   0.35813   0.00000  Uiso   1.00
C292   C     0.99541   0.94939   0.33041   0.00000  Uiso   1.00
C293   C     0.93141   0.98408   0.35162   0.00000  Uiso   1.00
C294   C     0.14978   0.82623   0.39117   0.00000  Uiso   1.00
C295   C     0.21275   0.88837   0.39122   0.00000  Uiso   1.00
C296   C     0.24816   0.89515   0.44024   0.00000  Uiso   1.00
C297   C     0.09250   0.67030   0.33665   0.00000  Uiso   1.00
C298   C     0.10734   0.60133   0.29087   0.00000  Uiso   1.00
C299   C     0.09454   0.47682   0.29399   0.00000  Uiso   1.00
H300   H     0.03268   0.66768   0.46585   0.00000  Uiso   1.00
H301   H     0.92047   0.79904   0.46317   0.00000  Uiso   1.00
H302   H     0.13778   0.73802   0.52396   0.00000  Uiso   1.00
H303   H     0.03238   0.45102   0.42363   0.00000  Uiso   1.00
H304   H     0.80783   0.96830   0.43938   0.00000  Uiso   1.00
H305   H     0.26606   0.83959   0.56757   0.00000  Uiso   1.00
H306   H     0.04381   0.23440   0.35600   0.00000  Uiso   1.00
H307   H     0.12331   0.84943   0.30535   0.00000  Uiso   1.00
H308   H     0.01606   0.99077   0.29387   0.00000  Uiso   1.00
H309   H     0.23338   0.92974   0.35467   0.00000  Uiso   1.00
H310   H     0.12797   0.64275   0.25433   0.00000  Uiso   1.00
H311   H     0.88541   0.12391   0.30197   0.00000  Uiso   1.00
H312   H     0.34365   0.99520   0.43016   0.00000  Uiso   1.00
H313   H     0.12139   0.39002   0.21859   0.00000  Uiso   1.00
O314   O     0.77445   0.13583   0.36603   0.00000  Uiso   1.00
O315   O     0.37564   0.96695   0.53421   0.00000  Uiso   1.00
O316   O     0.08404   0.17296   0.25663   0.00000  Uiso   1.00
N317   N     0.84080   0.98551   0.40861   0.00000  Uiso   1.00
N318   N     0.26922   0.86519   0.52847   0.00000  Uiso   1.00
N319   N     0.06144   0.29938   0.33067   0.00000  Uiso   1.00
N320   N     0.88255   0.06924   0.33467   0.00000  Uiso   1.00
N321   N     0.31096   0.94893   0.45453   0.00000  Uiso   1.00
N322   N     0.10319   0.38312   0.25673   0.00000  Uiso   1.00
C323   C     0.44656   0.79068   0.92907   0.00000  Uiso   1.00
C324   C     0.49496   0.69412   0.90536   0.00000  Uiso   1.00
C325   C     0.55891   0.65956   0.92661   0.00000  Uiso   1.00
C326   C     0.59530   0.56950   0.89893   0.00000  Uiso   1.00
C327   C     0.67450   0.42765   0.86931   0.00000  Uiso   1.00
C328   C     0.37689   0.72726   0.93840   0.00000  Uiso   1.00
C329   C     0.34157   0.72058   0.98742   0.00000  Uiso   1.00
C330   C     0.27856   0.65843   0.98755   0.00000  Uiso   1.00
C331   C     0.17443   0.56811   0.00921   0.00000  Uiso   1.00
C332   C     0.43417   0.88319   0.88388   0.00000  Uiso   1.00
C333   C     0.44698   0.00762   0.88708   0.00000  Uiso   1.00
C334   C     0.43217   0.07677   0.84131   0.00000  Uiso   1.00
C335   C     0.41697   0.22855   0.77832   0.00000  Uiso   1.00
C336   C     0.39746   0.69221   0.84212   0.00000  Uiso   1.00
C337   C     0.46829   0.64063   0.85813   0.00000  Uiso   1.00
C338   C     0.50459   0.55061   0.83041   0.00000  Uiso   1.00
C339   C     0.56859   0.51592   0.85162   0.00000  Uiso   1.00
C340   C     0.35022   0.67377   0.89117   0.00000  Uiso   1.00
C341   C     0.28725   0.61163   0.89122   0.00000  Uiso   1.00
C342   C     0.25184   0.60485   0.94024   0.00000  Uiso   1.00
C343   C     0.40750   0.82970   0.83665   0.00000  Uiso   1.00
C344   C     0.39266   0.89867   0.79087   0.00000  Uiso   1.00
C345   C     0.40546   0.02318   0.79399   0.00000  Uiso   1.00
H346   H     0.46732   0.83232   0.96585   0.00000  Uiso   1.00
H347   H     0.57953   0.70096   0.96317   0.00000  Uiso   1.00
H348   H     0.36222   0.76198   0.02396   0.00000  Uiso   1.00
H349   H     0.46762   0.04898   0.92363   0.00000  Uiso   1.00
H350   H     0.69217   0.53170   0.93938   0.00000  Uiso   1.00
H351   H     0.23394   0.66041   0.06757   0.00000  Uiso   1.00
H352   H     0.45619   0.26560   0.85600   0.00000  Uiso   1.00
H353   H     0.37669   0.65057   0.80535   0.00000  Uiso   1.00
H354   H     0.48394   0.50923   0.79387   0.00000  Uiso   1.00
H355   H     0.26662   0.57026   0.85467   0.00000  Uiso   1.00
H356   H     0.37203   0.85725   0.75433   0.00000  Uiso   1.00
H357   H     0.61459   0.37609   0.80197   0.00000  Uiso   1.00
H358   H     0.15635   0.50480   0.93016   0.00000  Uiso   1.00
H359   H     0.37861   0.10998   0.71859   0.00000  Uiso   1.00
O360   O     0.72555   0.36417   0.86603   0.00000  Uiso   1.00
O361   O     0.12436   0.53305   0.03421   0.00000  Uiso   1.00
O362   O     0.41596   0.32704   0.75663   0.00000  Uiso   1.00
N363   N     0.65920   0.51449   0.90861   0.00000  Uiso   1.00
N364   N     0.23078   0.63481   0.02847   0.00000  Uiso   1.00
N365   N     0.43856   0.20062   0.83067   0.00000  Uiso   1.00
N366   N     0.61745   0.43076   0.83467   0.00000  Uiso   1.00
N367   N     0.18904   0.55107   0.95453   0.00000  Uiso   1.00
N368   N     0.39681   0.11688   0.75673   0.00000  Uiso   1.00
