data_job_02747
_audit_creation_date              2018-12-19
_audit_creation_method            'Materials Studio'
_symmetry_space_group_name_H-M    'P1'
_symmetry_Int_Tables_number       1
_symmetry_cell_setting            triclinic
loop_
_symmetry_equiv_pos_as_xyz
  x,y,z
_cell_length_a                    24.2558
_cell_length_b                    10.9433
_cell_length_c                    12.4601
_cell_angle_alpha                 90.0000
_cell_angle_beta                  84.2449
_cell_angle_gamma                 90.0000
loop_
_atom_site_label
_atom_site_type_symbol
_atom_site_fract_x
_atom_site_fract_y
_atom_site_fract_z
_atom_site_U_iso_or_equiv
_atom_site_adp_type
_atom_site_occupancy
C1     C     0.67776   0.93560   0.34333   0.00000  Uiso   1.00
C2     C     0.65894   0.03285   0.42672   0.00000  Uiso   1.00
C3     C     0.68646   0.06554   0.51483   0.00000  Uiso   1.00
C4     C     0.66248   0.15659   0.58167   0.00000  Uiso   1.00
C5     C     0.64080   0.29899   0.71432   0.00000  Uiso   1.00
C6     C     0.62983   0.84544   0.34318   0.00000  Uiso   1.00
C7     C     0.63289   0.72055   0.36104   0.00000  Uiso   1.00
C8     C     0.58441   0.65384   0.35754   0.00000  Uiso   1.00
C9     C     0.51756   0.50526   0.36042   0.00000  Uiso   1.00
C10    C     0.68179   0.99949   0.23407   0.00000  Uiso   1.00
C11    C     0.72852   0.00411   0.16017   0.00000  Uiso   1.00
C12    C     0.72378   0.06709   0.06479   0.00000  Uiso   1.00
C13    C     0.73760   0.15771   0.89826   0.00000  Uiso   1.00
C14    C     0.58624   0.03918   0.30535   0.00000  Uiso   1.00
C15    C     0.60923   0.08911   0.40609   0.00000  Uiso   1.00
C16    C     0.58520   0.18014   0.47281   0.00000  Uiso   1.00
C17    C     0.61268   0.21296   0.56100   0.00000  Uiso   1.00
C18    C     0.58012   0.90169   0.32255   0.00000  Uiso   1.00
C19    C     0.53163   0.83515   0.31902   0.00000  Uiso   1.00
C20    C     0.53461   0.71020   0.33687   0.00000  Uiso   1.00
C21    C     0.63208   0.05576   0.21344   0.00000  Uiso   1.00
C22    C     0.62726   0.11872   0.11815   0.00000  Uiso   1.00
C23    C     0.67398   0.12345   0.04412   0.00000  Uiso   1.00
H24    H     0.71646   0.89179   0.35940   0.00000  Uiso   1.00
H25    H     0.72492   0.02197   0.53078   0.00000  Uiso   1.00
H26    H     0.67136   0.67703   0.37700   0.00000  Uiso   1.00
H27    H     0.76698   0.96056   0.17617   0.00000  Uiso   1.00
H28    H     0.71238   0.19107   0.71171   0.00000  Uiso   1.00
H29    H     0.59945   0.46375   0.38742   0.00000  Uiso   1.00
H30    H     0.80108   0.06163   0.96392   0.00000  Uiso   1.00
H31    H     0.54754   0.08299   0.28928   0.00000  Uiso   1.00
H32    H     0.54673   0.22366   0.45682   0.00000  Uiso   1.00
H33    H     0.49317   0.87872   0.30304   0.00000  Uiso   1.00
H34    H     0.58879   0.16225   0.10221   0.00000  Uiso   1.00
H35    H     0.56775   0.35477   0.65169   0.00000  Uiso   1.00
H36    H     0.45482   0.62744   0.32739   0.00000  Uiso   1.00
H37    H     0.65645   0.22532   0.90389   0.00000  Uiso   1.00
O38    O     0.64257   0.36198   0.79320   0.00000  Uiso   1.00
O39    O     0.49442   0.40776   0.36772   0.00000  Uiso   1.00
O40    O     0.75895   0.19217   0.81210   0.00000  Uiso   1.00
N41    N     0.67845   0.21031   0.67458   0.00000  Uiso   1.00
N42    N     0.57287   0.53031   0.37141   0.00000  Uiso   1.00
N43    N     0.76137   0.08925   0.97546   0.00000  Uiso   1.00
N44    N     0.60063   0.29840   0.64228   0.00000  Uiso   1.00
N45    N     0.49505   0.61840   0.33911   0.00000  Uiso   1.00
N46    N     0.68355   0.17733   0.94316   0.00000  Uiso   1.00
C47    C     0.17776   0.43560   0.34333   0.00000  Uiso   1.00
C48    C     0.15894   0.53285   0.42672   0.00000  Uiso   1.00
C49    C     0.18646   0.56554   0.51483   0.00000  Uiso   1.00
C50    C     0.16248   0.65659   0.58167   0.00000  Uiso   1.00
C51    C     0.14080   0.79899   0.71432   0.00000  Uiso   1.00
C52    C     0.12983   0.34544   0.34318   0.00000  Uiso   1.00
C53    C     0.13289   0.22055   0.36104   0.00000  Uiso   1.00
C54    C     0.08441   0.15384   0.35754   0.00000  Uiso   1.00
C55    C     0.01756   0.00526   0.36042   0.00000  Uiso   1.00
C56    C     0.18179   0.49949   0.23407   0.00000  Uiso   1.00
C57    C     0.22852   0.50411   0.16017   0.00000  Uiso   1.00
C58    C     0.22378   0.56709   0.06479   0.00000  Uiso   1.00
C59    C     0.23760   0.65771   0.89826   0.00000  Uiso   1.00
C60    C     0.08624   0.53918   0.30535   0.00000  Uiso   1.00
C61    C     0.10923   0.58911   0.40609   0.00000  Uiso   1.00
C62    C     0.08520   0.68014   0.47281   0.00000  Uiso   1.00
C63    C     0.11268   0.71296   0.56100   0.00000  Uiso   1.00
C64    C     0.08012   0.40169   0.32255   0.00000  Uiso   1.00
C65    C     0.03163   0.33515   0.31902   0.00000  Uiso   1.00
C66    C     0.03461   0.21020   0.33687   0.00000  Uiso   1.00
C67    C     0.13208   0.55576   0.21344   0.00000  Uiso   1.00
C68    C     0.12726   0.61872   0.11815   0.00000  Uiso   1.00
C69    C     0.17398   0.62345   0.04412   0.00000  Uiso   1.00
H70    H     0.21646   0.39179   0.35940   0.00000  Uiso   1.00
H71    H     0.22492   0.52197   0.53078   0.00000  Uiso   1.00
H72    H     0.17136   0.17703   0.37700   0.00000  Uiso   1.00
H73    H     0.26698   0.46056   0.17617   0.00000  Uiso   1.00
H74    H     0.21238   0.69107   0.71171   0.00000  Uiso   1.00
H75    H     0.09945   0.96375   0.38742   0.00000  Uiso   1.00
H76    H     0.30108   0.56163   0.96392   0.00000  Uiso   1.00
H77    H     0.04754   0.58299   0.28928   0.00000  Uiso   1.00
H78    H     0.04673   0.72366   0.45682   0.00000  Uiso   1.00
H79    H     0.99317   0.37872   0.30304   0.00000  Uiso   1.00
H80    H     0.08879   0.66225   0.10221   0.00000  Uiso   1.00
H81    H     0.06775   0.85477   0.65169   0.00000  Uiso   1.00
H82    H     0.95482   0.12744   0.32739   0.00000  Uiso   1.00
H83    H     0.15645   0.72532   0.90389   0.00000  Uiso   1.00
O84    O     0.14257   0.86198   0.79320   0.00000  Uiso   1.00
O85    O     0.99442   0.90776   0.36772   0.00000  Uiso   1.00
O86    O     0.25895   0.69217   0.81210   0.00000  Uiso   1.00
N87    N     0.17845   0.71031   0.67458   0.00000  Uiso   1.00
N88    N     0.07287   0.03031   0.37141   0.00000  Uiso   1.00
N89    N     0.26137   0.58925   0.97546   0.00000  Uiso   1.00
N90    N     0.10063   0.79840   0.64228   0.00000  Uiso   1.00
N91    N     0.99505   0.11840   0.33911   0.00000  Uiso   1.00
N92    N     0.18355   0.67733   0.94316   0.00000  Uiso   1.00
C93    C     0.32224   0.93560   0.65667   0.00000  Uiso   1.00
C94    C     0.34106   0.03285   0.57328   0.00000  Uiso   1.00
C95    C     0.31354   0.06554   0.48517   0.00000  Uiso   1.00
C96    C     0.33752   0.15659   0.41833   0.00000  Uiso   1.00
C97    C     0.35920   0.29899   0.28568   0.00000  Uiso   1.00
C98    C     0.37017   0.84544   0.65682   0.00000  Uiso   1.00
C99    C     0.36711   0.72055   0.63896   0.00000  Uiso   1.00
C100   C     0.41559   0.65384   0.64246   0.00000  Uiso   1.00
C101   C     0.48244   0.50526   0.63958   0.00000  Uiso   1.00
C102   C     0.31821   0.99949   0.76593   0.00000  Uiso   1.00
C103   C     0.27148   0.00411   0.83983   0.00000  Uiso   1.00
C104   C     0.27622   0.06709   0.93521   0.00000  Uiso   1.00
C105   C     0.26240   0.15771   0.10174   0.00000  Uiso   1.00
C106   C     0.41376   0.03918   0.69465   0.00000  Uiso   1.00
C107   C     0.39077   0.08911   0.59391   0.00000  Uiso   1.00
C108   C     0.41480   0.18014   0.52719   0.00000  Uiso   1.00
C109   C     0.38732   0.21296   0.43900   0.00000  Uiso   1.00
C110   C     0.41988   0.90169   0.67745   0.00000  Uiso   1.00
C111   C     0.46837   0.83515   0.68098   0.00000  Uiso   1.00
C112   C     0.46539   0.71020   0.66313   0.00000  Uiso   1.00
C113   C     0.36792   0.05576   0.78656   0.00000  Uiso   1.00
C114   C     0.37274   0.11872   0.88185   0.00000  Uiso   1.00
C115   C     0.32602   0.12345   0.95588   0.00000  Uiso   1.00
H116   H     0.28354   0.89179   0.64060   0.00000  Uiso   1.00
H117   H     0.27508   0.02197   0.46922   0.00000  Uiso   1.00
H118   H     0.32864   0.67703   0.62300   0.00000  Uiso   1.00
H119   H     0.23302   0.96056   0.82383   0.00000  Uiso   1.00
H120   H     0.28762   0.19107   0.28829   0.00000  Uiso   1.00
H121   H     0.40055   0.46375   0.61258   0.00000  Uiso   1.00
H122   H     0.19892   0.06163   0.03608   0.00000  Uiso   1.00
H123   H     0.45246   0.08299   0.71072   0.00000  Uiso   1.00
H124   H     0.45327   0.22366   0.54318   0.00000  Uiso   1.00
H125   H     0.50683   0.87872   0.69696   0.00000  Uiso   1.00
H126   H     0.41121   0.16225   0.89779   0.00000  Uiso   1.00
H127   H     0.43225   0.35477   0.34831   0.00000  Uiso   1.00
H128   H     0.54518   0.62744   0.67261   0.00000  Uiso   1.00
H129   H     0.34355   0.22532   0.09611   0.00000  Uiso   1.00
O130   O     0.35743   0.36198   0.20680   0.00000  Uiso   1.00
O131   O     0.50558   0.40776   0.63228   0.00000  Uiso   1.00
O132   O     0.24105   0.19217   0.18790   0.00000  Uiso   1.00
N133   N     0.32155   0.21031   0.32542   0.00000  Uiso   1.00
N134   N     0.42713   0.53031   0.62859   0.00000  Uiso   1.00
N135   N     0.23863   0.08925   0.02454   0.00000  Uiso   1.00
N136   N     0.39937   0.29840   0.35772   0.00000  Uiso   1.00
N137   N     0.50495   0.61840   0.66089   0.00000  Uiso   1.00
N138   N     0.31645   0.17733   0.05684   0.00000  Uiso   1.00
C139   C     0.82224   0.43560   0.65667   0.00000  Uiso   1.00
C140   C     0.84106   0.53285   0.57328   0.00000  Uiso   1.00
C141   C     0.81354   0.56554   0.48517   0.00000  Uiso   1.00
C142   C     0.83752   0.65659   0.41833   0.00000  Uiso   1.00
C143   C     0.85920   0.79899   0.28568   0.00000  Uiso   1.00
C144   C     0.87017   0.34544   0.65682   0.00000  Uiso   1.00
C145   C     0.86711   0.22055   0.63896   0.00000  Uiso   1.00
C146   C     0.91559   0.15384   0.64246   0.00000  Uiso   1.00
C147   C     0.98244   0.00526   0.63958   0.00000  Uiso   1.00
C148   C     0.81821   0.49949   0.76593   0.00000  Uiso   1.00
C149   C     0.77148   0.50411   0.83983   0.00000  Uiso   1.00
C150   C     0.77622   0.56709   0.93521   0.00000  Uiso   1.00
C151   C     0.76240   0.65771   0.10174   0.00000  Uiso   1.00
C152   C     0.91376   0.53918   0.69465   0.00000  Uiso   1.00
C153   C     0.89077   0.58911   0.59391   0.00000  Uiso   1.00
C154   C     0.91480   0.68014   0.52719   0.00000  Uiso   1.00
C155   C     0.88732   0.71296   0.43900   0.00000  Uiso   1.00
C156   C     0.91988   0.40169   0.67745   0.00000  Uiso   1.00
C157   C     0.96837   0.33515   0.68098   0.00000  Uiso   1.00
C158   C     0.96539   0.21020   0.66313   0.00000  Uiso   1.00
C159   C     0.86792   0.55576   0.78656   0.00000  Uiso   1.00
C160   C     0.87274   0.61872   0.88185   0.00000  Uiso   1.00
C161   C     0.82602   0.62345   0.95588   0.00000  Uiso   1.00
H162   H     0.78354   0.39179   0.64060   0.00000  Uiso   1.00
H163   H     0.77508   0.52197   0.46922   0.00000  Uiso   1.00
H164   H     0.82864   0.17703   0.62300   0.00000  Uiso   1.00
H165   H     0.73302   0.46056   0.82383   0.00000  Uiso   1.00
H166   H     0.78762   0.69107   0.28829   0.00000  Uiso   1.00
H167   H     0.90055   0.96375   0.61258   0.00000  Uiso   1.00
H168   H     0.69892   0.56163   0.03608   0.00000  Uiso   1.00
H169   H     0.95246   0.58299   0.71072   0.00000  Uiso   1.00
H170   H     0.95327   0.72366   0.54318   0.00000  Uiso   1.00
H171   H     0.00683   0.37872   0.69696   0.00000  Uiso   1.00
H172   H     0.91121   0.66225   0.89779   0.00000  Uiso   1.00
H173   H     0.93225   0.85477   0.34831   0.00000  Uiso   1.00
H174   H     0.04518   0.12744   0.67261   0.00000  Uiso   1.00
H175   H     0.84355   0.72532   0.09611   0.00000  Uiso   1.00
O176   O     0.85743   0.86198   0.20680   0.00000  Uiso   1.00
O177   O     0.00558   0.90776   0.63228   0.00000  Uiso   1.00
O178   O     0.74105   0.69217   0.18790   0.00000  Uiso   1.00
N179   N     0.82155   0.71031   0.32542   0.00000  Uiso   1.00
N180   N     0.92713   0.03031   0.62859   0.00000  Uiso   1.00
N181   N     0.73863   0.58925   0.02454   0.00000  Uiso   1.00
N182   N     0.89937   0.79840   0.35772   0.00000  Uiso   1.00
N183   N     0.00495   0.11840   0.66089   0.00000  Uiso   1.00
N184   N     0.81645   0.67733   0.05684   0.00000  Uiso   1.00
