data_job_06603
_audit_creation_date              2018-12-19
_audit_creation_method            'Materials Studio'
_symmetry_space_group_name_H-M    'P1'
_symmetry_Int_Tables_number       1
_symmetry_cell_setting            triclinic
loop_
_symmetry_equiv_pos_as_xyz
  x,y,z
_cell_length_a                    16.8738
_cell_length_b                    20.1817
_cell_length_c                    25.3765
_cell_angle_alpha                 110.3105
_cell_angle_beta                  104.0928
_cell_angle_gamma                 67.1986
loop_
_atom_site_label
_atom_site_type_symbol
_atom_site_fract_x
_atom_site_fract_y
_atom_site_fract_z
_atom_site_U_iso_or_equiv
_atom_site_adp_type
_atom_site_occupancy
C1     C     0.12624   0.70740   0.76884   0.00000  Uiso   1.00
C2     C     0.16220   0.63911   0.79140   0.00000  Uiso   1.00
C3     C     0.24522   0.61306   0.81862   0.00000  Uiso   1.00
C4     C     0.26561   0.54968   0.83606   0.00000  Uiso   1.00
C5     C     0.33067   0.44910   0.87250   0.00000  Uiso   1.00
C6     C     0.09523   0.67933   0.70614   0.00000  Uiso   1.00
C7     C     0.12193   0.68711   0.66167   0.00000  Uiso   1.00
C8     C     0.08593   0.65760   0.60733   0.00000  Uiso   1.00
C9     C     0.04697   0.61951   0.51139   0.00000  Uiso   1.00
C10    C     0.04494   0.75836   0.79703   0.00000  Uiso   1.00
C11    C     0.02933   0.83259   0.82899   0.00000  Uiso   1.00
C12    C     0.95097   0.86963   0.85116   0.00000  Uiso   1.00
C13    C     0.83392   0.95425   0.89636   0.00000  Uiso   1.00
C14    C     0.01483   0.64118   0.75140   0.00000  Uiso   1.00
C15    C     0.10169   0.60314   0.78192   0.00000  Uiso   1.00
C16    C     0.12195   0.53979   0.79932   0.00000  Uiso   1.00
C17    C     0.20498   0.51365   0.82657   0.00000  Uiso   1.00
C18    C     0.03472   0.64337   0.69666   0.00000  Uiso   1.00
C19    C     0.99867   0.61384   0.64237   0.00000  Uiso   1.00
C20    C     0.02531   0.62157   0.59783   0.00000  Uiso   1.00
C21    C     0.98442   0.72240   0.78756   0.00000  Uiso   1.00
C22    C     0.90607   0.75932   0.80969   0.00000  Uiso   1.00
C23    C     0.89035   0.83360   0.84167   0.00000  Uiso   1.00
H24    H     0.17335   0.73540   0.77622   0.00000  Uiso   1.00
H25    H     0.29203   0.64090   0.82595   0.00000  Uiso   1.00
H26    H     0.16876   0.71495   0.66902   0.00000  Uiso   1.00
H27    H     0.07618   0.86041   0.83631   0.00000  Uiso   1.00
H28    H     0.39694   0.52026   0.87688   0.00000  Uiso   1.00
H29    H     0.13698   0.67641   0.54599   0.00000  Uiso   1.00
H30    H     0.94175   0.98315   0.89876   0.00000  Uiso   1.00
H31    H     0.96771   0.61317   0.74402   0.00000  Uiso   1.00
H32    H     0.07511   0.51197   0.79198   0.00000  Uiso   1.00
H33    H     0.95183   0.58602   0.63505   0.00000  Uiso   1.00
H34    H     0.85925   0.73147   0.80234   0.00000  Uiso   1.00
H35    H     0.22087   0.41561   0.84931   0.00000  Uiso   1.00
H36    H     0.96092   0.57177   0.51842   0.00000  Uiso   1.00
H37    H     0.76569   0.87849   0.87119   0.00000  Uiso   1.00
O38    O     0.38328   0.40355   0.89521   0.00000  Uiso   1.00
O39    O     0.04221   0.60843   0.46109   0.00000  Uiso   1.00
O40    O     0.78608   0.01085   0.92392   0.00000  Uiso   1.00
N41    N     0.34076   0.50953   0.86382   0.00000  Uiso   1.00
N42    N     0.09772   0.65551   0.55445   0.00000  Uiso   1.00
N43    N     0.91519   0.94229   0.88425   0.00000  Uiso   1.00
N44    N     0.24602   0.45322   0.84899   0.00000  Uiso   1.00
N45    N     0.00298   0.59920   0.53962   0.00000  Uiso   1.00
N46    N     0.82045   0.88598   0.86942   0.00000  Uiso   1.00
C47    C     0.14822   0.31679   0.86158   0.00000  Uiso   1.00
C48    C     0.10436   0.34442   0.80944   0.00000  Uiso   1.00
C49    C     0.14427   0.33124   0.76327   0.00000  Uiso   1.00
C50    C     0.09295   0.36134   0.71981   0.00000  Uiso   1.00
C51    C     0.03825   0.39793   0.63844   0.00000  Uiso   1.00
C52    C     0.13280   0.38645   0.91233   0.00000  Uiso   1.00
C53    C     0.19662   0.40859   0.95268   0.00000  Uiso   1.00
C54    C     0.16924   0.47407   0.99584   0.00000  Uiso   1.00
C55    C     0.15869   0.57587   0.07425   0.00000  Uiso   1.00
C56    C     0.09641   0.27220   0.86636   0.00000  Uiso   1.00
C57    C     0.12964   0.19829   0.86806   0.00000  Uiso   1.00
C58    C     0.07163   0.16758   0.87252   0.00000  Uiso   1.00
C59    C     0.00459   0.09200   0.87954   0.00000  Uiso   1.00
C60    C     0.98611   0.39369   0.86650   0.00000  Uiso   1.00
C61    C     0.01631   0.38620   0.81211   0.00000  Uiso   1.00
C62    C     0.96492   0.41633   0.76871   0.00000  Uiso   1.00
C63    C     0.00474   0.40319   0.72248   0.00000  Uiso   1.00
C64    C     0.04475   0.42822   0.91500   0.00000  Uiso   1.00
C65    C     0.01727   0.49368   0.95812   0.00000  Uiso   1.00
C66    C     0.08103   0.51592   0.99852   0.00000  Uiso   1.00
C67    C     0.00836   0.31397   0.86902   0.00000  Uiso   1.00
C68    C     0.95029   0.28338   0.87349   0.00000  Uiso   1.00
C69    C     0.98343   0.20943   0.87520   0.00000  Uiso   1.00
H70    H     0.21677   0.28427   0.85951   0.00000  Uiso   1.00
H71    H     0.21241   0.29891   0.76122   0.00000  Uiso   1.00
H72    H     0.26475   0.37625   0.95061   0.00000  Uiso   1.00
H73    H     0.19778   0.16598   0.86599   0.00000  Uiso   1.00
H74    H     0.16876   0.33360   0.65344   0.00000  Uiso   1.00
H75    H     0.27912   0.49665   0.05277   0.00000  Uiso   1.00
H76    H     0.13791   0.05326   0.87436   0.00000  Uiso   1.00
H77    H     0.91756   0.42622   0.86858   0.00000  Uiso   1.00
H78    H     0.89678   0.44865   0.77079   0.00000  Uiso   1.00
H79    H     0.94913   0.52599   0.96017   0.00000  Uiso   1.00
H80    H     0.88216   0.31572   0.87556   0.00000  Uiso   1.00
H81    H     0.91258   0.45513   0.66120   0.00000  Uiso   1.00
H82    H     0.02295   0.61818   0.06054   0.00000  Uiso   1.00
H83    H     0.88174   0.17479   0.88212   0.00000  Uiso   1.00
O84    O     0.03241   0.40658   0.59283   0.00000  Uiso   1.00
O85    O     0.17720   0.62049   0.11675   0.00000  Uiso   1.00
O86    O     0.99193   0.03877   0.88267   0.00000  Uiso   1.00
N87    N     0.11131   0.35911   0.66868   0.00000  Uiso   1.00
N88    N     0.21450   0.51156   0.04203   0.00000  Uiso   1.00
N89    N     0.08248   0.09703   0.87524   0.00000  Uiso   1.00
N90    N     0.97347   0.42450   0.67286   0.00000  Uiso   1.00
N91    N     0.07665   0.57695   0.04621   0.00000  Uiso   1.00
N92    N     0.94464   0.16243   0.87942   0.00000  Uiso   1.00
C93    C     0.16043   0.15495   0.30711   0.00000  Uiso   1.00
C94    C     0.14894   0.22081   0.36066   0.00000  Uiso   1.00
C95    C     0.20338   0.26332   0.38459   0.00000  Uiso   1.00
C96    C     0.18170   0.32117   0.43362   0.00000  Uiso   1.00
C97    C     0.17505   0.42117   0.51310   0.00000  Uiso   1.00
C98    C     0.16296   0.08860   0.32404   0.00000  Uiso   1.00
C99    C     0.22919   0.01994   0.31717   0.00000  Uiso   1.00
C100   C     0.21930   0.96649   0.33538   0.00000  Uiso   1.00
C101   C     0.23441   0.86121   0.35797   0.00000  Uiso   1.00
C102   C     0.07667   0.17404   0.26716   0.00000  Uiso   1.00
C103   C     0.07033   0.17720   0.21246   0.00000  Uiso   1.00
C104   C     0.98779   0.19567   0.18278   0.00000  Uiso   1.00
C105   C     0.86891   0.22305   0.11705   0.00000  Uiso   1.00
C106   C     0.02512   0.18210   0.35164   0.00000  Uiso   1.00
C107   C     0.07544   0.23556   0.38484   0.00000  Uiso   1.00
C108   C     0.05367   0.29336   0.43386   0.00000  Uiso   1.00
C109   C     0.10806   0.33595   0.45786   0.00000  Uiso   1.00
C110   C     0.08947   0.10335   0.34823   0.00000  Uiso   1.00
C111   C     0.07948   0.04999   0.36644   0.00000  Uiso   1.00
C112   C     0.14568   0.98127   0.35961   0.00000  Uiso   1.00
C113   C     0.00317   0.18879   0.29135   0.00000  Uiso   1.00
C114   C     0.92063   0.20725   0.26174   0.00000  Uiso   1.00
C115   C     0.91416   0.21045   0.20701   0.00000  Uiso   1.00
H116   H     0.21765   0.14346   0.28828   0.00000  Uiso   1.00
H117   H     0.26025   0.25188   0.36586   0.00000  Uiso   1.00
H118   H     0.28605   0.00854   0.29844   0.00000  Uiso   1.00
H119   H     0.12722   0.16578   0.19376   0.00000  Uiso   1.00
H120   H     0.27509   0.37857   0.46255   0.00000  Uiso   1.00
H121   H     0.32948   0.86547   0.32039   0.00000  Uiso   1.00
H122   H     0.99455   0.19704   0.09963   0.00000  Uiso   1.00
H123   H     0.96790   0.19358   0.37048   0.00000  Uiso   1.00
H124   H     0.99679   0.30476   0.45257   0.00000  Uiso   1.00
H125   H     0.02259   0.06142   0.38516   0.00000  Uiso   1.00
H126   H     0.86376   0.21866   0.28047   0.00000  Uiso   1.00
H127   H     0.06125   0.42149   0.53293   0.00000  Uiso   1.00
H128   H     0.11565   0.90838   0.39077   0.00000  Uiso   1.00
H129   H     0.78072   0.23996   0.17001   0.00000  Uiso   1.00
O130   O     0.19170   0.47224   0.55027   0.00000  Uiso   1.00
O131   O     0.26305   0.79907   0.36375   0.00000  Uiso   1.00
O132   O     0.82364   0.23409   0.07412   0.00000  Uiso   1.00
N133   N     0.22079   0.37342   0.46784   0.00000  Uiso   1.00
N134   N     0.27165   0.89371   0.33494   0.00000  Uiso   1.00
N135   N     0.95852   0.20368   0.12854   0.00000  Uiso   1.00
N136   N     0.10572   0.39652   0.50571   0.00000  Uiso   1.00
N137   N     0.15658   0.91680   0.37281   0.00000  Uiso   1.00
N138   N     0.84346   0.22678   0.16641   0.00000  Uiso   1.00
C139   C     0.55161   0.02255   0.96470   0.00000  Uiso   1.00
C140   C     0.47715   0.03706   0.99582   0.00000  Uiso   1.00
C141   C     0.48334   0.00819   0.03953   0.00000  Uiso   1.00
C142   C     0.40776   0.02812   0.06245   0.00000  Uiso   1.00
C143   C     0.30416   0.04353   0.11386   0.00000  Uiso   1.00
C144   C     0.55475   0.09941   0.97083   0.00000  Uiso   1.00
C145   C     0.62618   0.12295   0.99351   0.00000  Uiso   1.00
C146   C     0.61593   0.19536   0.99538   0.00000  Uiso   1.00
C147   C     0.63281   0.30754   0.00794   0.00000  Uiso   1.00
C148   C     0.52340   0.99062   0.90208   0.00000  Uiso   1.00
C149   C     0.56850   0.92270   0.86696   0.00000  Uiso   1.00
C150   C     0.53186   0.90353   0.81095   0.00000  Uiso   1.00
C151   C     0.50009   0.84679   0.71677   0.00000  Uiso   1.00
C152   C     0.40638   0.10929   0.92768   0.00000  Uiso   1.00
C153   C     0.39827   0.08418   0.97571   0.00000  Uiso   1.00
C154   C     0.32267   0.10416   0.99857   0.00000  Uiso   1.00
C155   C     0.32874   0.07532   0.04231   0.00000  Uiso   1.00
C156   C     0.47587   0.14652   0.95072   0.00000  Uiso   1.00
C157   C     0.46551   0.21892   0.95255   0.00000  Uiso   1.00
C158   C     0.53691   0.24256   0.97524   0.00000  Uiso   1.00
C159   C     0.44452   0.03773   0.88197   0.00000  Uiso   1.00
C160   C     0.40782   0.01866   0.82600   0.00000  Uiso   1.00
C161   C     0.45284   0.95072   0.79080   0.00000  Uiso   1.00
H162   H     0.61302   0.98587   0.98035   0.00000  Uiso   1.00
H163   H     0.54440   0.97174   0.05509   0.00000  Uiso   1.00
H164   H     0.68722   0.08648   0.00906   0.00000  Uiso   1.00
H165   H     0.62954   0.88625   0.88253   0.00000  Uiso   1.00
H166   H     0.43354   0.97687   0.12909   0.00000  Uiso   1.00
H167   H     0.73469   0.21879   0.03203   0.00000  Uiso   1.00
H168   H     0.61306   0.79658   0.76521   0.00000  Uiso   1.00
H169   H     0.34497   0.14597   0.91202   0.00000  Uiso   1.00
H170   H     0.26163   0.14062   0.98300   0.00000  Uiso   1.00
H171   H     0.40446   0.25536   0.93698   0.00000  Uiso   1.00
H172   H     0.34678   0.05514   0.81045   0.00000  Uiso   1.00
H173   H     0.20404   0.11394   0.07058   0.00000  Uiso   1.00
H174   H     0.50519   0.35586   0.97352   0.00000  Uiso   1.00
H175   H     0.38356   0.93366   0.70671   0.00000  Uiso   1.00
O176   O     0.26881   0.03901   0.14778   0.00000  Uiso   1.00
O177   O     0.66392   0.35640   0.02043   0.00000  Uiso   1.00
O178   O     0.50434   0.80248   0.67038   0.00000  Uiso   1.00
N179   N     0.39096   0.00985   0.10557   0.00000  Uiso   1.00
N180   N     0.67251   0.23603   0.01483   0.00000  Uiso   1.00
N181   N     0.55881   0.84132   0.76538   0.00000  Uiso   1.00
N182   N     0.26746   0.08361   0.07409   0.00000  Uiso   1.00
N183   N     0.54902   0.30979   0.98335   0.00000  Uiso   1.00
N184   N     0.43532   0.91507   0.73390   0.00000  Uiso   1.00
C185   C     0.56306   0.89958   0.35663   0.00000  Uiso   1.00
C186   C     0.60964   0.95173   0.35812   0.00000  Uiso   1.00
C187   C     0.69827   0.93825   0.37104   0.00000  Uiso   1.00
C188   C     0.72821   0.99288   0.37010   0.00000  Uiso   1.00
C189   C     0.80917   0.06383   0.37444   0.00000  Uiso   1.00
C190   C     0.51275   0.88431   0.29755   0.00000  Uiso   1.00
C191   C     0.51991   0.81414   0.25954   0.00000  Uiso   1.00
C192   C     0.46828   0.81203   0.20762   0.00000  Uiso   1.00
C193   C     0.39877   0.77830   0.11793   0.00000  Uiso   1.00
C194   C     0.49522   0.94564   0.39732   0.00000  Uiso   1.00
C195   C     0.48763   0.92703   0.44320   0.00000  Uiso   1.00
C196   C     0.42123   0.97655   0.47527   0.00000  Uiso   1.00
C197   C     0.32451   0.03805   0.54048   0.00000  Uiso   1.00
C198   C     0.45863   0.02059   0.33200   0.00000  Uiso   1.00
C199   C     0.55291   0.01745   0.34474   0.00000  Uiso   1.00
C200   C     0.58273   0.07213   0.34379   0.00000  Uiso   1.00
C201   C     0.67139   0.05873   0.35670   0.00000  Uiso   1.00
C202   C     0.45603   0.95003   0.28417   0.00000  Uiso   1.00
C203   C     0.40437   0.94802   0.23229   0.00000  Uiso   1.00
C204   C     0.41145   0.87787   0.19422   0.00000  Uiso   1.00
C205   C     0.43850   0.01137   0.38395   0.00000  Uiso   1.00
C206   C     0.37209   0.06091   0.41595   0.00000  Uiso   1.00
C207   C     0.36440   0.04239   0.46186   0.00000  Uiso   1.00
H208   H     0.60721   0.84841   0.36704   0.00000  Uiso   1.00
H209   H     0.74214   0.88737   0.38139   0.00000  Uiso   1.00
H210   H     0.56380   0.76329   0.26991   0.00000  Uiso   1.00
H211   H     0.53153   0.87616   0.45354   0.00000  Uiso   1.00
H212   H     0.86673   0.95954   0.39137   0.00000  Uiso   1.00
H213   H     0.49066   0.69790   0.15633   0.00000  Uiso   1.00
H214   H     0.42262   0.93592   0.54354   0.00000  Uiso   1.00
H215   H     0.41446   0.07176   0.32158   0.00000  Uiso   1.00
H216   H     0.53882   0.12298   0.33344   0.00000  Uiso   1.00
H217   H     0.36048   0.99889   0.22196   0.00000  Uiso   1.00
H218   H     0.32821   0.11177   0.40558   0.00000  Uiso   1.00
H219   H     0.70170   0.15077   0.35245   0.00000  Uiso   1.00
H220   H     0.32563   0.88912   0.11740   0.00000  Uiso   1.00
H221   H     0.25759   0.12715   0.50461   0.00000  Uiso   1.00
O222   O     0.86950   0.08480   0.38051   0.00000  Uiso   1.00
O223   O     0.37611   0.74154   0.07215   0.00000  Uiso   1.00
O224   O     0.28684   0.05382   0.58016   0.00000  Uiso   1.00
N225   N     0.81082   0.99752   0.38060   0.00000  Uiso   1.00
N226   N     0.45923   0.75290   0.16084   0.00000  Uiso   1.00
N227   N     0.39560   0.97542   0.52284   0.00000  Uiso   1.00
N228   N     0.72202   0.10042   0.35965   0.00000  Uiso   1.00
N229   N     0.37043   0.85580   0.13990   0.00000  Uiso   1.00
N230   N     0.30680   0.07832   0.50190   0.00000  Uiso   1.00
C231   C     0.65912   0.46167   0.51919   0.00000  Uiso   1.00
C232   C     0.61810   0.41180   0.46925   0.00000  Uiso   1.00
C233   C     0.65384   0.36676   0.41963   0.00000  Uiso   1.00
C234   C     0.60615   0.32535   0.37902   0.00000  Uiso   1.00
C235   C     0.55473   0.24734   0.30016   0.00000  Uiso   1.00
C236   C     0.66470   0.43716   0.57085   0.00000  Uiso   1.00
C237   C     0.73962   0.41346   0.60665   0.00000  Uiso   1.00
C238   C     0.73115   0.39341   0.65156   0.00000  Uiso   1.00
C239   C     0.75206   0.35483   0.73045   0.00000  Uiso   1.00
C240   C     0.59297   0.54053   0.52853   0.00000  Uiso   1.00
C241   C     0.60758   0.60374   0.52877   0.00000  Uiso   1.00
C242   C     0.53872   0.67072   0.53807   0.00000  Uiso   1.00
C243   C     0.44825   0.79264   0.55125   0.00000  Uiso   1.00
C244   C     0.51086   0.46822   0.53531   0.00000  Uiso   1.00
C245   C     0.53757   0.41536   0.47801   0.00000  Uiso   1.00
C246   C     0.48981   0.37401   0.43746   0.00000  Uiso   1.00
C247   C     0.52548   0.32891   0.38779   0.00000  Uiso   1.00
C248   C     0.58418   0.44072   0.57960   0.00000  Uiso   1.00
C249   C     0.57559   0.42071   0.62448   0.00000  Uiso   1.00
C250   C     0.65048   0.39697   0.66034   0.00000  Uiso   1.00
C251   C     0.51244   0.54409   0.53728   0.00000  Uiso   1.00
C252   C     0.44354   0.61099   0.54660   0.00000  Uiso   1.00
C253   C     0.45804   0.67429   0.54684   0.00000  Uiso   1.00
H254   H     0.72182   0.45890   0.51238   0.00000  Uiso   1.00
H255   H     0.71617   0.36401   0.41288   0.00000  Uiso   1.00
H256   H     0.80193   0.41071   0.59987   0.00000  Uiso   1.00
H257   H     0.66990   0.60097   0.52199   0.00000  Uiso   1.00
H258   H     0.67441   0.26037   0.30643   0.00000  Uiso   1.00
H259   H     0.85523   0.35886   0.70071   0.00000  Uiso   1.00
H260   H     0.57683   0.76005   0.53651   0.00000  Uiso   1.00
H261   H     0.44816   0.47099   0.54213   0.00000  Uiso   1.00
H262   H     0.42750   0.37677   0.44425   0.00000  Uiso   1.00
H263   H     0.51326   0.42347   0.63124   0.00000  Uiso   1.00
H264   H     0.38123   0.61372   0.55337   0.00000  Uiso   1.00
H265   H     0.44011   0.27072   0.33189   0.00000  Uiso   1.00
H266   H     0.62094   0.36922   0.72618   0.00000  Uiso   1.00
H267   H     0.34254   0.77040   0.56197   0.00000  Uiso   1.00
O268   O     0.54862   0.20332   0.25424   0.00000  Uiso   1.00
O269   O     0.78585   0.33256   0.77154   0.00000  Uiso   1.00
O270   O     0.42059   0.85890   0.55610   0.00000  Uiso   1.00
N271   N     0.62210   0.27574   0.32585   0.00000  Uiso   1.00
N272   N     0.79116   0.36782   0.69448   0.00000  Uiso   1.00
N273   N     0.53088   0.74290   0.54097   0.00000  Uiso   1.00
N274   N     0.49602   0.28132   0.33955   0.00000  Uiso   1.00
N275   N     0.66509   0.37339   0.70818   0.00000  Uiso   1.00
N276   N     0.40481   0.74847   0.55467   0.00000  Uiso   1.00
C277   C     0.86067   0.45862   0.14707   0.00000  Uiso   1.00
C278   C     0.80764   0.53388   0.13538   0.00000  Uiso   1.00
C279   C     0.72514   0.55147   0.10562   0.00000  Uiso   1.00
C280   C     0.68759   0.62339   0.09953   0.00000  Uiso   1.00
C281   C     0.59862   0.73229   0.07793   0.00000  Uiso   1.00
C282   C     0.88320   0.47545   0.21123   0.00000  Uiso   1.00
C283   C     0.86422   0.44390   0.24523   0.00000  Uiso   1.00
C284   C     0.89030   0.46664   0.30298   0.00000  Uiso   1.00
C285   C     0.91868   0.48478   0.39913   0.00000  Uiso   1.00
C286   C     0.94603   0.43264   0.12346   0.00000  Uiso   1.00
C287   C     0.97990   0.36509   0.08368   0.00000  Uiso   1.00
C288   C     0.05889   0.35178   0.06755   0.00000  Uiso   1.00
C289   C     0.18484   0.30345   0.02742   0.00000  Uiso   1.00
C290   C     0.94073   0.55508   0.18918   0.00000  Uiso   1.00
C291   C     0.85113   0.58627   0.15826   0.00000  Uiso   1.00
C292   C     0.81371   0.65819   0.15221   0.00000  Uiso   1.00
C293   C     0.73116   0.67588   0.12244   0.00000  Uiso   1.00
C294   C     0.92668   0.52784   0.23410   0.00000  Uiso   1.00
C295   C     0.95280   0.55062   0.29182   0.00000  Uiso   1.00
C296   C     0.93386   0.51913   0.32590   0.00000  Uiso   1.00
C297   C     0.98952   0.48503   0.14634   0.00000  Uiso   1.00
C298   C     0.06847   0.47182   0.13027   0.00000  Uiso   1.00
C299   C     0.10246   0.40426   0.09047   0.00000  Uiso   1.00
H300   H     0.82682   0.41783   0.12926   0.00000  Uiso   1.00
H301   H     0.69150   0.51090   0.08793   0.00000  Uiso   1.00
H302   H     0.83058   0.40335   0.22751   0.00000  Uiso   1.00
H303   H     0.94624   0.32456   0.06599   0.00000  Uiso   1.00
H304   H     0.56064   0.63721   0.05220   0.00000  Uiso   1.00
H305   H     0.85391   0.41042   0.34652   0.00000  Uiso   1.00
H306   H     0.09781   0.24426   0.00591   0.00000  Uiso   1.00
H307   H     0.97459   0.59587   0.20700   0.00000  Uiso   1.00
H308   H     0.84737   0.69872   0.16992   0.00000  Uiso   1.00
H309   H     0.98645   0.59117   0.30951   0.00000  Uiso   1.00
H310   H     0.10211   0.51237   0.14798   0.00000  Uiso   1.00
H311   H     0.68715   0.78965   0.11875   0.00000  Uiso   1.00
H312   H     0.98043   0.56285   0.41308   0.00000  Uiso   1.00
H313   H     0.22432   0.39669   0.07247   0.00000  Uiso   1.00
O314   O     0.53753   0.77788   0.05970   0.00000  Uiso   1.00
O315   O     0.92231   0.48032   0.44584   0.00000  Uiso   1.00
O316   O     0.24229   0.26233   0.99897   0.00000  Uiso   1.00
N317   N     0.60788   0.65897   0.07294   0.00000  Uiso   1.00
N318   N     0.88206   0.44694   0.34812   0.00000  Uiso   1.00
N319   N     0.11009   0.29158   0.02969   0.00000  Uiso   1.00
N320   N     0.67595   0.74099   0.10875   0.00000  Uiso   1.00
N321   N     0.95013   0.52896   0.38393   0.00000  Uiso   1.00
N322   N     0.17816   0.37361   0.06550   0.00000  Uiso   1.00
C323   C     0.89149   0.90261   0.05919   0.00000  Uiso   1.00
C324   C     0.92872   0.88646   0.11627   0.00000  Uiso   1.00
C325   C     0.88411   0.91297   0.16275   0.00000  Uiso   1.00
C326   C     0.92968   0.89185   0.21109   0.00000  Uiso   1.00
C327   C     0.97424   0.87375   0.29946   0.00000  Uiso   1.00
C328   C     0.90549   0.82643   0.01507   0.00000  Uiso   1.00
C329   C     0.84134   0.80247   0.97644   0.00000  Uiso   1.00
C330   C     0.86736   0.73081   0.93958   0.00000  Uiso   1.00
C331   C     0.87586   0.61952   0.87080   0.00000  Uiso   1.00
C332   C     0.95008   0.93692   0.04842   0.00000  Uiso   1.00
C333   C     0.92343   0.00585   0.03782   0.00000  Uiso   1.00
C334   C     0.98700   0.02721   0.02903   0.00000  Uiso   1.00
C335   C     0.06473   0.08748   0.01203   0.00000  Uiso   1.00
C336   C     0.05176   0.81796   0.06240   0.00000  Uiso   1.00
C337   C     0.01578   0.84048   0.11802   0.00000  Uiso   1.00
C338   C     0.06143   0.81932   0.16631   0.00000  Uiso   1.00
C339   C     0.01689   0.84580   0.21284   0.00000  Uiso   1.00
C340   C     0.99254   0.78045   0.01681   0.00000  Uiso   1.00
C341   C     0.01867   0.70881   0.98000   0.00000  Uiso   1.00
C342   C     0.95458   0.68475   0.94133   0.00000  Uiso   1.00
C343   C     0.03714   0.89094   0.05017   0.00000  Uiso   1.00
C344   C     0.10076   0.91220   0.04138   0.00000  Uiso   1.00
C345   C     0.07421   0.98115   0.03078   0.00000  Uiso   1.00
H346   H     0.82371   0.93840   0.05782   0.00000  Uiso   1.00
H347   H     0.81673   0.94855   0.16138   0.00000  Uiso   1.00
H348   H     0.77398   0.83806   0.97509   0.00000  Uiso   1.00
H349   H     0.85606   0.04142   0.03647   0.00000  Uiso   1.00
H350   H     0.84738   0.93950   0.27695   0.00000  Uiso   1.00
H351   H     0.75723   0.70655   0.88415   0.00000  Uiso   1.00
H352   H     0.93031   0.13536   0.01357   0.00000  Uiso   1.00
H353   H     0.11954   0.78216   0.06376   0.00000  Uiso   1.00
H354   H     0.12880   0.78373   0.16765   0.00000  Uiso   1.00
H355   H     0.08604   0.67325   0.98136   0.00000  Uiso   1.00
H356   H     0.16812   0.87660   0.04274   0.00000  Uiso   1.00
H357   H     0.10066   0.80573   0.28204   0.00000  Uiso   1.00
H358   H     0.01051   0.57278   0.88924   0.00000  Uiso   1.00
H359   H     0.18359   0.00158   0.01866   0.00000  Uiso   1.00
O360   O     0.97477   0.87645   0.34772   0.00000  Uiso   1.00
O361   O     0.85650   0.57083   0.83238   0.00000  Uiso   1.00
O362   O     0.08357   0.13342   0.00218   0.00000  Uiso   1.00
N363   N     0.90572   0.90782   0.26389   0.00000  Uiso   1.00
N364   N     0.82144   0.69001   0.89666   0.00000  Uiso   1.00
N365   N     0.98325   0.09091   0.01764   0.00000  Uiso   1.00
N366   N     0.04201   0.83583   0.26663   0.00000  Uiso   1.00
N367   N     0.95773   0.61803   0.89940   0.00000  Uiso   1.00
N368   N     0.11954   0.01892   0.02038   0.00000  Uiso   1.00
C369   C     0.98006   0.95355   0.55471   0.00000  Uiso   1.00
C370   C     0.02905   0.88804   0.50914   0.00000  Uiso   1.00
C371   C     0.99962   0.83069   0.47244   0.00000  Uiso   1.00
C372   C     0.05410   0.77597   0.43377   0.00000  Uiso   1.00
C373   C     0.11784   0.67388   0.36328   0.00000  Uiso   1.00
C374   C     0.97344   0.02438   0.54233   0.00000  Uiso   1.00
C375   C     0.89725   0.08165   0.53354   0.00000  Uiso   1.00
C376   C     0.90491   0.14171   0.52281   0.00000  Uiso   1.00
C377   C     0.88231   0.25131   0.50388   0.00000  Uiso   1.00
C378   C     0.03985   0.95155   0.61031   0.00000  Uiso   1.00
C379   C     0.01949   0.94760   0.65869   0.00000  Uiso   1.00
C380   C     0.08306   0.94635   0.70521   0.00000  Uiso   1.00
C381   C     0.16358   0.94286   0.79184   0.00000  Uiso   1.00
C382   C     0.12914   0.95838   0.55129   0.00000  Uiso   1.00
C383   C     0.11003   0.89067   0.50729   0.00000  Uiso   1.00
C384   C     0.16457   0.83603   0.46867   0.00000  Uiso   1.00
C385   C     0.13522   0.77860   0.43192   0.00000  Uiso   1.00
C386   C     0.05441   0.02701   0.54047   0.00000  Uiso   1.00
C387   C     0.06219   0.08700   0.52976   0.00000  Uiso   1.00
C388   C     0.98604   0.14434   0.52095   0.00000  Uiso   1.00
C389   C     0.12083   0.95417   0.60846   0.00000  Uiso   1.00
C390   C     0.18444   0.95294   0.65491   0.00000  Uiso   1.00
C391   C     0.16419   0.94898   0.70335   0.00000  Uiso   1.00
H392   H     0.91701   0.95151   0.55615   0.00000  Uiso   1.00
H393   H     0.93694   0.82868   0.47389   0.00000  Uiso   1.00
H394   H     0.83459   0.07961   0.53498   0.00000  Uiso   1.00
H395   H     0.95682   0.94557   0.66011   0.00000  Uiso   1.00
H396   H     0.99474   0.69367   0.38185   0.00000  Uiso   1.00
H397   H     0.77893   0.22278   0.51068   0.00000  Uiso   1.00
H398   H     0.03667   0.94013   0.77455   0.00000  Uiso   1.00
H399   H     0.19219   0.96043   0.54985   0.00000  Uiso   1.00
H400   H     0.22723   0.83807   0.46724   0.00000  Uiso   1.00
H401   H     0.12487   0.08901   0.52833   0.00000  Uiso   1.00
H402   H     0.24710   0.95497   0.65346   0.00000  Uiso   1.00
H403   H     0.23035   0.70129   0.37645   0.00000  Uiso   1.00
H404   H     0.01453   0.23041   0.50529   0.00000  Uiso   1.00
H405   H     0.27227   0.94776   0.76915   0.00000  Uiso   1.00
O406   O     0.13062   0.61685   0.32491   0.00000  Uiso   1.00
O407   O     0.84747   0.31103   0.49394   0.00000  Uiso   1.00
O408   O     0.18562   0.94020   0.84013   0.00000  Uiso   1.00
N409   N     0.04539   0.71224   0.39193   0.00000  Uiso   1.00
N410   N     0.84361   0.20693   0.51237   0.00000  Uiso   1.00
N411   N     0.08457   0.94270   0.75907   0.00000  Uiso   1.00
N412   N     0.17217   0.71635   0.38902   0.00000  Uiso   1.00
N413   N     0.97039   0.21103   0.50946   0.00000  Uiso   1.00
N414   N     0.21135   0.94680   0.75616   0.00000  Uiso   1.00
C415   C     0.37763   0.57404   0.20993   0.00000  Uiso   1.00
C416   C     0.41637   0.55406   0.15580   0.00000  Uiso   1.00
C417   C     0.37924   0.58790   0.11241   0.00000  Uiso   1.00
C418   C     0.42491   0.56157   0.06643   0.00000  Uiso   1.00
C419   C     0.47288   0.53936   0.98273   0.00000  Uiso   1.00
C420   C     0.37153   0.50164   0.21217   0.00000  Uiso   1.00
C421   C     0.29671   0.49141   0.21618   0.00000  Uiso   1.00
C422   C     0.30465   0.42097   0.21766   0.00000  Uiso   1.00
C423   C     0.28303   0.31739   0.22152   0.00000  Uiso   1.00
C424   C     0.44581   0.59314   0.25876   0.00000  Uiso   1.00
C425   C     0.43343   0.65984   0.30194   0.00000  Uiso   1.00
C426   C     0.50390   0.66642   0.34266   0.00000  Uiso   1.00
C427   C     0.59761   0.70492   0.41885   0.00000  Uiso   1.00
C428   C     0.52476   0.46713   0.20545   0.00000  Uiso   1.00
C429   C     0.49628   0.49599   0.15337   0.00000  Uiso   1.00
C430   C     0.54203   0.46961   0.10745   0.00000  Uiso   1.00
C431   C     0.50497   0.50340   0.06399   0.00000  Uiso   1.00
C432   C     0.45145   0.44357   0.20974   0.00000  Uiso   1.00
C433   C     0.45950   0.37313   0.21122   0.00000  Uiso   1.00
C434   C     0.38471   0.36279   0.21522   0.00000  Uiso   1.00
C435   C     0.52573   0.53507   0.25632   0.00000  Uiso   1.00
C436   C     0.59623   0.54155   0.29698   0.00000  Uiso   1.00
C437   C     0.58396   0.60825   0.34022   0.00000  Uiso   1.00
H438   H     0.31541   0.61925   0.21183   0.00000  Uiso   1.00
H439   H     0.31738   0.63283   0.11430   0.00000  Uiso   1.00
H440   H     0.23488   0.53636   0.21807   0.00000  Uiso   1.00
H441   H     0.37158   0.70476   0.30381   0.00000  Uiso   1.00
H442   H     0.35481   0.62226   0.00510   0.00000  Uiso   1.00
H443   H     0.18084   0.41887   0.22390   0.00000  Uiso   1.00
H444   H     0.46910   0.77397   0.40472   0.00000  Uiso   1.00
H445   H     0.58699   0.42191   0.20356   0.00000  Uiso   1.00
H446   H     0.60387   0.42467   0.10557   0.00000  Uiso   1.00
H447   H     0.52136   0.32820   0.20934   0.00000  Uiso   1.00
H448   H     0.65806   0.49660   0.29508   0.00000  Uiso   1.00
H449   H     0.58733   0.45331   0.99801   0.00000  Uiso   1.00
H450   H     0.41336   0.24991   0.21682   0.00000  Uiso   1.00
H451   H     0.70162   0.60502   0.39763   0.00000  Uiso   1.00
O452   O     0.47726   0.54314   0.93724   0.00000  Uiso   1.00
O453   O     0.24902   0.27630   0.22432   0.00000  Uiso   1.00
O454   O     0.62722   0.74219   0.46154   0.00000  Uiso   1.00
N455   N     0.40722   0.58213   0.01688   0.00000  Uiso   1.00
N456   N     0.24457   0.39196   0.22144   0.00000  Uiso   1.00
N457   N     0.51407   0.72395   0.39050   0.00000  Uiso   1.00
N458   N     0.53234   0.49122   0.01307   0.00000  Uiso   1.00
N459   N     0.36969   0.30105   0.21763   0.00000  Uiso   1.00
N460   N     0.63918   0.63304   0.38669   0.00000  Uiso   1.00
C461   C     0.41363   0.65052   0.73888   0.00000  Uiso   1.00
C462   C     0.39979   0.57648   0.72860   0.00000  Uiso   1.00
C463   C     0.33975   0.54976   0.68743   0.00000  Uiso   1.00
C464   C     0.33716   0.48078   0.68488   0.00000  Uiso   1.00
C465   C     0.30720   0.37203   0.66326   0.00000  Uiso   1.00
C466   C     0.40203   0.69307   0.80077   0.00000  Uiso   1.00
C467   C     0.34388   0.76438   0.82027   0.00000  Uiso   1.00
C468   C     0.34319   0.79354   0.87847   0.00000  Uiso   1.00
C469   C     0.31675   0.86582   0.96890   0.00000  Uiso   1.00
C470   C     0.50908   0.63062   0.73436   0.00000  Uiso   1.00
C471   C     0.54094   0.64944   0.69802   0.00000  Uiso   1.00
C472   C     0.63038   0.62604   0.70032   0.00000  Uiso   1.00
C473   C     0.77015   0.60136   0.68763   0.00000  Uiso   1.00
C474   C     0.51580   0.57553   0.80758   0.00000  Uiso   1.00
C475   C     0.45528   0.53576   0.76592   0.00000  Uiso   1.00
C476   C     0.45279   0.46679   0.76344   0.00000  Uiso   1.00
C477   C     0.39276   0.43997   0.72226   0.00000  Uiso   1.00
C478   C     0.45752   0.65235   0.83809   0.00000  Uiso   1.00
C479   C     0.45692   0.68141   0.89628   0.00000  Uiso   1.00
C480   C     0.39878   0.75274   0.91586   0.00000  Uiso   1.00
C481   C     0.56457   0.58989   0.77167   0.00000  Uiso   1.00
C482   C     0.65398   0.56647   0.77403   0.00000  Uiso   1.00
C483   C     0.68597   0.58524   0.73771   0.00000  Uiso   1.00
H484   H     0.37042   0.68224   0.70983   0.00000  Uiso   1.00
H485   H     0.29681   0.58130   0.65856   0.00000  Uiso   1.00
H486   H     0.30095   0.79589   0.79138   0.00000  Uiso   1.00
H487   H     0.49798   0.68096   0.66915   0.00000  Uiso   1.00
H488   H     0.23965   0.45144   0.61818   0.00000  Uiso   1.00
H489   H     0.24839   0.90392   0.89824   0.00000  Uiso   1.00
H490   H     0.66387   0.66158   0.64050   0.00000  Uiso   1.00
H491   H     0.55901   0.54382   0.83664   0.00000  Uiso   1.00
H492   H     0.49574   0.43529   0.79232   0.00000  Uiso   1.00
H493   H     0.49988   0.64988   0.92514   0.00000  Uiso   1.00
H494   H     0.69691   0.53495   0.80291   0.00000  Uiso   1.00
H495   H     0.40110   0.33294   0.72675   0.00000  Uiso   1.00
H496   H     0.40985   0.78542   0.00681   0.00000  Uiso   1.00
H497   H     0.82533   0.54307   0.74907   0.00000  Uiso   1.00
O498   O     0.27534   0.32330   0.64104   0.00000  Uiso   1.00
O499   O     0.28682   0.91694   0.00846   0.00000  Uiso   1.00
O500   O     0.83191   0.59898   0.67031   0.00000  Uiso   1.00
N501   N     0.28634   0.43844   0.64981   0.00000  Uiso   1.00
N502   N     0.29451   0.86148   0.91165   0.00000  Uiso   1.00
N503   N     0.68294   0.63492   0.67069   0.00000  Uiso   1.00
N504   N     0.37322   0.37467   0.70823   0.00000  Uiso   1.00
N505   N     0.38139   0.79771   0.97007   0.00000  Uiso   1.00
N506   N     0.76982   0.57115   0.72911   0.00000  Uiso   1.00
C507   C     0.50679   0.13420   0.65657   0.00000  Uiso   1.00
C508   C     0.55055   0.18227   0.70616   0.00000  Uiso   1.00
C509   C     0.51510   0.23033   0.75527   0.00000  Uiso   1.00
C510   C     0.56548   0.26938   0.79562   0.00000  Uiso   1.00
C511   C     0.62082   0.34539   0.87390   0.00000  Uiso   1.00
C512   C     0.50589   0.15556   0.60433   0.00000  Uiso   1.00
C513   C     0.43288   0.18115   0.56782   0.00000  Uiso   1.00
C514   C     0.44568   0.19770   0.52245   0.00000  Uiso   1.00
C515   C     0.43168   0.23218   0.44261   0.00000  Uiso   1.00
C516   C     0.56844   0.05372   0.64849   0.00000  Uiso   1.00
C517   C     0.54803   0.99368   0.64909   0.00000  Uiso   1.00
C518   C     0.61348   0.92449   0.64088   0.00000  Uiso   1.00
C519   C     0.69661   0.80086   0.62961   0.00000  Uiso   1.00
C520   C     0.65932   0.11808   0.64091   0.00000  Uiso   1.00
C521   C     0.63340   0.17351   0.69765   0.00000  Uiso   1.00
C522   C     0.68386   0.21250   0.73794   0.00000  Uiso   1.00
C523   C     0.64848   0.26061   0.78710   0.00000  Uiso   1.00
C524   C     0.58874   0.14680   0.59582   0.00000  Uiso   1.00
C525   C     0.60164   0.16331   0.55049   0.00000  Uiso   1.00
C526   C     0.52867   0.18893   0.51392   0.00000  Uiso   1.00
C527   C     0.65130   0.04496   0.63998   0.00000  Uiso   1.00
C528   C     0.71679   0.97585   0.63177   0.00000  Uiso   1.00
C529   C     0.69648   0.91572   0.63236   0.00000  Uiso   1.00
H530   H     0.44228   0.14101   0.66319   0.00000  Uiso   1.00
H531   H     0.45097   0.23710   0.76183   0.00000  Uiso   1.00
H532   H     0.36878   0.18791   0.57441   0.00000  Uiso   1.00
H533   H     0.48391   0.00048   0.65567   0.00000  Uiso   1.00
H534   H     0.49713   0.33979   0.86743   0.00000  Uiso   1.00
H535   H     0.32382   0.23605   0.47223   0.00000  Uiso   1.00
H536   H     0.56659   0.84081   0.64359   0.00000  Uiso   1.00
H537   H     0.72383   0.11126   0.63429   0.00000  Uiso   1.00
H538   H     0.74797   0.20571   0.73135   0.00000  Uiso   1.00
H539   H     0.66577   0.15653   0.54392   0.00000  Uiso   1.00
H540   H     0.78090   0.96909   0.62519   0.00000  Uiso   1.00
H541   H     0.73818   0.31431   0.84269   0.00000  Uiso   1.00
H542   H     0.56487   0.21058   0.44749   0.00000  Uiso   1.00
H543   H     0.80764   0.81534   0.61885   0.00000  Uiso   1.00
O544   O     0.62845   0.38974   0.91942   0.00000  Uiso   1.00
O545   O     0.40107   0.25363   0.40093   0.00000  Uiso   1.00
O546   O     0.71957   0.73508   0.62575   0.00000  Uiso   1.00
N547   N     0.55056   0.32082   0.84829   0.00000  Uiso   1.00
N548   N     0.38852   0.22384   0.47881   0.00000  Uiso   1.00
N549   N     0.61548   0.85432   0.63900   0.00000  Uiso   1.00
N550   N     0.68027   0.30711   0.83498   0.00000  Uiso   1.00
N551   N     0.51822   0.21014   0.46550   0.00000  Uiso   1.00
N552   N     0.74519   0.84061   0.62569   0.00000  Uiso   1.00
