data_job_06496
_audit_creation_date              2018-12-19
_audit_creation_method            'Materials Studio'
_symmetry_space_group_name_H-M    'P1'
_symmetry_Int_Tables_number       1
_symmetry_cell_setting            triclinic
loop_
_symmetry_equiv_pos_as_xyz
  x,y,z
_cell_length_a                    14.8520
_cell_length_b                    23.1652
_cell_length_c                    23.6273
_cell_angle_alpha                 102.0710
_cell_angle_beta                  107.3867
_cell_angle_gamma                 106.9889
loop_
_atom_site_label
_atom_site_type_symbol
_atom_site_fract_x
_atom_site_fract_y
_atom_site_fract_z
_atom_site_U_iso_or_equiv
_atom_site_adp_type
_atom_site_occupancy
C1     C     0.39390   0.29995   0.96174   0.00000  Uiso   1.00
C2     C     0.39617   0.31942   0.90423   0.00000  Uiso   1.00
C3     C     0.31751   0.32861   0.86254   0.00000  Uiso   1.00
C4     C     0.33453   0.34633   0.81287   0.00000  Uiso   1.00
C5     C     0.32399   0.37527   0.72472   0.00000  Uiso   1.00
C6     C     0.41679   0.23940   0.95392   0.00000  Uiso   1.00
C7     C     0.35547   0.18131   0.95402   0.00000  Uiso   1.00
C8     C     0.38986   0.13168   0.94619   0.00000  Uiso   1.00
C9     C     0.41137   0.03640   0.93523   0.00000  Uiso   1.00
C10    C     0.48528   0.35140   0.01742   0.00000  Uiso   1.00
C11    C     0.48156   0.38748   0.07092   0.00000  Uiso   1.00
C12    C     0.57362   0.43214   0.11656   0.00000  Uiso   1.00
C13    C     0.70147   0.51076   0.20419   0.00000  Uiso   1.00
C14    C     0.56399   0.31508   0.94768   0.00000  Uiso   1.00
C15    C     0.48856   0.32763   0.89660   0.00000  Uiso   1.00
C16    C     0.50570   0.34534   0.84698   0.00000  Uiso   1.00
C17    C     0.42708   0.35456   0.80522   0.00000  Uiso   1.00
C18    C     0.50918   0.24761   0.94629   0.00000  Uiso   1.00
C19    C     0.54366   0.19805   0.93846   0.00000  Uiso   1.00
C20    C     0.48241   0.13991   0.93854   0.00000  Uiso   1.00
C21    C     0.57767   0.35962   0.00979   0.00000  Uiso   1.00
C22    C     0.66975   0.40422   0.05536   0.00000  Uiso   1.00
C23    C     0.66617   0.44036   0.10891   0.00000  Uiso   1.00
H24    H     0.32197   0.29355   0.96769   0.00000  Uiso   1.00
H25    H     0.24602   0.32224   0.86846   0.00000  Uiso   1.00
H26    H     0.28399   0.17497   0.95994   0.00000  Uiso   1.00
H27    H     0.41006   0.38111   0.07681   0.00000  Uiso   1.00
H28    H     0.20255   0.35765   0.75507   0.00000  Uiso   1.00
H29    H     0.28262   0.04713   0.94797   0.00000  Uiso   1.00
H30    H     0.54846   0.48181   0.19443   0.00000  Uiso   1.00
H31    H     0.63592   0.32147   0.94173   0.00000  Uiso   1.00
H32    H     0.57720   0.35170   0.84108   0.00000  Uiso   1.00
H33    H     0.61516   0.20443   0.93255   0.00000  Uiso   1.00
H34    H     0.74123   0.41057   0.04943   0.00000  Uiso   1.00
H35    H     0.47135   0.38155   0.73284   0.00000  Uiso   1.00
H36    H     0.55141   0.07103   0.92574   0.00000  Uiso   1.00
H37    H     0.81725   0.50572   0.17220   0.00000  Uiso   1.00
O38    O     0.29265   0.38896   0.67820   0.00000  Uiso   1.00
O39    O     0.39770   0.98157   0.93129   0.00000  Uiso   1.00
O40    O     0.74647   0.55187   0.25464   0.00000  Uiso   1.00
N41    N     0.27388   0.35914   0.76366   0.00000  Uiso   1.00
N42    N     0.34873   0.06882   0.94400   0.00000  Uiso   1.00
N43    N     0.59727   0.47520   0.17443   0.00000  Uiso   1.00
N44    N     0.41852   0.37200   0.75170   0.00000  Uiso   1.00
N45    N     0.49336   0.08168   0.93204   0.00000  Uiso   1.00
N46    N     0.74190   0.48806   0.16247   0.00000  Uiso   1.00
C47    C     0.40944   0.97471   0.29437   0.00000  Uiso   1.00
C48    C     0.45668   0.02531   0.35894   0.00000  Uiso   1.00
C49    C     0.41209   0.02949   0.40278   0.00000  Uiso   1.00
C50    C     0.46766   0.07929   0.45909   0.00000  Uiso   1.00
C51    C     0.52628   0.15118   0.55752   0.00000  Uiso   1.00
C52    C     0.40767   0.01097   0.24737   0.00000  Uiso   1.00
C53    C     0.32188   0.00310   0.19739   0.00000  Uiso   1.00
C54    C     0.33621   0.04082   0.15978   0.00000  Uiso   1.00
C55    C     0.31876   0.09043   0.08496   0.00000  Uiso   1.00
C56    C     0.48592   0.94335   0.29192   0.00000  Uiso   1.00
C57    C     0.46592   0.87861   0.27939   0.00000  Uiso   1.00
C58    C     0.54611   0.85940   0.27928   0.00000  Uiso   1.00
C59    C     0.65016   0.80401   0.27364   0.00000  Uiso   1.00
C60    C     0.58742   0.05569   0.31644   0.00000  Uiso   1.00
C61    C     0.55335   0.06929   0.37093   0.00000  Uiso   1.00
C62    C     0.60900   0.11909   0.42719   0.00000  Uiso   1.00
C63    C     0.56450   0.12335   0.47110   0.00000  Uiso   1.00
C64    C     0.50434   0.05496   0.25935   0.00000  Uiso   1.00
C65    C     0.51880   0.09270   0.22181   0.00000  Uiso   1.00
C66    C     0.43305   0.08489   0.17179   0.00000  Uiso   1.00
C67    C     0.58259   0.98734   0.30391   0.00000  Uiso   1.00
C68    C     0.66283   0.96822   0.30381   0.00000  Uiso   1.00
C69    C     0.64296   0.90347   0.29128   0.00000  Uiso   1.00
H70    H     0.33417   0.94046   0.28504   0.00000  Uiso   1.00
H71    H     0.33727   0.99544   0.39348   0.00000  Uiso   1.00
H72    H     0.24709   0.96905   0.18812   0.00000  Uiso   1.00
H73    H     0.39110   0.84459   0.27012   0.00000  Uiso   1.00
H74    H     0.38332   0.07581   0.51898   0.00000  Uiso   1.00
H75    H     0.19316   0.02015   0.08597   0.00000  Uiso   1.00
H76    H     0.49684   0.75769   0.25886   0.00000  Uiso   1.00
H77    H     0.66268   0.08994   0.32577   0.00000  Uiso   1.00
H78    H     0.68381   0.15313   0.43646   0.00000  Uiso   1.00
H79    H     0.59362   0.12673   0.23109   0.00000  Uiso   1.00
H80    H     0.73763   0.00227   0.31309   0.00000  Uiso   1.00
H81    H     0.66458   0.20380   0.55386   0.00000  Uiso   1.00
H82    H     0.47442   0.14813   0.12084   0.00000  Uiso   1.00
H83    H     0.77810   0.88567   0.29374   0.00000  Uiso   1.00
O84    O     0.53191   0.17869   0.60849   0.00000  Uiso   1.00
O85    O     0.28243   0.10564   0.04038   0.00000  Uiso   1.00
O86    O     0.68085   0.76131   0.26722   0.00000  Uiso   1.00
N87    N     0.44663   0.09726   0.51201   0.00000  Uiso   1.00
N88    N     0.26884   0.04522   0.10717   0.00000  Uiso   1.00
N89    N     0.55274   0.79984   0.26879   0.00000  Uiso   1.00
N90    N     0.59797   0.16612   0.53078   0.00000  Uiso   1.00
N91    N     0.42018   0.11409   0.12594   0.00000  Uiso   1.00
N92    N     0.70409   0.86871   0.28756   0.00000  Uiso   1.00
C93    C     0.18763   0.68524   0.71250   0.00000  Uiso   1.00
C94    C     0.17240   0.61488   0.69557   0.00000  Uiso   1.00
C95    C     0.08480   0.56456   0.65183   0.00000  Uiso   1.00
C96    C     0.08600   0.50367   0.64311   0.00000  Uiso   1.00
C97    C     0.04929   0.39596   0.61170   0.00000  Uiso   1.00
C98    C     0.21625   0.70896   0.78316   0.00000  Uiso   1.00
C99    C     0.16552   0.73774   0.81306   0.00000  Uiso   1.00
C100   C     0.20364   0.75606   0.87808   0.00000  Uiso   1.00
C101   C     0.23505   0.79445   0.98265   0.00000  Uiso   1.00
C102   C     0.28244   0.71909   0.70147   0.00000  Uiso   1.00
C103   C     0.28738   0.75642   0.66271   0.00000  Uiso   1.00
C104   C     0.38124   0.78328   0.65896   0.00000  Uiso   1.00
C105   C     0.51542   0.83741   0.63670   0.00000  Uiso   1.00
C106   C     0.34553   0.66659   0.77480   0.00000  Uiso   1.00
C107   C     0.25817   0.60475   0.72941   0.00000  Uiso   1.00
C108   C     0.25950   0.54392   0.72075   0.00000  Uiso   1.00
C109   C     0.17192   0.49352   0.67701   0.00000  Uiso   1.00
C110   C     0.30201   0.69883   0.81700   0.00000  Uiso   1.00
C111   C     0.34022   0.71711   0.88199   0.00000  Uiso   1.00
C112   C     0.28956   0.74591   0.91198   0.00000  Uiso   1.00
C113   C     0.36821   0.70897   0.73531   0.00000  Uiso   1.00
C114   C     0.46208   0.73578   0.73163   0.00000  Uiso   1.00
C115   C     0.46716   0.77313   0.69286   0.00000  Uiso   1.00
H116   H     0.12086   0.69313   0.68616   0.00000  Uiso   1.00
H117   H     0.01844   0.57241   0.62566   0.00000  Uiso   1.00
H118   H     0.09916   0.74558   0.78687   0.00000  Uiso   1.00
H119   H     0.22100   0.76424   0.63653   0.00000  Uiso   1.00
H120   H     0.94270   0.43411   0.57352   0.00000  Uiso   1.00
H121   H     0.11291   0.79926   0.91343   0.00000  Uiso   1.00
H122   H     0.36984   0.83863   0.59642   0.00000  Uiso   1.00
H123   H     0.41231   0.65871   0.80114   0.00000  Uiso   1.00
H124   H     0.32588   0.53610   0.74695   0.00000  Uiso   1.00
H125   H     0.40660   0.70927   0.90815   0.00000  Uiso   1.00
H126   H     0.52843   0.72793   0.75782   0.00000  Uiso   1.00
H127   H     0.19223   0.40464   0.67196   0.00000  Uiso   1.00
H128   H     0.36245   0.76980   0.01188   0.00000  Uiso   1.00
H129   H     0.61937   0.80915   0.69487   0.00000  Uiso   1.00
O130   O     0.00534   0.33934   0.58503   0.00000  Uiso   1.00
O131   O     0.22867   0.81842   0.03098   0.00000  Uiso   1.00
O132   O     0.56574   0.87005   0.61507   0.00000  Uiso   1.00
N133   N     0.01330   0.44400   0.60412   0.00000  Uiso   1.00
N134   N     0.17243   0.78539   0.92192   0.00000  Uiso   1.00
N135   N     0.41263   0.82220   0.62555   0.00000  Uiso   1.00
N136   N     0.14757   0.42814   0.65709   0.00000  Uiso   1.00
N137   N     0.30670   0.76953   0.97489   0.00000  Uiso   1.00
N138   N     0.54690   0.80634   0.67852   0.00000  Uiso   1.00
C139   C     0.76586   0.70762   0.74344   0.00000  Uiso   1.00
C140   C     0.71858   0.69329   0.67272   0.00000  Uiso   1.00
C141   C     0.61744   0.68101   0.63805   0.00000  Uiso   1.00
C142   C     0.58914   0.66900   0.57387   0.00000  Uiso   1.00
C143   C     0.50503   0.64674   0.46840   0.00000  Uiso   1.00
C144   C     0.85514   0.77174   0.76875   0.00000  Uiso   1.00
C145   C     0.86882   0.82540   0.81483   0.00000  Uiso   1.00
C146   C     0.95550   0.87943   0.83150   0.00000  Uiso   1.00
C147   C     0.08343   0.97894   0.87515   0.00000  Uiso   1.00
C148   C     0.81269   0.65819   0.75298   0.00000  Uiso   1.00
C149   C     0.79069   0.61640   0.78581   0.00000  Uiso   1.00
C150   C     0.84165   0.57484   0.78922   0.00000  Uiso   1.00
C151   C     0.90367   0.49806   0.80838   0.00000  Uiso   1.00
C152   C     0.89547   0.70813   0.69113   0.00000  Uiso   1.00
C153   C     0.78898   0.69357   0.64431   0.00000  Uiso   1.00
C154   C     0.76084   0.68158   0.58017   0.00000  Uiso   1.00
C155   C     0.65967   0.66928   0.54540   0.00000  Uiso   1.00
C156   C     0.92554   0.77201   0.74034   0.00000  Uiso   1.00
C157   C     0.01222   0.82597   0.75695   0.00000  Uiso   1.00
C158   C     0.02602   0.87971   0.80303   0.00000  Uiso   1.00
C159   C     0.88309   0.65847   0.72457   0.00000  Uiso   1.00
C160   C     0.93409   0.61697   0.72793   0.00000  Uiso   1.00
C161   C     0.91217   0.57512   0.76075   0.00000  Uiso   1.00
H162   H     0.71106   0.70741   0.76556   0.00000  Uiso   1.00
H163   H     0.56298   0.68081   0.66005   0.00000  Uiso   1.00
H164   H     0.81433   0.82517   0.83681   0.00000  Uiso   1.00
H165   H     0.73621   0.61620   0.80779   0.00000  Uiso   1.00
H166   H     0.42986   0.65146   0.53055   0.00000  Uiso   1.00
H167   H     0.95987   0.95586   0.90327   0.00000  Uiso   1.00
H168   H     0.79514   0.51520   0.84209   0.00000  Uiso   1.00
H169   H     0.95029   0.70835   0.66901   0.00000  Uiso   1.00
H170   H     0.81533   0.68179   0.55820   0.00000  Uiso   1.00
H171   H     0.06669   0.82616   0.73496   0.00000  Uiso   1.00
H172   H     0.98856   0.61719   0.70594   0.00000  Uiso   1.00
H173   H     0.63468   0.65226   0.44788   0.00000  Uiso   1.00
H174   H     0.16470   0.95666   0.82061   0.00000  Uiso   1.00
H175   H     0.99996   0.51601   0.75942   0.00000  Uiso   1.00
O176   O     0.43919   0.63440   0.41807   0.00000  Uiso   1.00
O177   O     0.13455   0.03375   0.90707   0.00000  Uiso   1.00
O178   O     0.91842   0.45562   0.82679   0.00000  Uiso   1.00
N179   N     0.49658   0.65528   0.52630   0.00000  Uiso   1.00
N180   N     0.99210   0.93988   0.87476   0.00000  Uiso   1.00
N181   N     0.83811   0.52791   0.81758   0.00000  Uiso   1.00
N182   N     0.60680   0.65571   0.48182   0.00000  Uiso   1.00
N183   N     0.10231   0.94031   0.83028   0.00000  Uiso   1.00
N184   N     0.94832   0.52835   0.77309   0.00000  Uiso   1.00
C185   C     0.95298   0.06725   0.38002   0.00000  Uiso   1.00
C186   C     0.95172   0.00643   0.39555   0.00000  Uiso   1.00
C187   C     0.88444   0.97238   0.41784   0.00000  Uiso   1.00
C188   C     0.89578   0.91796   0.42917   0.00000  Uiso   1.00
C189   C     0.88225   0.82648   0.45487   0.00000  Uiso   1.00
C190   C     0.94280   0.05343   0.31191   0.00000  Uiso   1.00
C191   C     0.86802   0.05891   0.26389   0.00000  Uiso   1.00
C192   C     0.87186   0.04406   0.20482   0.00000  Uiso   1.00
C193   C     0.84451   0.02559   0.10069   0.00000  Uiso   1.00
C194   C     0.06021   0.11717   0.41920   0.00000  Uiso   1.00
C195   C     0.08416   0.17625   0.46139   0.00000  Uiso   1.00
C196   C     0.18685   0.21507   0.49263   0.00000  Uiso   1.00
C197   C     0.34180   0.29556   0.55508   0.00000  Uiso   1.00
C198   C     0.09277   0.03116   0.36049   0.00000  Uiso   1.00
C199   C     0.02765   0.98682   0.38494   0.00000  Uiso   1.00
C200   C     0.03910   0.93244   0.39624   0.00000  Uiso   1.00
C201   C     0.97185   0.89832   0.41855   0.00000  Uiso   1.00
C202   C     0.01872   0.03382   0.30130   0.00000  Uiso   1.00
C203   C     0.02268   0.01897   0.24229   0.00000  Uiso   1.00
C204   C     0.94792   0.02442   0.19420   0.00000  Uiso   1.00
C205   C     0.13614   0.09756   0.40860   0.00000  Uiso   1.00
C206   C     0.23881   0.13630   0.43978   0.00000  Uiso   1.00
C207   C     0.26292   0.19542   0.48201   0.00000  Uiso   1.00
H208   H     0.89387   0.08252   0.38827   0.00000  Uiso   1.00
H209   H     0.82569   0.98757   0.42604   0.00000  Uiso   1.00
H210   H     0.80928   0.07409   0.27212   0.00000  Uiso   1.00
H211   H     0.02538   0.19140   0.46958   0.00000  Uiso   1.00
H212   H     0.78356   0.87363   0.46322   0.00000  Uiso   1.00
H213   H     0.74898   0.05609   0.13867   0.00000  Uiso   1.00
H214   H     0.20468   0.30347   0.55505   0.00000  Uiso   1.00
H215   H     0.15188   0.01589   0.35223   0.00000  Uiso   1.00
H216   H     0.09786   0.91728   0.38803   0.00000  Uiso   1.00
H217   H     0.08145   0.00380   0.23410   0.00000  Uiso   1.00
H218   H     0.29755   0.12111   0.43156   0.00000  Uiso   1.00
H219   H     0.00446   0.81658   0.43236   0.00000  Uiso   1.00
H220   H     0.96988   0.99904   0.10781   0.00000  Uiso   1.00
H221   H     0.42558   0.24642   0.52420   0.00000  Uiso   1.00
O222   O     0.85380   0.78143   0.47197   0.00000  Uiso   1.00
O223   O     0.80844   0.02081   0.04618   0.00000  Uiso   1.00
O224   O     0.40630   0.34537   0.59247   0.00000  Uiso   1.00
N225   N     0.84298   0.87375   0.45105   0.00000  Uiso   1.00
N226   N     0.81063   0.04432   0.14762   0.00000  Uiso   1.00
N227   N     0.23667   0.27561   0.53689   0.00000  Uiso   1.00
N228   N     0.96184   0.84305   0.43445   0.00000  Uiso   1.00
N229   N     0.92950   0.01362   0.13102   0.00000  Uiso   1.00
N230   N     0.35554   0.24491   0.52029   0.00000  Uiso   1.00
C231   C     0.89821   0.27646   0.94310   0.00000  Uiso   1.00
C232   C     0.97011   0.34352   0.98706   0.00000  Uiso   1.00
C233   C     0.94563   0.38512   0.02561   0.00000  Uiso   1.00
C234   C     0.02209   0.44434   0.06233   0.00000  Uiso   1.00
C235   C     0.11895   0.54589   0.13088   0.00000  Uiso   1.00
C236   C     0.95085   0.23198   0.96194   0.00000  Uiso   1.00
C237   C     0.91016   0.17979   0.97936   0.00000  Uiso   1.00
C238   C     0.97041   0.14512   0.99493   0.00000  Uiso   1.00
C239   C     0.03732   0.07347   0.02444   0.00000  Uiso   1.00
C240   C     0.89656   0.27526   0.87802   0.00000  Uiso   1.00
C241   C     0.81021   0.25944   0.82488   0.00000  Uiso   1.00
C242   C     0.82475   0.26119   0.76978   0.00000  Uiso   1.00
C243   C     0.80737   0.25674   0.66899   0.00000  Uiso   1.00
C244   C     0.07755   0.30768   0.93976   0.00000  Uiso   1.00
C245   C     0.06752   0.36048   0.98524   0.00000  Uiso   1.00
C246   C     0.14405   0.41966   0.02191   0.00000  Uiso   1.00
C247   C     0.11968   0.46134   0.06050   0.00000  Uiso   1.00
C248   C     0.04826   0.24894   0.96012   0.00000  Uiso   1.00
C249   C     0.10858   0.21434   0.97566   0.00000  Uiso   1.00
C250   C     0.06800   0.16211   0.99310   0.00000  Uiso   1.00
C251   C     0.99397   0.29222   0.87620   0.00000  Uiso   1.00
C252   C     0.00864   0.29399   0.82118   0.00000  Uiso   1.00
C253   C     0.92234   0.27818   0.76796   0.00000  Uiso   1.00
H254   H     0.82237   0.26325   0.94452   0.00000  Uiso   1.00
H255   H     0.87024   0.37197   0.02701   0.00000  Uiso   1.00
H256   H     0.83477   0.16668   0.98076   0.00000  Uiso   1.00
H257   H     0.73485   0.24632   0.82630   0.00000  Uiso   1.00
H258   H     0.96628   0.49998   0.11768   0.00000  Uiso   1.00
H259   H     0.89148   0.06709   0.02014   0.00000  Uiso   1.00
H260   H     0.68077   0.23503   0.69443   0.00000  Uiso   1.00
H261   H     0.15339   0.32088   0.93834   0.00000  Uiso   1.00
H262   H     0.21942   0.43277   0.02049   0.00000  Uiso   1.00
H263   H     0.18396   0.22747   0.97424   0.00000  Uiso   1.00
H264   H     0.08403   0.30711   0.81978   0.00000  Uiso   1.00
H265   H     0.24969   0.54932   0.11239   0.00000  Uiso   1.00
H266   H     0.17489   0.11643   0.01485   0.00000  Uiso   1.00
H267   H     0.96418   0.28437   0.68914   0.00000  Uiso   1.00
O268   O     0.14546   0.59721   0.16920   0.00000  Uiso   1.00
O269   O     0.04732   0.02927   0.04122   0.00000  Uiso   1.00
O270   O     0.77087   0.24960   0.61390   0.00000  Uiso   1.00
N271   N     0.02391   0.49624   0.10515   0.00000  Uiso   1.00
N272   N     0.95399   0.09152   0.01397   0.00000  Uiso   1.00
N273   N     0.75698   0.24852   0.70945   0.00000  Uiso   1.00
N274   N     0.17641   0.52279   0.10230   0.00000  Uiso   1.00
N275   N     0.10649   0.11807   0.01112   0.00000  Uiso   1.00
N276   N     0.90948   0.27507   0.70661   0.00000  Uiso   1.00
C277   C     0.52053   0.66681   0.09086   0.00000  Uiso   1.00
C278   C     0.51083   0.64786   0.14746   0.00000  Uiso   1.00
C279   C     0.58006   0.63072   0.18755   0.00000  Uiso   1.00
C280   C     0.55740   0.61501   0.23661   0.00000  Uiso   1.00
C281   C     0.55585   0.58540   0.32321   0.00000  Uiso   1.00
C282   C     0.51527   0.73276   0.10118   0.00000  Uiso   1.00
C283   C     0.58824   0.78702   0.10235   0.00000  Uiso   1.00
C284   C     0.56930   0.84277   0.11245   0.00000  Uiso   1.00
C285   C     0.57462   0.94498   0.12715   0.00000  Uiso   1.00
C286   C     0.42354   0.62155   0.03479   0.00000  Uiso   1.00
C287   C     0.41937   0.58231   0.98014   0.00000  Uiso   1.00
C288   C     0.32320   0.54444   0.93433   0.00000  Uiso   1.00
C289   C     0.18609   0.47398   0.84595   0.00000  Uiso   1.00
C290   C     0.35715   0.66936   0.10668   0.00000  Uiso   1.00
C291   C     0.42209   0.64924   0.15605   0.00000  Uiso   1.00
C292   C     0.39930   0.63355   0.20506   0.00000  Uiso   1.00
C293   C     0.46849   0.61639   0.24522   0.00000  Uiso   1.00
C294   C     0.42653   0.73415   0.10977   0.00000  Uiso   1.00
C295   C     0.40748   0.78984   0.11986   0.00000  Uiso   1.00
C296   C     0.48040   0.84416   0.12106   0.00000  Uiso   1.00
C297   C     0.33479   0.62294   0.04338   0.00000  Uiso   1.00
C298   C     0.23861   0.58513   0.99765   0.00000  Uiso   1.00
C299   C     0.23430   0.54583   0.94294   0.00000  Uiso   1.00
H300   H     0.58962   0.66573   0.08417   0.00000  Uiso   1.00
H301   H     0.64874   0.62967   0.18089   0.00000  Uiso   1.00
H302   H     0.65690   0.78593   0.09570   0.00000  Uiso   1.00
H303   H     0.48806   0.58125   0.97350   0.00000  Uiso   1.00
H304   H     0.67516   0.59031   0.29193   0.00000  Uiso   1.00
H305   H     0.69236   0.91980   0.11227   0.00000  Uiso   1.00
H306   H     0.33633   0.48820   0.85460   0.00000  Uiso   1.00
H307   H     0.28806   0.67043   0.11337   0.00000  Uiso   1.00
H308   H     0.33062   0.63462   0.21170   0.00000  Uiso   1.00
H309   H     0.33879   0.79089   0.12651   0.00000  Uiso   1.00
H310   H     0.16995   0.58621   0.00431   0.00000  Uiso   1.00
H311   H     0.41697   0.59434   0.31694   0.00000  Uiso   1.00
H312   H     0.43417   0.92383   0.13728   0.00000  Uiso   1.00
H313   H     0.07814   0.49222   0.87961   0.00000  Uiso   1.00
O314   O     0.57952   0.56870   0.36860   0.00000  Uiso   1.00
O315   O     0.60208   0.00097   0.13289   0.00000  Uiso   1.00
O316   O     0.13498   0.43472   0.79483   0.00000  Uiso   1.00
N317   N     0.60854   0.59616   0.28431   0.00000  Uiso   1.00
N318   N     0.62463   0.90421   0.11636   0.00000  Uiso   1.00
N319   N     0.29177   0.50072   0.87545   0.00000  Uiso   1.00
N320   N     0.46961   0.59833   0.29777   0.00000  Uiso   1.00
N321   N     0.48570   0.90638   0.12981   0.00000  Uiso   1.00
N322   N     0.15284   0.50288   0.88890   0.00000  Uiso   1.00
C323   C     0.42682   0.02672   0.73454   0.00000  Uiso   1.00
C324   C     0.38198   0.98543   0.66585   0.00000  Uiso   1.00
C325   C     0.42317   0.99596   0.62164   0.00000  Uiso   1.00
C326   C     0.37064   0.95271   0.56126   0.00000  Uiso   1.00
C327   C     0.31481   0.89647   0.45696   0.00000  Uiso   1.00
C328   C     0.44127   0.98210   0.77258   0.00000  Uiso   1.00
C329   C     0.53230   0.98983   0.81812   0.00000  Uiso   1.00
C330   C     0.52968   0.94378   0.84761   0.00000  Uiso   1.00
C331   C     0.56588   0.88239   0.90905   0.00000  Uiso   1.00
C332   C     0.34309   0.04716   0.74560   0.00000  Uiso   1.00
C333   C     0.35158   0.10961   0.76847   0.00000  Uiso   1.00
C334   C     0.26630   0.11834   0.77525   0.00000  Uiso   1.00
C335   C     0.15007   0.15798   0.79481   0.00000  Uiso   1.00
C336   C     0.26030   0.93119   0.70594   0.00000  Uiso   1.00
C337   C     0.29154   0.93354   0.65031   0.00000  Uiso   1.00
C338   C     0.23893   0.89026   0.58999   0.00000  Uiso   1.00
C339   C     0.28003   0.90073   0.54570   0.00000  Uiso   1.00
C340   C     0.35083   0.93021   0.75705   0.00000  Uiso   1.00
C341   C     0.34807   0.88413   0.78648   0.00000  Uiso   1.00
C342   C     0.43907   0.89179   0.83204   0.00000  Uiso   1.00
C343   C     0.25264   0.99528   0.73006   0.00000  Uiso   1.00
C344   C     0.16734   0.00391   0.73682   0.00000  Uiso   1.00
C345   C     0.17570   0.06635   0.75969   0.00000  Uiso   1.00
H346   H     0.49723   0.06712   0.74664   0.00000  Uiso   1.00
H347   H     0.49317   0.03612   0.63368   0.00000  Uiso   1.00
H348   H     0.60228   0.02999   0.83014   0.00000  Uiso   1.00
H349   H     0.42158   0.14975   0.78049   0.00000  Uiso   1.00
H350   H     0.44879   0.97885   0.50159   0.00000  Uiso   1.00
H351   H     0.67885   0.96595   0.91585   0.00000  Uiso   1.00
H352   H     0.29782   0.21848   0.81116   0.00000  Uiso   1.00
H353   H     0.18988   0.89079   0.69384   0.00000  Uiso   1.00
H354   H     0.16894   0.85011   0.57798   0.00000  Uiso   1.00
H355   H     0.27806   0.84399   0.77444   0.00000  Uiso   1.00
H356   H     0.09736   0.96374   0.72479   0.00000  Uiso   1.00
H357   H     0.18564   0.82788   0.45639   0.00000  Uiso   1.00
H358   H     0.41570   0.81498   0.87065   0.00000  Uiso   1.00
H359   H     0.03467   0.06751   0.76596   0.00000  Uiso   1.00
O360   O     0.30901   0.87978   0.40373   0.00000  Uiso   1.00
O361   O     0.61083   0.86286   0.94723   0.00000  Uiso   1.00
O362   O     0.11093   0.19417   0.80987   0.00000  Uiso   1.00
N363   N     0.38972   0.94891   0.50685   0.00000  Uiso   1.00
N364   N     0.60482   0.93684   0.89416   0.00000  Uiso   1.00
N365   N     0.24860   0.17294   0.79629   0.00000  Uiso   1.00
N366   N     0.24812   0.86767   0.48253   0.00000  Uiso   1.00
N367   N     0.46322   0.85561   0.86983   0.00000  Uiso   1.00
N368   N     0.10700   0.09170   0.77197   0.00000  Uiso   1.00
C369   C     0.80892   0.38854   0.45603   0.00000  Uiso   1.00
C370   C     0.89597   0.44995   0.46737   0.00000  Uiso   1.00
C371   C     0.99608   0.45664   0.47780   0.00000  Uiso   1.00
C372   C     0.06431   0.51675   0.48716   0.00000  Uiso   1.00
C373   C     0.20416   0.60425   0.50490   0.00000  Uiso   1.00
C374   C     0.72572   0.37668   0.39351   0.00000  Uiso   1.00
C375   C     0.68268   0.32177   0.34184   0.00000  Uiso   1.00
C376   C     0.60759   0.32021   0.28904   0.00000  Uiso   1.00
C377   C     0.48307   0.29395   0.19212   0.00000  Uiso   1.00
C378   C     0.76611   0.40401   0.50590   0.00000  Uiso   1.00
C379   C     0.75701   0.37206   0.54872   0.00000  Uiso   1.00
C380   C     0.71590   0.39349   0.59053   0.00000  Uiso   1.00
C381   C     0.65409   0.40965   0.66812   0.00000  Uiso   1.00
C382   C     0.75207   0.48341   0.45413   0.00000  Uiso   1.00
C383   C     0.86509   0.50147   0.46634   0.00000  Uiso   1.00
C384   C     0.93319   0.56160   0.47570   0.00000  Uiso   1.00
C385   C     0.03338   0.56838   0.48614   0.00000  Uiso   1.00
C386   C     0.69484   0.42821   0.39248   0.00000  Uiso   1.00
C387   C     0.61979   0.42673   0.33974   0.00000  Uiso   1.00
C388   C     0.57665   0.37184   0.28800   0.00000  Uiso   1.00
C389   C     0.73523   0.45554   0.50487   0.00000  Uiso   1.00
C390   C     0.69412   0.47702   0.54662   0.00000  Uiso   1.00
C391   C     0.68496   0.44511   0.58950   0.00000  Uiso   1.00
H392   H     0.83296   0.34842   0.45683   0.00000  Uiso   1.00
H393   H     0.01995   0.41674   0.47858   0.00000  Uiso   1.00
H394   H     0.70659   0.28190   0.34265   0.00000  Uiso   1.00
H395   H     0.78091   0.33218   0.54950   0.00000  Uiso   1.00
H396   H     0.21363   0.51521   0.50223   0.00000  Uiso   1.00
H397   H     0.55288   0.23088   0.21562   0.00000  Uiso   1.00
H398   H     0.70959   0.33690   0.65180   0.00000  Uiso   1.00
H399   H     0.72803   0.52353   0.45333   0.00000  Uiso   1.00
H400   H     0.90927   0.60147   0.47490   0.00000  Uiso   1.00
H401   H     0.59591   0.46662   0.33896   0.00000  Uiso   1.00
H402   H     0.67023   0.51690   0.54581   0.00000  Uiso   1.00
H403   H     0.12380   0.66514   0.49923   0.00000  Uiso   1.00
H404   H     0.46304   0.38080   0.21262   0.00000  Uiso   1.00
H405   H     0.61976   0.48683   0.64880   0.00000  Uiso   1.00
O406   O     0.28983   0.63828   0.51496   0.00000  Uiso   1.00
O407   O     0.42293   0.26523   0.13894   0.00000  Uiso   1.00
O408   O     0.62855   0.40434   0.71120   0.00000  Uiso   1.00
N409   N     0.16762   0.53980   0.49857   0.00000  Uiso   1.00
N410   N     0.54987   0.27397   0.23061   0.00000  Uiso   1.00
N411   N     0.69636   0.37308   0.63839   0.00000  Uiso   1.00
N412   N     0.11929   0.62048   0.49696   0.00000  Uiso   1.00
N413   N     0.50153   0.35464   0.22900   0.00000  Uiso   1.00
N414   N     0.64802   0.45376   0.63678   0.00000  Uiso   1.00
C415   C     0.32052   0.43435   0.38264   0.00000  Uiso   1.00
C416   C     0.34206   0.45126   0.45256   0.00000  Uiso   1.00
C417   C     0.43313   0.49392   0.50057   0.00000  Uiso   1.00
C418   C     0.43760   0.50282   0.56145   0.00000  Uiso   1.00
C419   C     0.48378   0.53402   0.66815   0.00000  Uiso   1.00
C420   C     0.28738   0.36206   0.35786   0.00000  Uiso   1.00
C421   C     0.33249   0.32973   0.32624   0.00000  Uiso   1.00
C422   C     0.29091   0.26353   0.30740   0.00000  Uiso   1.00
C423   C     0.25216   0.15624   0.26703   0.00000  Uiso   1.00
C424   C     0.22656   0.44856   0.35309   0.00000  Uiso   1.00
C425   C     0.22051   0.48894   0.31745   0.00000  Uiso   1.00
C426   C     0.12772   0.49556   0.29458   0.00000  Uiso   1.00
C427   C     0.99454   0.52258   0.24681   0.00000  Uiso   1.00
C428   C     0.16648   0.37428   0.40541   0.00000  Uiso   1.00
C429   C     0.25839   0.41863   0.46493   0.00000  Uiso   1.00
C430   C     0.26271   0.42747   0.52576   0.00000  Uiso   1.00
C431   C     0.35378   0.47014   0.57385   0.00000  Uiso   1.00
C432   C     0.20372   0.32943   0.37023   0.00000  Uiso   1.00
C433   C     0.16206   0.26327   0.35143   0.00000  Uiso   1.00
C434   C     0.20709   0.23085   0.31979   0.00000  Uiso   1.00
C435   C     0.14289   0.41594   0.36546   0.00000  Uiso   1.00
C436   C     0.05009   0.42249   0.34264   0.00000  Uiso   1.00
C437   C     0.04390   0.46288   0.30697   0.00000  Uiso   1.00
H438   H     0.38566   0.45975   0.37301   0.00000  Uiso   1.00
H439   H     0.49787   0.51916   0.49097   0.00000  Uiso   1.00
H440   H     0.39723   0.35499   0.31667   0.00000  Uiso   1.00
H441   H     0.28527   0.51418   0.30789   0.00000  Uiso   1.00
H442   H     0.58539   0.57062   0.62722   0.00000  Uiso   1.00
H443   H     0.37316   0.22446   0.25967   0.00000  Uiso   1.00
H444   H     0.13708   0.56015   0.24114   0.00000  Uiso   1.00
H445   H     0.10134   0.34888   0.41504   0.00000  Uiso   1.00
H446   H     0.19795   0.40221   0.53531   0.00000  Uiso   1.00
H447   H     0.09731   0.23804   0.36101   0.00000  Uiso   1.00
H448   H     0.98536   0.39723   0.35222   0.00000  Uiso   1.00
H449   H     0.34197   0.47570   0.66321   0.00000  Uiso   1.00
H450   H     0.12973   0.12954   0.29565   0.00000  Uiso   1.00
H451   H     0.89366   0.46523   0.27713   0.00000  Uiso   1.00
O452   O     0.53237   0.56023   0.72358   0.00000  Uiso   1.00
O453   O     0.25392   0.10608   0.24135   0.00000  Uiso   1.00
O454   O     0.94420   0.54650   0.21705   0.00000  Uiso   1.00
N455   N     0.51484   0.54098   0.61918   0.00000  Uiso   1.00
N456   N     0.31642   0.21733   0.27555   0.00000  Uiso   1.00
N457   N     0.09570   0.53116   0.25822   0.00000  Uiso   1.00
N458   N     0.38385   0.48990   0.63855   0.00000  Uiso   1.00
N459   N     0.18544   0.16626   0.29492   0.00000  Uiso   1.00
N460   N     0.96472   0.48009   0.27758   0.00000  Uiso   1.00
C461   C     0.82458   0.91133   0.60648   0.00000  Uiso   1.00
C462   C     0.90827   0.95753   0.59462   0.00000  Uiso   1.00
C463   C     0.99830   0.95099   0.59480   0.00000  Uiso   1.00
C464   C     0.06508   0.99841   0.58292   0.00000  Uiso   1.00
C465   C     0.19849   0.06225   0.56630   0.00000  Uiso   1.00
C466   C     0.81024   0.95084   0.66097   0.00000  Uiso   1.00
C467   C     0.81782   0.93866   0.71693   0.00000  Uiso   1.00
C468   C     0.80206   0.98044   0.76090   0.00000  Uiso   1.00
C469   C     0.78318   0.03386   0.84727   0.00000  Uiso   1.00
C470   C     0.72681   0.89129   0.54918   0.00000  Uiso   1.00
C471   C     0.66422   0.82905   0.51117   0.00000  Uiso   1.00
C472   C     0.57820   0.82069   0.46103   0.00000  Uiso   1.00
C473   C     0.42979   0.78165   0.37384   0.00000  Uiso   1.00
C474   C     0.78309   0.00716   0.58506   0.00000  Uiso   1.00
C475   C     0.88573   0.00959   0.58298   0.00000  Uiso   1.00
C476   C     0.95239   0.05702   0.57109   0.00000  Uiso   1.00
C477   C     0.04250   0.05055   0.57126   0.00000  Uiso   1.00
C478   C     0.78770   0.00289   0.64933   0.00000  Uiso   1.00
C479   C     0.77191   0.04469   0.69322   0.00000  Uiso   1.00
C480   C     0.77948   0.03258   0.74924   0.00000  Uiso   1.00
C481   C     0.70427   0.94335   0.53755   0.00000  Uiso   1.00
C482   C     0.61832   0.93508   0.48746   0.00000  Uiso   1.00
C483   C     0.55562   0.87283   0.44938   0.00000  Uiso   1.00
H484   H     0.84213   0.87080   0.61554   0.00000  Uiso   1.00
H485   H     0.01572   0.91071   0.60381   0.00000  Uiso   1.00
H486   H     0.83525   0.89837   0.72592   0.00000  Uiso   1.00
H487   H     0.68169   0.78878   0.52019   0.00000  Uiso   1.00
H488   H     0.19826   0.97791   0.58569   0.00000  Uiso   1.00
H489   H     0.81770   0.95189   0.84315   0.00000  Uiso   1.00
H490   H     0.49387   0.72079   0.40933   0.00000  Uiso   1.00
H491   H     0.76554   0.04769   0.57600   0.00000  Uiso   1.00
H492   H     0.93493   0.09730   0.56209   0.00000  Uiso   1.00
H493   H     0.75447   0.08497   0.68420   0.00000  Uiso   1.00
H494   H     0.60090   0.97537   0.47847   0.00000  Uiso   1.00
H495   H     0.13269   0.12936   0.55184   0.00000  Uiso   1.00
H496   H     0.75213   0.10334   0.80930   0.00000  Uiso   1.00
H497   H     0.42831   0.87224   0.37548   0.00000  Uiso   1.00
O498   O     0.27830   0.08309   0.56035   0.00000  Uiso   1.00
O499   O     0.77901   0.04894   0.89812   0.00000  Uiso   1.00
O500   O     0.35416   0.74574   0.32896   0.00000  Uiso   1.00
N501   N     0.15957   0.00674   0.57962   0.00000  Uiso   1.00
N502   N     0.80379   0.98242   0.82034   0.00000  Uiso   1.00
N503   N     0.50102   0.76635   0.41476   0.00000  Uiso   1.00
N504   N     0.12429   0.08823   0.56140   0.00000  Uiso   1.00
N505   N     0.76851   0.06391   0.80212   0.00000  Uiso   1.00
N506   N     0.46574   0.84785   0.39654   0.00000  Uiso   1.00
C507   C     0.99085   0.70944   0.08010   0.00000  Uiso   1.00
C508   C     0.92086   0.64043   0.04114   0.00000  Uiso   1.00
C509   C     0.94948   0.59464   0.01153   0.00000  Uiso   1.00
C510   C     0.87415   0.53424   0.97813   0.00000  Uiso   1.00
C511   C     0.78072   0.42922   0.91817   0.00000  Uiso   1.00
C512   C     0.94152   0.75069   0.05037   0.00000  Uiso   1.00
C513   C     0.98751   0.79762   0.02853   0.00000  Uiso   1.00
C514   C     0.92957   0.83005   0.00291   0.00000  Uiso   1.00
C515   C     0.86824   0.89625   0.95732   0.00000  Uiso   1.00
C516   C     0.98364   0.71951   0.14422   0.00000  Uiso   1.00
C517   C     0.06504   0.74024   0.20129   0.00000  Uiso   1.00
C518   C     0.04257   0.74643   0.25470   0.00000  Uiso   1.00
C519   C     0.04663   0.76421   0.35482   0.00000  Uiso   1.00
C520   C     0.80620   0.68361   0.07346   0.00000  Uiso   1.00
C521   C     0.82057   0.62639   0.03754   0.00000  Uiso   1.00
C522   C     0.74518   0.56605   0.00418   0.00000  Uiso   1.00
C523   C     0.77368   0.52018   0.97452   0.00000  Uiso   1.00
C524   C     0.84123   0.73666   0.04677   0.00000  Uiso   1.00
C525   C     0.78321   0.76903   0.02118   0.00000  Uiso   1.00
C526   C     0.82910   0.81599   0.99930   0.00000  Uiso   1.00
C527   C     0.88334   0.70547   0.14062   0.00000  Uiso   1.00
C528   C     0.86074   0.71164   0.19394   0.00000  Uiso   1.00
C529   C     0.94209   0.73237   0.25108   0.00000  Uiso   1.00
H530   H     0.06894   0.72037   0.08291   0.00000  Uiso   1.00
H531   H     0.02710   0.60552   0.01433   0.00000  Uiso   1.00
H532   H     0.06513   0.80848   0.03133   0.00000  Uiso   1.00
H533   H     0.14264   0.75109   0.20407   0.00000  Uiso   1.00
H534   H     0.93648   0.47200   0.93668   0.00000  Uiso   1.00
H535   H     0.01667   0.89996   0.97256   0.00000  Uiso   1.00
H536   H     0.18013   0.77896   0.33680   0.00000  Uiso   1.00
H537   H     0.72812   0.67268   0.07065   0.00000  Uiso   1.00
H538   H     0.66758   0.55520   0.00140   0.00000  Uiso   1.00
H539   H     0.70560   0.75816   0.01840   0.00000  Uiso   1.00
H540   H     0.78312   0.70078   0.19113   0.00000  Uiso   1.00
H541   H     0.64467   0.43116   0.92619   0.00000  Uiso   1.00
H542   H     0.72487   0.85912   0.96206   0.00000  Uiso   1.00
H543   H     0.88833   0.73812   0.32631   0.00000  Uiso   1.00
O544   O     0.75689   0.37517   0.88608   0.00000  Uiso   1.00
O545   O     0.86211   0.93664   0.93316   0.00000  Uiso   1.00
O546   O     0.07657   0.77788   0.41104   0.00000  Uiso   1.00
N547   N     0.87611   0.47851   0.94373   0.00000  Uiso   1.00
N548   N     0.95108   0.87861   0.97726   0.00000  Uiso   1.00
N549   N     0.10391   0.76551   0.31780   0.00000  Uiso   1.00
N550   N     0.71910   0.45653   0.93808   0.00000  Uiso   1.00
N551   N     0.79407   0.85664   0.97161   0.00000  Uiso   1.00
N552   N     0.94690   0.74353   0.31215   0.00000  Uiso   1.00
