data_job_03651
_audit_creation_date              2018-12-19
_audit_creation_method            'Materials Studio'
_symmetry_space_group_name_H-M    'P1'
_symmetry_Int_Tables_number       1
_symmetry_cell_setting            triclinic
loop_
_symmetry_equiv_pos_as_xyz
  x,y,z
_cell_length_a                    31.5888
_cell_length_b                    7.5797
_cell_length_c                    19.7414
_cell_angle_alpha                 90.0000
_cell_angle_beta                  149.2494
_cell_angle_gamma                 90.0000
loop_
_atom_site_label
_atom_site_type_symbol
_atom_site_fract_x
_atom_site_fract_y
_atom_site_fract_z
_atom_site_U_iso_or_equiv
_atom_site_adp_type
_atom_site_occupancy
C1     C     0.28946   0.61131   0.45317   0.00000  Uiso   1.00
C2     C     0.20421   0.65632   0.36428   0.00000  Uiso   1.00
C3     C     0.17423   0.82501   0.33510   0.00000  Uiso   1.00
C4     C     0.09465   0.83837   0.25174   0.00000  Uiso   1.00
C5     C     0.96956   0.93107   0.12171   0.00000  Uiso   1.00
C6     C     0.32977   0.48889   0.56027   0.00000  Uiso   1.00
C7     C     0.40537   0.51680   0.69589   0.00000  Uiso   1.00
C8     C     0.43149   0.38920   0.77751   0.00000  Uiso   1.00
C9     C     0.50137   0.22190   0.95177   0.00000  Uiso   1.00
C10    C     0.27408   0.49941   0.36907   0.00000  Uiso   1.00
C11    C     0.30288   0.53614   0.34395   0.00000  Uiso   1.00
C12    C     0.28212   0.41738   0.26463   0.00000  Uiso   1.00
C13    C     0.26554   0.26643   0.14202   0.00000  Uiso   1.00
C14    C     0.20143   0.33505   0.35701   0.00000  Uiso   1.00
C15    C     0.15640   0.50626   0.31205   0.00000  Uiso   1.00
C16    C     0.07684   0.51937   0.22871   0.00000  Uiso   1.00
C17    C     0.04675   0.68805   0.19941   0.00000  Uiso   1.00
C18    C     0.28196   0.33884   0.50805   0.00000  Uiso   1.00
C19    C     0.30798   0.21116   0.58949   0.00000  Uiso   1.00
C20    C     0.38359   0.23887   0.72519   0.00000  Uiso   1.00
C21    C     0.22627   0.34936   0.31684   0.00000  Uiso   1.00
C22    C     0.20548   0.23050   0.23755   0.00000  Uiso   1.00
C23    C     0.23423   0.26705   0.21230   0.00000  Uiso   1.00
H24    H     0.32669   0.72812   0.49384   0.00000  Uiso   1.00
H25    H     0.21126   0.94110   0.37555   0.00000  Uiso   1.00
H26    H     0.44237   0.63292   0.73628   0.00000  Uiso   1.00
H27    H     0.33988   0.65227   0.38439   0.00000  Uiso   1.00
H28    H     0.06221   0.11104   0.22141   0.00000  Uiso   1.00
H29    H     0.54952   0.46121   0.98202   0.00000  Uiso   1.00
H30    H     0.33341   0.50201   0.24000   0.00000  Uiso   1.00
H31    H     0.16421   0.21822   0.31634   0.00000  Uiso   1.00
H32    H     0.03985   0.40322   0.18830   0.00000  Uiso   1.00
H33    H     0.27096   0.09505   0.54903   0.00000  Uiso   1.00
H34    H     0.16847   0.11440   0.19715   0.00000  Uiso   1.00
H35    H     0.92309   0.67449   0.06944   0.00000  Uiso   1.00
H36    H     0.41040   0.02465   0.83005   0.00000  Uiso   1.00
H37    H     0.19429   0.06545   0.08803   0.00000  Uiso   1.00
O38    O     0.91378   0.02366   0.06443   0.00000  Uiso   1.00
O39    O     0.55312   0.17109   0.06232   0.00000  Uiso   1.00
O40    O     0.26959   0.22463   0.08881   0.00000  Uiso   1.00
N41    N     0.04652   0.98291   0.20319   0.00000  Uiso   1.00
N42    N     0.50212   0.37537   0.91432   0.00000  Uiso   1.00
N43    N     0.30010   0.41349   0.22062   0.00000  Uiso   1.00
N44    N     0.97166   0.74800   0.12141   0.00000  Uiso   1.00
N45    N     0.42726   0.14046   0.83254   0.00000  Uiso   1.00
N46    N     0.22524   0.17858   0.13884   0.00000  Uiso   1.00
C47    C     0.71054   0.61131   0.04683   0.00000  Uiso   1.00
C48    C     0.79579   0.65632   0.13572   0.00000  Uiso   1.00
C49    C     0.82577   0.82501   0.16490   0.00000  Uiso   1.00
C50    C     0.90535   0.83837   0.24826   0.00000  Uiso   1.00
C51    C     0.03044   0.93107   0.37829   0.00000  Uiso   1.00
C52    C     0.67023   0.48889   0.93973   0.00000  Uiso   1.00
C53    C     0.59463   0.51680   0.80411   0.00000  Uiso   1.00
C54    C     0.56851   0.38920   0.72249   0.00000  Uiso   1.00
C55    C     0.49863   0.22190   0.54823   0.00000  Uiso   1.00
C56    C     0.72592   0.49941   0.13093   0.00000  Uiso   1.00
C57    C     0.69712   0.53614   0.15605   0.00000  Uiso   1.00
C58    C     0.71788   0.41738   0.23537   0.00000  Uiso   1.00
C59    C     0.73446   0.26643   0.35798   0.00000  Uiso   1.00
C60    C     0.79857   0.33505   0.14299   0.00000  Uiso   1.00
C61    C     0.84360   0.50626   0.18795   0.00000  Uiso   1.00
C62    C     0.92316   0.51937   0.27129   0.00000  Uiso   1.00
C63    C     0.95325   0.68805   0.30059   0.00000  Uiso   1.00
C64    C     0.71804   0.33884   0.99195   0.00000  Uiso   1.00
C65    C     0.69202   0.21116   0.91051   0.00000  Uiso   1.00
C66    C     0.61641   0.23887   0.77481   0.00000  Uiso   1.00
C67    C     0.77373   0.34936   0.18316   0.00000  Uiso   1.00
C68    C     0.79452   0.23050   0.26245   0.00000  Uiso   1.00
C69    C     0.76577   0.26705   0.28770   0.00000  Uiso   1.00
H70    H     0.67331   0.72812   0.00616   0.00000  Uiso   1.00
H71    H     0.78874   0.94110   0.12445   0.00000  Uiso   1.00
H72    H     0.55763   0.63292   0.76372   0.00000  Uiso   1.00
H73    H     0.66012   0.65227   0.11561   0.00000  Uiso   1.00
H74    H     0.93779   0.11104   0.27859   0.00000  Uiso   1.00
H75    H     0.45048   0.46121   0.51798   0.00000  Uiso   1.00
H76    H     0.66659   0.50201   0.26000   0.00000  Uiso   1.00
H77    H     0.83579   0.21822   0.18366   0.00000  Uiso   1.00
H78    H     0.96015   0.40322   0.31170   0.00000  Uiso   1.00
H79    H     0.72904   0.09505   0.95097   0.00000  Uiso   1.00
H80    H     0.83153   0.11440   0.30285   0.00000  Uiso   1.00
H81    H     0.07691   0.67449   0.43056   0.00000  Uiso   1.00
H82    H     0.58960   0.02465   0.66995   0.00000  Uiso   1.00
H83    H     0.80571   0.06545   0.41197   0.00000  Uiso   1.00
O84    O     0.08622   0.02366   0.43557   0.00000  Uiso   1.00
O85    O     0.44688   0.17109   0.43768   0.00000  Uiso   1.00
O86    O     0.73041   0.22463   0.41119   0.00000  Uiso   1.00
N87    N     0.95348   0.98291   0.29681   0.00000  Uiso   1.00
N88    N     0.49788   0.37537   0.58568   0.00000  Uiso   1.00
N89    N     0.69990   0.41349   0.27938   0.00000  Uiso   1.00
N90    N     0.02834   0.74800   0.37859   0.00000  Uiso   1.00
N91    N     0.57274   0.14046   0.66746   0.00000  Uiso   1.00
N92    N     0.77476   0.17858   0.36116   0.00000  Uiso   1.00
C93    C     0.71054   0.38869   0.54683   0.00000  Uiso   1.00
C94    C     0.79579   0.34368   0.63572   0.00000  Uiso   1.00
C95    C     0.82577   0.17499   0.66490   0.00000  Uiso   1.00
C96    C     0.90535   0.16163   0.74826   0.00000  Uiso   1.00
C97    C     0.03044   0.06893   0.87829   0.00000  Uiso   1.00
C98    C     0.67023   0.51111   0.43973   0.00000  Uiso   1.00
C99    C     0.59463   0.48320   0.30411   0.00000  Uiso   1.00
C100   C     0.56851   0.61080   0.22249   0.00000  Uiso   1.00
C101   C     0.49863   0.77810   0.04823   0.00000  Uiso   1.00
C102   C     0.72592   0.50059   0.63093   0.00000  Uiso   1.00
C103   C     0.69712   0.46386   0.65605   0.00000  Uiso   1.00
C104   C     0.71788   0.58262   0.73537   0.00000  Uiso   1.00
C105   C     0.73446   0.73357   0.85798   0.00000  Uiso   1.00
C106   C     0.79857   0.66495   0.64299   0.00000  Uiso   1.00
C107   C     0.84360   0.49374   0.68795   0.00000  Uiso   1.00
C108   C     0.92316   0.48063   0.77129   0.00000  Uiso   1.00
C109   C     0.95325   0.31195   0.80059   0.00000  Uiso   1.00
C110   C     0.71804   0.66116   0.49195   0.00000  Uiso   1.00
C111   C     0.69202   0.78884   0.41051   0.00000  Uiso   1.00
C112   C     0.61641   0.76113   0.27481   0.00000  Uiso   1.00
C113   C     0.77373   0.65064   0.68316   0.00000  Uiso   1.00
C114   C     0.79452   0.76950   0.76245   0.00000  Uiso   1.00
C115   C     0.76577   0.73295   0.78770   0.00000  Uiso   1.00
H116   H     0.67331   0.27188   0.50616   0.00000  Uiso   1.00
H117   H     0.78874   0.05890   0.62445   0.00000  Uiso   1.00
H118   H     0.55763   0.36708   0.26372   0.00000  Uiso   1.00
H119   H     0.66012   0.34773   0.61561   0.00000  Uiso   1.00
H120   H     0.93779   0.88896   0.77859   0.00000  Uiso   1.00
H121   H     0.45048   0.53879   0.01798   0.00000  Uiso   1.00
H122   H     0.66659   0.49799   0.76000   0.00000  Uiso   1.00
H123   H     0.83579   0.78178   0.68366   0.00000  Uiso   1.00
H124   H     0.96015   0.59678   0.81170   0.00000  Uiso   1.00
H125   H     0.72904   0.90495   0.45097   0.00000  Uiso   1.00
H126   H     0.83153   0.88560   0.80285   0.00000  Uiso   1.00
H127   H     0.07691   0.32551   0.93056   0.00000  Uiso   1.00
H128   H     0.58960   0.97535   0.16995   0.00000  Uiso   1.00
H129   H     0.80571   0.93455   0.91197   0.00000  Uiso   1.00
O130   O     0.08622   0.97634   0.93557   0.00000  Uiso   1.00
O131   O     0.44688   0.82891   0.93768   0.00000  Uiso   1.00
O132   O     0.73041   0.77537   0.91119   0.00000  Uiso   1.00
N133   N     0.95348   0.01709   0.79681   0.00000  Uiso   1.00
N134   N     0.49788   0.62463   0.08568   0.00000  Uiso   1.00
N135   N     0.69990   0.58651   0.77938   0.00000  Uiso   1.00
N136   N     0.02834   0.25200   0.87859   0.00000  Uiso   1.00
N137   N     0.57274   0.85954   0.16746   0.00000  Uiso   1.00
N138   N     0.77476   0.82142   0.86116   0.00000  Uiso   1.00
C139   C     0.28946   0.38869   0.95317   0.00000  Uiso   1.00
C140   C     0.20421   0.34368   0.86428   0.00000  Uiso   1.00
C141   C     0.17423   0.17499   0.83510   0.00000  Uiso   1.00
C142   C     0.09465   0.16163   0.75174   0.00000  Uiso   1.00
C143   C     0.96956   0.06893   0.62171   0.00000  Uiso   1.00
C144   C     0.32977   0.51111   0.06027   0.00000  Uiso   1.00
C145   C     0.40537   0.48320   0.19589   0.00000  Uiso   1.00
C146   C     0.43149   0.61080   0.27751   0.00000  Uiso   1.00
C147   C     0.50137   0.77810   0.45177   0.00000  Uiso   1.00
C148   C     0.27408   0.50059   0.86907   0.00000  Uiso   1.00
C149   C     0.30288   0.46386   0.84395   0.00000  Uiso   1.00
C150   C     0.28212   0.58262   0.76463   0.00000  Uiso   1.00
C151   C     0.26554   0.73357   0.64202   0.00000  Uiso   1.00
C152   C     0.20143   0.66495   0.85701   0.00000  Uiso   1.00
C153   C     0.15640   0.49374   0.81205   0.00000  Uiso   1.00
C154   C     0.07684   0.48063   0.72871   0.00000  Uiso   1.00
C155   C     0.04675   0.31195   0.69941   0.00000  Uiso   1.00
C156   C     0.28196   0.66116   0.00805   0.00000  Uiso   1.00
C157   C     0.30798   0.78884   0.08949   0.00000  Uiso   1.00
C158   C     0.38359   0.76113   0.22519   0.00000  Uiso   1.00
C159   C     0.22627   0.65064   0.81684   0.00000  Uiso   1.00
C160   C     0.20548   0.76950   0.73755   0.00000  Uiso   1.00
C161   C     0.23423   0.73295   0.71230   0.00000  Uiso   1.00
H162   H     0.32669   0.27188   0.99384   0.00000  Uiso   1.00
H163   H     0.21126   0.05890   0.87555   0.00000  Uiso   1.00
H164   H     0.44237   0.36708   0.23628   0.00000  Uiso   1.00
H165   H     0.33988   0.34773   0.88439   0.00000  Uiso   1.00
H166   H     0.06221   0.88896   0.72141   0.00000  Uiso   1.00
H167   H     0.54952   0.53879   0.48202   0.00000  Uiso   1.00
H168   H     0.33341   0.49799   0.74000   0.00000  Uiso   1.00
H169   H     0.16421   0.78178   0.81634   0.00000  Uiso   1.00
H170   H     0.03985   0.59678   0.68830   0.00000  Uiso   1.00
H171   H     0.27096   0.90495   0.04903   0.00000  Uiso   1.00
H172   H     0.16847   0.88560   0.69715   0.00000  Uiso   1.00
H173   H     0.92309   0.32551   0.56944   0.00000  Uiso   1.00
H174   H     0.41040   0.97535   0.33005   0.00000  Uiso   1.00
H175   H     0.19429   0.93455   0.58803   0.00000  Uiso   1.00
O176   O     0.91378   0.97634   0.56443   0.00000  Uiso   1.00
O177   O     0.55312   0.82891   0.56232   0.00000  Uiso   1.00
O178   O     0.26959   0.77537   0.58881   0.00000  Uiso   1.00
N179   N     0.04652   0.01709   0.70319   0.00000  Uiso   1.00
N180   N     0.50212   0.62463   0.41432   0.00000  Uiso   1.00
N181   N     0.30010   0.58651   0.72062   0.00000  Uiso   1.00
N182   N     0.97166   0.25200   0.62141   0.00000  Uiso   1.00
N183   N     0.42726   0.85954   0.33254   0.00000  Uiso   1.00
N184   N     0.22524   0.82142   0.63884   0.00000  Uiso   1.00
