data_job_06266
_audit_creation_date              2018-12-19
_audit_creation_method            'Materials Studio'
_symmetry_space_group_name_H-M    'P1'
_symmetry_Int_Tables_number       1
_symmetry_cell_setting            triclinic
loop_
_symmetry_equiv_pos_as_xyz
  x,y,z
_cell_length_a                    17.8043
_cell_length_b                    17.9379
_cell_length_c                    18.0547
_cell_angle_alpha                 108.1070
_cell_angle_beta                  108.1180
_cell_angle_gamma                 108.0800
loop_
_atom_site_label
_atom_site_type_symbol
_atom_site_fract_x
_atom_site_fract_y
_atom_site_fract_z
_atom_site_U_iso_or_equiv
_atom_site_adp_type
_atom_site_occupancy
C1     C     0.35767   0.66430   0.84894   0.00000  Uiso   1.00
C2     C     0.44543   0.66542   0.89733   0.00000  Uiso   1.00
C3     C     0.45953   0.59203   0.88921   0.00000  Uiso   1.00
C4     C     0.54460   0.60691   0.93911   0.00000  Uiso   1.00
C5     C     0.67044   0.59568   0.00577   0.00000  Uiso   1.00
C6     C     0.33826   0.71592   0.91915   0.00000  Uiso   1.00
C7     C     0.26225   0.68499   0.92937   0.00000  Uiso   1.00
C8     C     0.25709   0.74239   0.99763   0.00000  Uiso   1.00
C9     C     0.21651   0.80960   0.09811   0.00000  Uiso   1.00
C10    C     0.37567   0.71910   0.80098   0.00000  Uiso   1.00
C11    C     0.33110   0.69085   0.71183   0.00000  Uiso   1.00
C12    C     0.35744   0.75094   0.68061   0.00000  Uiso   1.00
C13    C     0.37496   0.82308   0.59761   0.00000  Uiso   1.00
C14    C     0.48366   0.82124   0.95200   0.00000  Uiso   1.00
C15    C     0.51386   0.75067   0.95331   0.00000  Uiso   1.00
C16    C     0.59893   0.76566   0.00323   0.00000  Uiso   1.00
C17    C     0.61315   0.69230   0.99519   0.00000  Uiso   1.00
C18    C     0.40669   0.80116   0.97513   0.00000  Uiso   1.00
C19    C     0.40164   0.85863   0.04339   0.00000  Uiso   1.00
C20    C     0.32564   0.82779   0.05371   0.00000  Uiso   1.00
C21    C     0.44411   0.80435   0.85695   0.00000  Uiso   1.00
C22    C     0.47050   0.86449   0.82586   0.00000  Uiso   1.00
C23    C     0.42599   0.83634   0.73668   0.00000  Uiso   1.00
H24    H     0.30439   0.59794   0.80537   0.00000  Uiso   1.00
H25    H     0.40655   0.52607   0.84589   0.00000  Uiso   1.00
H26    H     0.20930   0.61903   0.88603   0.00000  Uiso   1.00
H27    H     0.27815   0.62489   0.66854   0.00000  Uiso   1.00
H28    H     0.54999   0.48398   0.91553   0.00000  Uiso   1.00
H29    H     0.13405   0.68000   0.00015   0.00000  Uiso   1.00
H30    H     0.27924   0.69235   0.54152   0.00000  Uiso   1.00
H31    H     0.53694   0.88761   0.99558   0.00000  Uiso   1.00
H32    H     0.65187   0.83163   0.04655   0.00000  Uiso   1.00
H33    H     0.45461   0.92459   0.08669   0.00000  Uiso   1.00
H34    H     0.52346   0.93045   0.86919   0.00000  Uiso   1.00
H35    H     0.74909   0.73199   0.07839   0.00000  Uiso   1.00
H36    H     0.33315   0.92801   0.16301   0.00000  Uiso   1.00
H37    H     0.47834   0.94036   0.70438   0.00000  Uiso   1.00
O38    O     0.72094   0.56594   0.02708   0.00000  Uiso   1.00
O39    O     0.17523   0.82311   0.13808   0.00000  Uiso   1.00
O40    O     0.36572   0.83931   0.53637   0.00000  Uiso   1.00
N41    N     0.58108   0.55003   0.94685   0.00000  Uiso   1.00
N42    N     0.19220   0.73329   0.02598   0.00000  Uiso   1.00
N43    N     0.32793   0.74485   0.59720   0.00000  Uiso   1.00
N44    N     0.68822   0.68348   0.03449   0.00000  Uiso   1.00
N45    N     0.29934   0.86674   0.11361   0.00000  Uiso   1.00
N46    N     0.43507   0.87830   0.68483   0.00000  Uiso   1.00
C47    C     0.84753   0.35790   0.66522   0.00000  Uiso   1.00
C48    C     0.89645   0.44505   0.66641   0.00000  Uiso   1.00
C49    C     0.88832   0.45905   0.59351   0.00000  Uiso   1.00
C50    C     0.93875   0.54353   0.60836   0.00000  Uiso   1.00
C51    C     0.00616   0.66850   0.59731   0.00000  Uiso   1.00
C52    C     0.91881   0.33884   0.71673   0.00000  Uiso   1.00
C53    C     0.92946   0.26353   0.68613   0.00000  Uiso   1.00
C54    C     0.99872   0.25860   0.74335   0.00000  Uiso   1.00
C55    C     0.10079   0.21865   0.81044   0.00000  Uiso   1.00
C56    C     0.79863   0.37556   0.71944   0.00000  Uiso   1.00
C57    C     0.70823   0.33111   0.69115   0.00000  Uiso   1.00
C58    C     0.67630   0.35708   0.75066   0.00000  Uiso   1.00
C59    C     0.59177   0.37415   0.82197   0.00000  Uiso   1.00
C60    C     0.95157   0.48303   0.82123   0.00000  Uiso   1.00
C61    C     0.95297   0.51301   0.75115   0.00000  Uiso   1.00
C62    C     0.00343   0.59749   0.76612   0.00000  Uiso   1.00
C63    C     0.99536   0.61162   0.69325   0.00000  Uiso   1.00
C64    C     0.97532   0.40680   0.80146   0.00000  Uiso   1.00
C65    C     0.04457   0.40197   0.85874   0.00000  Uiso   1.00
C66    C     0.05533   0.32668   0.82824   0.00000  Uiso   1.00
C67    C     0.85514   0.44353   0.80418   0.00000  Uiso   1.00
C68    C     0.82334   0.46956   0.86375   0.00000  Uiso   1.00
C69    C     0.73291   0.42517   0.83555   0.00000  Uiso   1.00
H70    H     0.80353   0.30499   0.59925   0.00000  Uiso   1.00
H71    H     0.84458   0.40644   0.52794   0.00000  Uiso   1.00
H72    H     0.88572   0.21095   0.62056   0.00000  Uiso   1.00
H73    H     0.66452   0.27853   0.62557   0.00000  Uiso   1.00
H74    H     0.91503   0.54888   0.48625   0.00000  Uiso   1.00
H75    H     0.00175   0.13666   0.68155   0.00000  Uiso   1.00
H76    H     0.53531   0.27916   0.69211   0.00000  Uiso   1.00
H77    H     0.99557   0.53594   0.88721   0.00000  Uiso   1.00
H78    H     0.04715   0.65007   0.83170   0.00000  Uiso   1.00
H79    H     0.08829   0.45458   0.92431   0.00000  Uiso   1.00
H80    H     0.86709   0.52216   0.92932   0.00000  Uiso   1.00
H81    H     0.07945   0.74662   0.73279   0.00000  Uiso   1.00
H82    H     0.16617   0.33440   0.92809   0.00000  Uiso   1.00
H83    H     0.69973   0.47690   0.93865   0.00000  Uiso   1.00
O84    O     0.02773   0.71866   0.56781   0.00000  Uiso   1.00
O85    O     0.14149   0.17783   0.82403   0.00000  Uiso   1.00
O86    O     0.52953   0.36479   0.83789   0.00000  Uiso   1.00
N87    N     0.94664   0.57976   0.55189   0.00000  Uiso   1.00
N88    N     0.02772   0.19437   0.73448   0.00000  Uiso   1.00
N89    N     0.59164   0.32758   0.74436   0.00000  Uiso   1.00
N90    N     0.03511   0.68617   0.68455   0.00000  Uiso   1.00
N91    N     0.11619   0.30077   0.86714   0.00000  Uiso   1.00
N92    N     0.68011   0.43398   0.87702   0.00000  Uiso   1.00
C93    C     0.66299   0.84813   0.35790   0.00000  Uiso   1.00
C94    C     0.66388   0.89658   0.44436   0.00000  Uiso   1.00
C95    C     0.58980   0.88828   0.45803   0.00000  Uiso   1.00
C96    C     0.60457   0.93828   0.54188   0.00000  Uiso   1.00
C97    C     0.59290   0.00498   0.66583   0.00000  Uiso   1.00
C98    C     0.71517   0.91898   0.33907   0.00000  Uiso   1.00
C99    C     0.68421   0.92949   0.26420   0.00000  Uiso   1.00
C100   C     0.74217   0.99833   0.25943   0.00000  Uiso   1.00
C101   C     0.81015   0.09976   0.21989   0.00000  Uiso   1.00
C102   C     0.71818   0.79981   0.37566   0.00000  Uiso   1.00
C103   C     0.68977   0.71013   0.33154   0.00000  Uiso   1.00
C104   C     0.75027   0.67865   0.35755   0.00000  Uiso   1.00
C105   C     0.82293   0.59506   0.37482   0.00000  Uiso   1.00
C106   C     0.82096   0.95169   0.48253   0.00000  Uiso   1.00
C107   C     0.74969   0.95283   0.51206   0.00000  Uiso   1.00
C108   C     0.76458   0.00285   0.59592   0.00000  Uiso   1.00
C109   C     0.69053   0.99462   0.60970   0.00000  Uiso   1.00
C110   C     0.80097   0.97522   0.40677   0.00000  Uiso   1.00
C111   C     0.85899   0.04406   0.40210   0.00000  Uiso   1.00
C112   C     0.82813   0.05468   0.32725   0.00000  Uiso   1.00
C113   C     0.80399   0.85606   0.44336   0.00000  Uiso   1.00
C114   C     0.86455   0.82471   0.46944   0.00000  Uiso   1.00
C115   C     0.83623   0.73499   0.42537   0.00000  Uiso   1.00
H116   H     0.59619   0.80435   0.30519   0.00000  Uiso   1.00
H117   H     0.52340   0.84475   0.40562   0.00000  Uiso   1.00
H118   H     0.61781   0.88595   0.21183   0.00000  Uiso   1.00
H119   H     0.62336   0.66663   0.27916   0.00000  Uiso   1.00
H120   H     0.48055   0.91438   0.54681   0.00000  Uiso   1.00
H121   H     0.67962   0.00122   0.13817   0.00000  Uiso   1.00
H122   H     0.69133   0.53874   0.28014   0.00000  Uiso   1.00
H123   H     0.88777   0.99548   0.53523   0.00000  Uiso   1.00
H124   H     0.83099   0.04637   0.64829   0.00000  Uiso   1.00
H125   H     0.92539   0.08757   0.45449   0.00000  Uiso   1.00
H126   H     0.93095   0.86825   0.52182   0.00000  Uiso   1.00
H127   H     0.73020   0.07802   0.74377   0.00000  Uiso   1.00
H128   H     0.92926   0.16487   0.33513   0.00000  Uiso   1.00
H129   H     0.94098   0.70239   0.47711   0.00000  Uiso   1.00
O130   O     0.56276   0.02625   0.71550   0.00000  Uiso   1.00
O131   O     0.82393   0.14018   0.17938   0.00000  Uiso   1.00
O132   O     0.83929   0.53341   0.36565   0.00000  Uiso   1.00
N133   N     0.54710   0.94589   0.57765   0.00000  Uiso   1.00
N134   N     0.73321   0.02710   0.19561   0.00000  Uiso   1.00
N135   N     0.74417   0.59472   0.32832   0.00000  Uiso   1.00
N136   N     0.68143   0.03395   0.68363   0.00000  Uiso   1.00
N137   N     0.86754   0.11515   0.30159   0.00000  Uiso   1.00
N138   N     0.87850   0.68277   0.43431   0.00000  Uiso   1.00
C139   C     0.64233   0.33570   0.15105   0.00000  Uiso   1.00
C140   C     0.55457   0.33458   0.10267   0.00000  Uiso   1.00
C141   C     0.54047   0.40797   0.11079   0.00000  Uiso   1.00
C142   C     0.45540   0.39309   0.06089   0.00000  Uiso   1.00
C143   C     0.32956   0.40432   0.99423   0.00000  Uiso   1.00
C144   C     0.66174   0.28408   0.08085   0.00000  Uiso   1.00
C145   C     0.73775   0.31501   0.07063   0.00000  Uiso   1.00
C146   C     0.74291   0.25761   0.00237   0.00000  Uiso   1.00
C147   C     0.78349   0.19040   0.90189   0.00000  Uiso   1.00
C148   C     0.62433   0.28090   0.19902   0.00000  Uiso   1.00
C149   C     0.66890   0.30914   0.28817   0.00000  Uiso   1.00
C150   C     0.64256   0.24906   0.31939   0.00000  Uiso   1.00
C151   C     0.62504   0.17692   0.40239   0.00000  Uiso   1.00
C152   C     0.51634   0.17876   0.04800   0.00000  Uiso   1.00
C153   C     0.48614   0.24933   0.04669   0.00000  Uiso   1.00
C154   C     0.40107   0.23434   0.99677   0.00000  Uiso   1.00
C155   C     0.38685   0.30770   0.00481   0.00000  Uiso   1.00
C156   C     0.59331   0.19883   0.02487   0.00000  Uiso   1.00
C157   C     0.59836   0.14137   0.95661   0.00000  Uiso   1.00
C158   C     0.67436   0.17221   0.94629   0.00000  Uiso   1.00
C159   C     0.55589   0.19565   0.14305   0.00000  Uiso   1.00
C160   C     0.52949   0.13551   0.17414   0.00000  Uiso   1.00
C161   C     0.57401   0.16366   0.26332   0.00000  Uiso   1.00
H162   H     0.69561   0.40206   0.19463   0.00000  Uiso   1.00
H163   H     0.59345   0.47393   0.15411   0.00000  Uiso   1.00
H164   H     0.79070   0.38097   0.11397   0.00000  Uiso   1.00
H165   H     0.72185   0.37511   0.33146   0.00000  Uiso   1.00
H166   H     0.45001   0.51602   0.08447   0.00000  Uiso   1.00
H167   H     0.86595   0.32000   0.99985   0.00000  Uiso   1.00
H168   H     0.72076   0.30765   0.45848   0.00000  Uiso   1.00
H169   H     0.46306   0.11239   0.00442   0.00000  Uiso   1.00
H170   H     0.34813   0.16837   0.95345   0.00000  Uiso   1.00
H171   H     0.54539   0.07541   0.91331   0.00000  Uiso   1.00
H172   H     0.47654   0.06955   0.13081   0.00000  Uiso   1.00
H173   H     0.25091   0.26801   0.92161   0.00000  Uiso   1.00
H174   H     0.66685   0.07199   0.83699   0.00000  Uiso   1.00
H175   H     0.52166   0.05964   0.29562   0.00000  Uiso   1.00
O176   O     0.27906   0.43406   0.97292   0.00000  Uiso   1.00
O177   O     0.82477   0.17689   0.86192   0.00000  Uiso   1.00
O178   O     0.63428   0.16069   0.46363   0.00000  Uiso   1.00
N179   N     0.41892   0.44997   0.05315   0.00000  Uiso   1.00
N180   N     0.80780   0.26671   0.97402   0.00000  Uiso   1.00
N181   N     0.67207   0.25515   0.40280   0.00000  Uiso   1.00
N182   N     0.31178   0.31652   0.96551   0.00000  Uiso   1.00
N183   N     0.70066   0.13326   0.88639   0.00000  Uiso   1.00
N184   N     0.56493   0.12170   0.31517   0.00000  Uiso   1.00
C185   C     0.15247   0.64210   0.33478   0.00000  Uiso   1.00
C186   C     0.10355   0.55495   0.33359   0.00000  Uiso   1.00
C187   C     0.11168   0.54094   0.40649   0.00000  Uiso   1.00
C188   C     0.06125   0.45647   0.39164   0.00000  Uiso   1.00
C189   C     0.99384   0.33150   0.40269   0.00000  Uiso   1.00
C190   C     0.08119   0.66116   0.28327   0.00000  Uiso   1.00
C191   C     0.07054   0.73647   0.31386   0.00000  Uiso   1.00
C192   C     0.00128   0.74140   0.25665   0.00000  Uiso   1.00
C193   C     0.89921   0.78135   0.18955   0.00000  Uiso   1.00
C194   C     0.20137   0.62444   0.28056   0.00000  Uiso   1.00
C195   C     0.29177   0.66888   0.30885   0.00000  Uiso   1.00
C196   C     0.32370   0.64292   0.24934   0.00000  Uiso   1.00
C197   C     0.40823   0.62585   0.17803   0.00000  Uiso   1.00
C198   C     0.04843   0.51697   0.17877   0.00000  Uiso   1.00
C199   C     0.04703   0.48699   0.24885   0.00000  Uiso   1.00
C200   C     0.99657   0.40251   0.23388   0.00000  Uiso   1.00
C201   C     0.00464   0.38838   0.30675   0.00000  Uiso   1.00
C202   C     0.02468   0.59320   0.19854   0.00000  Uiso   1.00
C203   C     0.95543   0.59803   0.14126   0.00000  Uiso   1.00
C204   C     0.94467   0.67332   0.17176   0.00000  Uiso   1.00
C205   C     0.14486   0.55647   0.19582   0.00000  Uiso   1.00
C206   C     0.17666   0.53044   0.13625   0.00000  Uiso   1.00
C207   C     0.26709   0.57483   0.16445   0.00000  Uiso   1.00
H208   H     0.19647   0.69501   0.40075   0.00000  Uiso   1.00
H209   H     0.15542   0.59356   0.47206   0.00000  Uiso   1.00
H210   H     0.11428   0.78905   0.37944   0.00000  Uiso   1.00
H211   H     0.33548   0.72147   0.37443   0.00000  Uiso   1.00
H212   H     0.08497   0.45112   0.51375   0.00000  Uiso   1.00
H213   H     0.99825   0.86334   0.31845   0.00000  Uiso   1.00
H214   H     0.46469   0.72084   0.30789   0.00000  Uiso   1.00
H215   H     0.00443   0.46406   0.11279   0.00000  Uiso   1.00
H216   H     0.95285   0.34993   0.16830   0.00000  Uiso   1.00
H217   H     0.91171   0.54542   0.07569   0.00000  Uiso   1.00
H218   H     0.13291   0.47784   0.07068   0.00000  Uiso   1.00
H219   H     0.92055   0.25337   0.26721   0.00000  Uiso   1.00
H220   H     0.83383   0.66560   0.07191   0.00000  Uiso   1.00
H221   H     0.30027   0.52310   0.06135   0.00000  Uiso   1.00
O222   O     0.97227   0.28134   0.43219   0.00000  Uiso   1.00
O223   O     0.85851   0.82217   0.17596   0.00000  Uiso   1.00
O224   O     0.47047   0.63521   0.16211   0.00000  Uiso   1.00
N225   N     0.05336   0.42024   0.44811   0.00000  Uiso   1.00
N226   N     0.97228   0.80563   0.26552   0.00000  Uiso   1.00
N227   N     0.40836   0.67242   0.25564   0.00000  Uiso   1.00
N228   N     0.96489   0.31383   0.31545   0.00000  Uiso   1.00
N229   N     0.88381   0.69923   0.13286   0.00000  Uiso   1.00
N230   N     0.31989   0.56602   0.12298   0.00000  Uiso   1.00
C231   C     0.33701   0.15187   0.64210   0.00000  Uiso   1.00
C232   C     0.33612   0.10342   0.55564   0.00000  Uiso   1.00
C233   C     0.41020   0.11172   0.54197   0.00000  Uiso   1.00
C234   C     0.39543   0.06172   0.45812   0.00000  Uiso   1.00
C235   C     0.40710   0.99501   0.33417   0.00000  Uiso   1.00
C236   C     0.28483   0.08102   0.66092   0.00000  Uiso   1.00
C237   C     0.31579   0.07051   0.73580   0.00000  Uiso   1.00
C238   C     0.25783   0.00167   0.74057   0.00000  Uiso   1.00
C239   C     0.18985   0.90024   0.78011   0.00000  Uiso   1.00
C240   C     0.28182   0.20019   0.62434   0.00000  Uiso   1.00
C241   C     0.31023   0.28987   0.66846   0.00000  Uiso   1.00
C242   C     0.24973   0.32135   0.64245   0.00000  Uiso   1.00
C243   C     0.17707   0.40494   0.62518   0.00000  Uiso   1.00
C244   C     0.17904   0.04831   0.51747   0.00000  Uiso   1.00
C245   C     0.25031   0.04717   0.48794   0.00000  Uiso   1.00
C246   C     0.23542   0.99715   0.40408   0.00000  Uiso   1.00
C247   C     0.30947   0.00538   0.39030   0.00000  Uiso   1.00
C248   C     0.19903   0.02478   0.59323   0.00000  Uiso   1.00
C249   C     0.14101   0.95594   0.59790   0.00000  Uiso   1.00
C250   C     0.17187   0.94532   0.67275   0.00000  Uiso   1.00
C251   C     0.19601   0.14394   0.55664   0.00000  Uiso   1.00
C252   C     0.13545   0.17529   0.53056   0.00000  Uiso   1.00
C253   C     0.16377   0.26501   0.57463   0.00000  Uiso   1.00
H254   H     0.40381   0.19565   0.69481   0.00000  Uiso   1.00
H255   H     0.47660   0.15525   0.59438   0.00000  Uiso   1.00
H256   H     0.38219   0.11405   0.78817   0.00000  Uiso   1.00
H257   H     0.37664   0.33337   0.72084   0.00000  Uiso   1.00
H258   H     0.51945   0.08562   0.45319   0.00000  Uiso   1.00
H259   H     0.32038   0.99878   0.86183   0.00000  Uiso   1.00
H260   H     0.30867   0.46126   0.71985   0.00000  Uiso   1.00
H261   H     0.11223   0.00452   0.46476   0.00000  Uiso   1.00
H262   H     0.16901   0.95363   0.35171   0.00000  Uiso   1.00
H263   H     0.07461   0.91243   0.54551   0.00000  Uiso   1.00
H264   H     0.06905   0.13175   0.47818   0.00000  Uiso   1.00
H265   H     0.26980   0.92198   0.25623   0.00000  Uiso   1.00
H266   H     0.07074   0.83513   0.66487   0.00000  Uiso   1.00
H267   H     0.05902   0.29761   0.52289   0.00000  Uiso   1.00
O268   O     0.43724   0.97375   0.28450   0.00000  Uiso   1.00
O269   O     0.17607   0.85982   0.82062   0.00000  Uiso   1.00
O270   O     0.16071   0.46659   0.63435   0.00000  Uiso   1.00
N271   N     0.45290   0.05411   0.42235   0.00000  Uiso   1.00
N272   N     0.26679   0.97290   0.80439   0.00000  Uiso   1.00
N273   N     0.25583   0.40528   0.67168   0.00000  Uiso   1.00
N274   N     0.31857   0.96605   0.31637   0.00000  Uiso   1.00
N275   N     0.13246   0.88485   0.69841   0.00000  Uiso   1.00
N276   N     0.12150   0.31723   0.56569   0.00000  Uiso   1.00
