data_job_05582
_audit_creation_date              2018-12-19
_audit_creation_method            'Materials Studio'
_symmetry_space_group_name_H-M    'P1'
_symmetry_Int_Tables_number       1
_symmetry_cell_setting            triclinic
loop_
_symmetry_equiv_pos_as_xyz
  x,y,z
_cell_length_a                    11.0391
_cell_length_b                    22.2583
_cell_length_c                    20.2642
_cell_angle_alpha                 90.0000
_cell_angle_beta                  90.0000
_cell_angle_gamma                 90.0000
loop_
_atom_site_label
_atom_site_type_symbol
_atom_site_fract_x
_atom_site_fract_y
_atom_site_fract_z
_atom_site_U_iso_or_equiv
_atom_site_adp_type
_atom_site_occupancy
C1     C     0.04473   0.17103   0.10798   0.00000  Uiso   1.00
C2     C     0.03139   0.13992   0.04133   0.00000  Uiso   1.00
C3     C     0.08835   0.08702   0.02259   0.00000  Uiso   1.00
C4     C     0.06436   0.06584   0.95948   0.00000  Uiso   1.00
C5     C     0.05558   0.01288   0.86249   0.00000  Uiso   1.00
C6     C     0.08735   0.23476   0.09302   0.00000  Uiso   1.00
C7     C     0.19135   0.26161   0.11774   0.00000  Uiso   1.00
C8     C     0.21445   0.32028   0.09815   0.00000  Uiso   1.00
C9     C     0.29251   0.41458   0.08145   0.00000  Uiso   1.00
C10    C     0.91685   0.17711   0.13563   0.00000  Uiso   1.00
C11    C     0.87748   0.15550   0.19619   0.00000  Uiso   1.00
C12    C     0.75704   0.16564   0.21249   0.00000  Uiso   1.00
C13    C     0.57036   0.17042   0.26194   0.00000  Uiso   1.00
C14    C     0.90083   0.22748   0.02925   0.00000  Uiso   1.00
C15    C     0.95323   0.17058   0.99857   0.00000  Uiso   1.00
C16    C     0.92914   0.14948   0.93548   0.00000  Uiso   1.00
C17    C     0.98605   0.09656   0.91664   0.00000  Uiso   1.00
C18    C     0.00920   0.26542   0.05026   0.00000  Uiso   1.00
C19    C     0.03215   0.32407   0.03063   0.00000  Uiso   1.00
C20    C     0.13616   0.35100   0.05531   0.00000  Uiso   1.00
C21    C     0.83868   0.20777   0.09287   0.00000  Uiso   1.00
C22    C     0.71828   0.21795   0.10908   0.00000  Uiso   1.00
C23    C     0.67874   0.19636   0.16964   0.00000  Uiso   1.00
H24    H     0.10558   0.14717   0.14128   0.00000  Uiso   1.00
H25    H     0.14884   0.06331   0.05569   0.00000  Uiso   1.00
H26    H     0.25181   0.23787   0.15084   0.00000  Uiso   1.00
H27    H     0.93799   0.13177   0.22927   0.00000  Uiso   1.00
H28    H     0.16236   0.98387   0.94194   0.00000  Uiso   1.00
H29    H     0.37947   0.35196   0.14258   0.00000  Uiso   1.00
H30    H     0.71772   0.12823   0.30797   0.00000  Uiso   1.00
H31    H     0.83998   0.25136   0.99595   0.00000  Uiso   1.00
H32    H     0.86865   0.17321   0.90239   0.00000  Uiso   1.00
H33    H     0.97164   0.34778   0.99754   0.00000  Uiso   1.00
H34    H     0.65782   0.24168   0.07597   0.00000  Uiso   1.00
H35    H     0.93496   0.07308   0.81752   0.00000  Uiso   1.00
H36    H     0.15207   0.44117   0.01816   0.00000  Uiso   1.00
H37    H     0.49032   0.21743   0.18355   0.00000  Uiso   1.00
O38    O     0.07235   0.97520   0.82080   0.00000  Uiso   1.00
O39    O     0.35717   0.45812   0.08404   0.00000  Uiso   1.00
O40    O     0.48898   0.16458   0.30102   0.00000  Uiso   1.00
N41    N     0.10489   0.01558   0.92550   0.00000  Uiso   1.00
N42    N     0.30788   0.35972   0.11308   0.00000  Uiso   1.00
N43    N     0.68921   0.15056   0.26771   0.00000  Uiso   1.00
N44    N     0.98252   0.06358   0.85855   0.00000  Uiso   1.00
N45    N     0.18552   0.40772   0.04613   0.00000  Uiso   1.00
N46    N     0.56685   0.19856   0.20076   0.00000  Uiso   1.00
C47    C     0.45527   0.82897   0.10798   0.00000  Uiso   1.00
C48    C     0.46861   0.86008   0.04133   0.00000  Uiso   1.00
C49    C     0.41165   0.91298   0.02259   0.00000  Uiso   1.00
C50    C     0.43564   0.93416   0.95948   0.00000  Uiso   1.00
C51    C     0.44442   0.98712   0.86249   0.00000  Uiso   1.00
C52    C     0.41265   0.76524   0.09302   0.00000  Uiso   1.00
C53    C     0.30865   0.73839   0.11774   0.00000  Uiso   1.00
C54    C     0.28555   0.67972   0.09815   0.00000  Uiso   1.00
C55    C     0.20749   0.58542   0.08145   0.00000  Uiso   1.00
C56    C     0.58315   0.82289   0.13563   0.00000  Uiso   1.00
C57    C     0.62252   0.84450   0.19619   0.00000  Uiso   1.00
C58    C     0.74296   0.83436   0.21249   0.00000  Uiso   1.00
C59    C     0.92964   0.82958   0.26194   0.00000  Uiso   1.00
C60    C     0.59917   0.77252   0.02925   0.00000  Uiso   1.00
C61    C     0.54677   0.82942   0.99857   0.00000  Uiso   1.00
C62    C     0.57086   0.85052   0.93548   0.00000  Uiso   1.00
C63    C     0.51395   0.90344   0.91664   0.00000  Uiso   1.00
C64    C     0.49080   0.73458   0.05026   0.00000  Uiso   1.00
C65    C     0.46785   0.67593   0.03063   0.00000  Uiso   1.00
C66    C     0.36384   0.64900   0.05531   0.00000  Uiso   1.00
C67    C     0.66132   0.79223   0.09287   0.00000  Uiso   1.00
C68    C     0.78172   0.78205   0.10908   0.00000  Uiso   1.00
C69    C     0.82126   0.80364   0.16964   0.00000  Uiso   1.00
H70    H     0.39442   0.85283   0.14128   0.00000  Uiso   1.00
H71    H     0.35116   0.93669   0.05569   0.00000  Uiso   1.00
H72    H     0.24819   0.76213   0.15084   0.00000  Uiso   1.00
H73    H     0.56201   0.86823   0.22927   0.00000  Uiso   1.00
H74    H     0.33764   0.01613   0.94194   0.00000  Uiso   1.00
H75    H     0.12053   0.64804   0.14258   0.00000  Uiso   1.00
H76    H     0.78228   0.87177   0.30797   0.00000  Uiso   1.00
H77    H     0.66002   0.74864   0.99595   0.00000  Uiso   1.00
H78    H     0.63135   0.82679   0.90239   0.00000  Uiso   1.00
H79    H     0.52836   0.65222   0.99754   0.00000  Uiso   1.00
H80    H     0.84218   0.75832   0.07597   0.00000  Uiso   1.00
H81    H     0.56504   0.92692   0.81752   0.00000  Uiso   1.00
H82    H     0.34793   0.55883   0.01816   0.00000  Uiso   1.00
H83    H     0.00968   0.78257   0.18355   0.00000  Uiso   1.00
O84    O     0.42765   0.02480   0.82080   0.00000  Uiso   1.00
O85    O     0.14283   0.54188   0.08404   0.00000  Uiso   1.00
O86    O     0.01102   0.83542   0.30102   0.00000  Uiso   1.00
N87    N     0.39511   0.98442   0.92550   0.00000  Uiso   1.00
N88    N     0.19212   0.64028   0.11308   0.00000  Uiso   1.00
N89    N     0.81079   0.84944   0.26771   0.00000  Uiso   1.00
N90    N     0.51748   0.93642   0.85855   0.00000  Uiso   1.00
N91    N     0.31448   0.59228   0.04613   0.00000  Uiso   1.00
N92    N     0.93315   0.80144   0.20076   0.00000  Uiso   1.00
C93    C     0.45527   0.67103   0.39202   0.00000  Uiso   1.00
C94    C     0.46861   0.63992   0.45867   0.00000  Uiso   1.00
C95    C     0.41165   0.58702   0.47741   0.00000  Uiso   1.00
C96    C     0.43564   0.56584   0.54052   0.00000  Uiso   1.00
C97    C     0.44442   0.51288   0.63751   0.00000  Uiso   1.00
C98    C     0.41265   0.73476   0.40698   0.00000  Uiso   1.00
C99    C     0.30865   0.76161   0.38226   0.00000  Uiso   1.00
C100   C     0.28555   0.82028   0.40185   0.00000  Uiso   1.00
C101   C     0.20749   0.91458   0.41855   0.00000  Uiso   1.00
C102   C     0.58315   0.67711   0.36437   0.00000  Uiso   1.00
C103   C     0.62252   0.65550   0.30381   0.00000  Uiso   1.00
C104   C     0.74296   0.66564   0.28751   0.00000  Uiso   1.00
C105   C     0.92964   0.67042   0.23806   0.00000  Uiso   1.00
C106   C     0.59917   0.72748   0.47075   0.00000  Uiso   1.00
C107   C     0.54677   0.67058   0.50143   0.00000  Uiso   1.00
C108   C     0.57086   0.64948   0.56452   0.00000  Uiso   1.00
C109   C     0.51395   0.59656   0.58336   0.00000  Uiso   1.00
C110   C     0.49080   0.76542   0.44974   0.00000  Uiso   1.00
C111   C     0.46785   0.82407   0.46937   0.00000  Uiso   1.00
C112   C     0.36384   0.85100   0.44469   0.00000  Uiso   1.00
C113   C     0.66132   0.70777   0.40713   0.00000  Uiso   1.00
C114   C     0.78172   0.71795   0.39092   0.00000  Uiso   1.00
C115   C     0.82126   0.69636   0.33036   0.00000  Uiso   1.00
H116   H     0.39442   0.64717   0.35872   0.00000  Uiso   1.00
H117   H     0.35116   0.56331   0.44431   0.00000  Uiso   1.00
H118   H     0.24819   0.73787   0.34916   0.00000  Uiso   1.00
H119   H     0.56201   0.63177   0.27073   0.00000  Uiso   1.00
H120   H     0.33764   0.48387   0.55806   0.00000  Uiso   1.00
H121   H     0.12053   0.85196   0.35742   0.00000  Uiso   1.00
H122   H     0.78228   0.62823   0.19203   0.00000  Uiso   1.00
H123   H     0.66002   0.75136   0.50405   0.00000  Uiso   1.00
H124   H     0.63135   0.67321   0.59761   0.00000  Uiso   1.00
H125   H     0.52836   0.84778   0.50246   0.00000  Uiso   1.00
H126   H     0.84218   0.74168   0.42403   0.00000  Uiso   1.00
H127   H     0.56504   0.57308   0.68248   0.00000  Uiso   1.00
H128   H     0.34793   0.94117   0.48184   0.00000  Uiso   1.00
H129   H     0.00968   0.71743   0.31645   0.00000  Uiso   1.00
O130   O     0.42765   0.47520   0.67920   0.00000  Uiso   1.00
O131   O     0.14283   0.95812   0.41596   0.00000  Uiso   1.00
O132   O     0.01102   0.66458   0.19898   0.00000  Uiso   1.00
N133   N     0.39511   0.51558   0.57450   0.00000  Uiso   1.00
N134   N     0.19212   0.85972   0.38692   0.00000  Uiso   1.00
N135   N     0.81079   0.65056   0.23229   0.00000  Uiso   1.00
N136   N     0.51748   0.56358   0.64145   0.00000  Uiso   1.00
N137   N     0.31448   0.90772   0.45387   0.00000  Uiso   1.00
N138   N     0.93315   0.69856   0.29924   0.00000  Uiso   1.00
C139   C     0.04473   0.32897   0.39202   0.00000  Uiso   1.00
C140   C     0.03139   0.36008   0.45867   0.00000  Uiso   1.00
C141   C     0.08835   0.41298   0.47741   0.00000  Uiso   1.00
C142   C     0.06436   0.43416   0.54052   0.00000  Uiso   1.00
C143   C     0.05558   0.48712   0.63751   0.00000  Uiso   1.00
C144   C     0.08735   0.26524   0.40698   0.00000  Uiso   1.00
C145   C     0.19135   0.23839   0.38226   0.00000  Uiso   1.00
C146   C     0.21445   0.17972   0.40185   0.00000  Uiso   1.00
C147   C     0.29251   0.08542   0.41855   0.00000  Uiso   1.00
C148   C     0.91685   0.32289   0.36437   0.00000  Uiso   1.00
C149   C     0.87748   0.34450   0.30381   0.00000  Uiso   1.00
C150   C     0.75704   0.33436   0.28751   0.00000  Uiso   1.00
C151   C     0.57036   0.32958   0.23806   0.00000  Uiso   1.00
C152   C     0.90083   0.27252   0.47075   0.00000  Uiso   1.00
C153   C     0.95323   0.32942   0.50143   0.00000  Uiso   1.00
C154   C     0.92914   0.35052   0.56452   0.00000  Uiso   1.00
C155   C     0.98605   0.40344   0.58336   0.00000  Uiso   1.00
C156   C     0.00920   0.23458   0.44974   0.00000  Uiso   1.00
C157   C     0.03215   0.17593   0.46937   0.00000  Uiso   1.00
C158   C     0.13616   0.14900   0.44469   0.00000  Uiso   1.00
C159   C     0.83868   0.29223   0.40713   0.00000  Uiso   1.00
C160   C     0.71828   0.28205   0.39092   0.00000  Uiso   1.00
C161   C     0.67874   0.30364   0.33036   0.00000  Uiso   1.00
H162   H     0.10558   0.35283   0.35872   0.00000  Uiso   1.00
H163   H     0.14884   0.43669   0.44431   0.00000  Uiso   1.00
H164   H     0.25181   0.26213   0.34916   0.00000  Uiso   1.00
H165   H     0.93799   0.36823   0.27073   0.00000  Uiso   1.00
H166   H     0.16236   0.51613   0.55806   0.00000  Uiso   1.00
H167   H     0.37947   0.14804   0.35742   0.00000  Uiso   1.00
H168   H     0.71772   0.37177   0.19203   0.00000  Uiso   1.00
H169   H     0.83998   0.24864   0.50405   0.00000  Uiso   1.00
H170   H     0.86865   0.32679   0.59761   0.00000  Uiso   1.00
H171   H     0.97164   0.15222   0.50246   0.00000  Uiso   1.00
H172   H     0.65782   0.25832   0.42403   0.00000  Uiso   1.00
H173   H     0.93496   0.42692   0.68248   0.00000  Uiso   1.00
H174   H     0.15207   0.05883   0.48184   0.00000  Uiso   1.00
H175   H     0.49032   0.28257   0.31645   0.00000  Uiso   1.00
O176   O     0.07235   0.52480   0.67920   0.00000  Uiso   1.00
O177   O     0.35717   0.04188   0.41596   0.00000  Uiso   1.00
O178   O     0.48898   0.33542   0.19898   0.00000  Uiso   1.00
N179   N     0.10489   0.48442   0.57450   0.00000  Uiso   1.00
N180   N     0.30788   0.14028   0.38692   0.00000  Uiso   1.00
N181   N     0.68921   0.34944   0.23229   0.00000  Uiso   1.00
N182   N     0.98252   0.43642   0.64145   0.00000  Uiso   1.00
N183   N     0.18552   0.09228   0.45387   0.00000  Uiso   1.00
N184   N     0.56685   0.30144   0.29924   0.00000  Uiso   1.00
C185   C     0.95527   0.82897   0.89202   0.00000  Uiso   1.00
C186   C     0.96861   0.86008   0.95867   0.00000  Uiso   1.00
C187   C     0.91165   0.91298   0.97741   0.00000  Uiso   1.00
C188   C     0.93564   0.93416   0.04052   0.00000  Uiso   1.00
C189   C     0.94442   0.98712   0.13751   0.00000  Uiso   1.00
C190   C     0.91265   0.76524   0.90698   0.00000  Uiso   1.00
C191   C     0.80865   0.73839   0.88226   0.00000  Uiso   1.00
C192   C     0.78555   0.67972   0.90185   0.00000  Uiso   1.00
C193   C     0.70749   0.58542   0.91855   0.00000  Uiso   1.00
C194   C     0.08315   0.82289   0.86437   0.00000  Uiso   1.00
C195   C     0.12252   0.84450   0.80381   0.00000  Uiso   1.00
C196   C     0.24296   0.83436   0.78751   0.00000  Uiso   1.00
C197   C     0.42964   0.82958   0.73806   0.00000  Uiso   1.00
C198   C     0.09917   0.77252   0.97075   0.00000  Uiso   1.00
C199   C     0.04677   0.82942   0.00143   0.00000  Uiso   1.00
C200   C     0.07086   0.85052   0.06452   0.00000  Uiso   1.00
C201   C     0.01395   0.90344   0.08336   0.00000  Uiso   1.00
C202   C     0.99080   0.73458   0.94974   0.00000  Uiso   1.00
C203   C     0.96785   0.67593   0.96937   0.00000  Uiso   1.00
C204   C     0.86384   0.64900   0.94469   0.00000  Uiso   1.00
C205   C     0.16132   0.79223   0.90713   0.00000  Uiso   1.00
C206   C     0.28172   0.78205   0.89092   0.00000  Uiso   1.00
C207   C     0.32126   0.80364   0.83036   0.00000  Uiso   1.00
H208   H     0.89442   0.85283   0.85872   0.00000  Uiso   1.00
H209   H     0.85116   0.93669   0.94431   0.00000  Uiso   1.00
H210   H     0.74819   0.76213   0.84916   0.00000  Uiso   1.00
H211   H     0.06201   0.86823   0.77073   0.00000  Uiso   1.00
H212   H     0.83764   0.01613   0.05806   0.00000  Uiso   1.00
H213   H     0.62053   0.64804   0.85742   0.00000  Uiso   1.00
H214   H     0.28228   0.87177   0.69203   0.00000  Uiso   1.00
H215   H     0.16002   0.74864   0.00405   0.00000  Uiso   1.00
H216   H     0.13135   0.82679   0.09761   0.00000  Uiso   1.00
H217   H     0.02836   0.65222   0.00246   0.00000  Uiso   1.00
H218   H     0.34218   0.75832   0.92403   0.00000  Uiso   1.00
H219   H     0.06504   0.92692   0.18248   0.00000  Uiso   1.00
H220   H     0.84793   0.55883   0.98184   0.00000  Uiso   1.00
H221   H     0.50968   0.78257   0.81645   0.00000  Uiso   1.00
O222   O     0.92765   0.02480   0.17920   0.00000  Uiso   1.00
O223   O     0.64283   0.54188   0.91596   0.00000  Uiso   1.00
O224   O     0.51102   0.83542   0.69898   0.00000  Uiso   1.00
N225   N     0.89511   0.98442   0.07450   0.00000  Uiso   1.00
N226   N     0.69212   0.64028   0.88692   0.00000  Uiso   1.00
N227   N     0.31079   0.84944   0.73229   0.00000  Uiso   1.00
N228   N     0.01748   0.93642   0.14145   0.00000  Uiso   1.00
N229   N     0.81448   0.59228   0.95387   0.00000  Uiso   1.00
N230   N     0.43315   0.80144   0.79924   0.00000  Uiso   1.00
C231   C     0.54473   0.17103   0.89202   0.00000  Uiso   1.00
C232   C     0.53139   0.13992   0.95867   0.00000  Uiso   1.00
C233   C     0.58835   0.08702   0.97741   0.00000  Uiso   1.00
C234   C     0.56436   0.06584   0.04052   0.00000  Uiso   1.00
C235   C     0.55558   0.01288   0.13751   0.00000  Uiso   1.00
C236   C     0.58735   0.23476   0.90698   0.00000  Uiso   1.00
C237   C     0.69135   0.26161   0.88226   0.00000  Uiso   1.00
C238   C     0.71445   0.32028   0.90185   0.00000  Uiso   1.00
C239   C     0.79251   0.41458   0.91855   0.00000  Uiso   1.00
C240   C     0.41685   0.17711   0.86437   0.00000  Uiso   1.00
C241   C     0.37748   0.15550   0.80381   0.00000  Uiso   1.00
C242   C     0.25704   0.16564   0.78751   0.00000  Uiso   1.00
C243   C     0.07036   0.17042   0.73806   0.00000  Uiso   1.00
C244   C     0.40083   0.22748   0.97075   0.00000  Uiso   1.00
C245   C     0.45323   0.17058   0.00143   0.00000  Uiso   1.00
C246   C     0.42914   0.14948   0.06452   0.00000  Uiso   1.00
C247   C     0.48605   0.09656   0.08336   0.00000  Uiso   1.00
C248   C     0.50920   0.26542   0.94974   0.00000  Uiso   1.00
C249   C     0.53215   0.32407   0.96937   0.00000  Uiso   1.00
C250   C     0.63616   0.35100   0.94469   0.00000  Uiso   1.00
C251   C     0.33868   0.20777   0.90713   0.00000  Uiso   1.00
C252   C     0.21828   0.21795   0.89092   0.00000  Uiso   1.00
C253   C     0.17874   0.19636   0.83036   0.00000  Uiso   1.00
H254   H     0.60558   0.14717   0.85872   0.00000  Uiso   1.00
H255   H     0.64884   0.06331   0.94431   0.00000  Uiso   1.00
H256   H     0.75181   0.23787   0.84916   0.00000  Uiso   1.00
H257   H     0.43799   0.13177   0.77073   0.00000  Uiso   1.00
H258   H     0.66236   0.98387   0.05806   0.00000  Uiso   1.00
H259   H     0.87947   0.35196   0.85742   0.00000  Uiso   1.00
H260   H     0.21772   0.12823   0.69203   0.00000  Uiso   1.00
H261   H     0.33998   0.25136   0.00405   0.00000  Uiso   1.00
H262   H     0.36865   0.17321   0.09761   0.00000  Uiso   1.00
H263   H     0.47164   0.34778   0.00246   0.00000  Uiso   1.00
H264   H     0.15782   0.24168   0.92403   0.00000  Uiso   1.00
H265   H     0.43496   0.07308   0.18248   0.00000  Uiso   1.00
H266   H     0.65207   0.44117   0.98184   0.00000  Uiso   1.00
H267   H     0.99032   0.21743   0.81645   0.00000  Uiso   1.00
O268   O     0.57235   0.97520   0.17920   0.00000  Uiso   1.00
O269   O     0.85717   0.45812   0.91596   0.00000  Uiso   1.00
O270   O     0.98898   0.16458   0.69898   0.00000  Uiso   1.00
N271   N     0.60489   0.01558   0.07450   0.00000  Uiso   1.00
N272   N     0.80788   0.35972   0.88692   0.00000  Uiso   1.00
N273   N     0.18921   0.15056   0.73229   0.00000  Uiso   1.00
N274   N     0.48252   0.06358   0.14145   0.00000  Uiso   1.00
N275   N     0.68552   0.40772   0.95387   0.00000  Uiso   1.00
N276   N     0.06685   0.19856   0.79924   0.00000  Uiso   1.00
C277   C     0.54473   0.32897   0.60798   0.00000  Uiso   1.00
C278   C     0.53139   0.36008   0.54133   0.00000  Uiso   1.00
C279   C     0.58835   0.41298   0.52259   0.00000  Uiso   1.00
C280   C     0.56436   0.43416   0.45948   0.00000  Uiso   1.00
C281   C     0.55558   0.48712   0.36249   0.00000  Uiso   1.00
C282   C     0.58735   0.26524   0.59302   0.00000  Uiso   1.00
C283   C     0.69135   0.23839   0.61774   0.00000  Uiso   1.00
C284   C     0.71445   0.17972   0.59815   0.00000  Uiso   1.00
C285   C     0.79251   0.08542   0.58145   0.00000  Uiso   1.00
C286   C     0.41685   0.32289   0.63563   0.00000  Uiso   1.00
C287   C     0.37748   0.34450   0.69619   0.00000  Uiso   1.00
C288   C     0.25704   0.33436   0.71249   0.00000  Uiso   1.00
C289   C     0.07036   0.32958   0.76194   0.00000  Uiso   1.00
C290   C     0.40083   0.27252   0.52925   0.00000  Uiso   1.00
C291   C     0.45323   0.32942   0.49857   0.00000  Uiso   1.00
C292   C     0.42914   0.35052   0.43548   0.00000  Uiso   1.00
C293   C     0.48605   0.40344   0.41664   0.00000  Uiso   1.00
C294   C     0.50920   0.23458   0.55026   0.00000  Uiso   1.00
C295   C     0.53215   0.17593   0.53063   0.00000  Uiso   1.00
C296   C     0.63616   0.14900   0.55531   0.00000  Uiso   1.00
C297   C     0.33868   0.29223   0.59287   0.00000  Uiso   1.00
C298   C     0.21828   0.28205   0.60908   0.00000  Uiso   1.00
C299   C     0.17874   0.30364   0.66964   0.00000  Uiso   1.00
H300   H     0.60558   0.35283   0.64128   0.00000  Uiso   1.00
H301   H     0.64884   0.43669   0.55569   0.00000  Uiso   1.00
H302   H     0.75181   0.26213   0.65084   0.00000  Uiso   1.00
H303   H     0.43799   0.36823   0.72927   0.00000  Uiso   1.00
H304   H     0.66236   0.51613   0.44194   0.00000  Uiso   1.00
H305   H     0.87947   0.14804   0.64258   0.00000  Uiso   1.00
H306   H     0.21772   0.37177   0.80797   0.00000  Uiso   1.00
H307   H     0.33998   0.24864   0.49595   0.00000  Uiso   1.00
H308   H     0.36865   0.32679   0.40239   0.00000  Uiso   1.00
H309   H     0.47164   0.15222   0.49754   0.00000  Uiso   1.00
H310   H     0.15782   0.25832   0.57597   0.00000  Uiso   1.00
H311   H     0.43496   0.42692   0.31752   0.00000  Uiso   1.00
H312   H     0.65207   0.05883   0.51816   0.00000  Uiso   1.00
H313   H     0.99032   0.28257   0.68355   0.00000  Uiso   1.00
O314   O     0.57235   0.52480   0.32080   0.00000  Uiso   1.00
O315   O     0.85717   0.04188   0.58404   0.00000  Uiso   1.00
O316   O     0.98898   0.33542   0.80102   0.00000  Uiso   1.00
N317   N     0.60489   0.48442   0.42550   0.00000  Uiso   1.00
N318   N     0.80788   0.14028   0.61308   0.00000  Uiso   1.00
N319   N     0.18921   0.34944   0.76771   0.00000  Uiso   1.00
N320   N     0.48252   0.43642   0.35855   0.00000  Uiso   1.00
N321   N     0.68552   0.09228   0.54613   0.00000  Uiso   1.00
N322   N     0.06685   0.30144   0.70076   0.00000  Uiso   1.00
C323   C     0.95527   0.67103   0.60798   0.00000  Uiso   1.00
C324   C     0.96861   0.63992   0.54133   0.00000  Uiso   1.00
C325   C     0.91165   0.58702   0.52259   0.00000  Uiso   1.00
C326   C     0.93564   0.56584   0.45948   0.00000  Uiso   1.00
C327   C     0.94442   0.51288   0.36249   0.00000  Uiso   1.00
C328   C     0.91265   0.73476   0.59302   0.00000  Uiso   1.00
C329   C     0.80865   0.76161   0.61774   0.00000  Uiso   1.00
C330   C     0.78555   0.82028   0.59815   0.00000  Uiso   1.00
C331   C     0.70749   0.91458   0.58145   0.00000  Uiso   1.00
C332   C     0.08315   0.67711   0.63563   0.00000  Uiso   1.00
C333   C     0.12252   0.65550   0.69619   0.00000  Uiso   1.00
C334   C     0.24296   0.66564   0.71249   0.00000  Uiso   1.00
C335   C     0.42964   0.67042   0.76194   0.00000  Uiso   1.00
C336   C     0.09917   0.72748   0.52925   0.00000  Uiso   1.00
C337   C     0.04677   0.67058   0.49857   0.00000  Uiso   1.00
C338   C     0.07086   0.64948   0.43548   0.00000  Uiso   1.00
C339   C     0.01395   0.59656   0.41664   0.00000  Uiso   1.00
C340   C     0.99080   0.76542   0.55026   0.00000  Uiso   1.00
C341   C     0.96785   0.82407   0.53063   0.00000  Uiso   1.00
C342   C     0.86384   0.85100   0.55531   0.00000  Uiso   1.00
C343   C     0.16132   0.70777   0.59287   0.00000  Uiso   1.00
C344   C     0.28172   0.71795   0.60908   0.00000  Uiso   1.00
C345   C     0.32126   0.69636   0.66964   0.00000  Uiso   1.00
H346   H     0.89442   0.64717   0.64128   0.00000  Uiso   1.00
H347   H     0.85116   0.56331   0.55569   0.00000  Uiso   1.00
H348   H     0.74819   0.73787   0.65084   0.00000  Uiso   1.00
H349   H     0.06201   0.63177   0.72927   0.00000  Uiso   1.00
H350   H     0.83764   0.48387   0.44194   0.00000  Uiso   1.00
H351   H     0.62053   0.85196   0.64258   0.00000  Uiso   1.00
H352   H     0.28228   0.62823   0.80797   0.00000  Uiso   1.00
H353   H     0.16002   0.75136   0.49595   0.00000  Uiso   1.00
H354   H     0.13135   0.67321   0.40239   0.00000  Uiso   1.00
H355   H     0.02836   0.84778   0.49754   0.00000  Uiso   1.00
H356   H     0.34218   0.74168   0.57597   0.00000  Uiso   1.00
H357   H     0.06504   0.57308   0.31752   0.00000  Uiso   1.00
H358   H     0.84793   0.94117   0.51816   0.00000  Uiso   1.00
H359   H     0.50968   0.71743   0.68355   0.00000  Uiso   1.00
O360   O     0.92765   0.47520   0.32080   0.00000  Uiso   1.00
O361   O     0.64283   0.95812   0.58404   0.00000  Uiso   1.00
O362   O     0.51102   0.66458   0.80102   0.00000  Uiso   1.00
N363   N     0.89511   0.51558   0.42550   0.00000  Uiso   1.00
N364   N     0.69212   0.85972   0.61308   0.00000  Uiso   1.00
N365   N     0.31079   0.65056   0.76771   0.00000  Uiso   1.00
N366   N     0.01748   0.56358   0.35855   0.00000  Uiso   1.00
N367   N     0.81448   0.90772   0.54613   0.00000  Uiso   1.00
N368   N     0.43315   0.69856   0.70076   0.00000  Uiso   1.00
