data_job_05410
_audit_creation_date              2018-12-19
_audit_creation_method            'Materials Studio'
_symmetry_space_group_name_H-M    'P1'
_symmetry_Int_Tables_number       1
_symmetry_cell_setting            triclinic
loop_
_symmetry_equiv_pos_as_xyz
  x,y,z
_cell_length_a                    27.3634
_cell_length_b                    17.1653
_cell_length_c                    12.5059
_cell_angle_alpha                 90.0000
_cell_angle_beta                  90.0000
_cell_angle_gamma                 90.0000
loop_
_atom_site_label
_atom_site_type_symbol
_atom_site_fract_x
_atom_site_fract_y
_atom_site_fract_z
_atom_site_U_iso_or_equiv
_atom_site_adp_type
_atom_site_occupancy
C1     C     0.81398   0.60743   0.82698   0.00000  Uiso   1.00
C2     C     0.79950   0.52258   0.80960   0.00000  Uiso   1.00
C3     C     0.75281   0.49215   0.82113   0.00000  Uiso   1.00
C4     C     0.74708   0.41305   0.80162   0.00000  Uiso   1.00
C5     C     0.71857   0.28844   0.77925   0.00000  Uiso   1.00
C6     C     0.85457   0.60643   0.91053   0.00000  Uiso   1.00
C7     C     0.85419   0.64650   0.00691   0.00000  Uiso   1.00
C8     C     0.89482   0.63798   0.07236   0.00000  Uiso   1.00
C9     C     0.95183   0.64358   0.20664   0.00000  Uiso   1.00
C10    C     0.83782   0.63409   0.72301   0.00000  Uiso   1.00
C11    C     0.82336   0.69744   0.66174   0.00000  Uiso   1.00
C12    C     0.84990   0.71223   0.56931   0.00000  Uiso   1.00
C13    C     0.88089   0.76078   0.41245   0.00000  Uiso   1.00
C14    C     0.88684   0.52107   0.77182   0.00000  Uiso   1.00
C15    C     0.83907   0.47568   0.77964   0.00000  Uiso   1.00
C16    C     0.83341   0.39660   0.76010   0.00000  Uiso   1.00
C17    C     0.78672   0.36606   0.77160   0.00000  Uiso   1.00
C18    C     0.89414   0.55952   0.88057   0.00000  Uiso   1.00
C19    C     0.93479   0.55095   0.94588   0.00000  Uiso   1.00
C20    C     0.93447   0.59099   0.04234   0.00000  Uiso   1.00
C21    C     0.87739   0.58719   0.69305   0.00000  Uiso   1.00
C22    C     0.90396   0.60189   0.60071   0.00000  Uiso   1.00
C23    C     0.88954   0.66524   0.53930   0.00000  Uiso   1.00
H24    H     0.78318   0.64395   0.85031   0.00000  Uiso   1.00
H25    H     0.72219   0.52847   0.84433   0.00000  Uiso   1.00
H26    H     0.82356   0.68280   0.03007   0.00000  Uiso   1.00
H27    H     0.79273   0.73372   0.68495   0.00000  Uiso   1.00
H28    H     0.67203   0.37975   0.82453   0.00000  Uiso   1.00
H29    H     0.88578   0.70518   0.21616   0.00000  Uiso   1.00
H30    H     0.82077   0.81257   0.48840   0.00000  Uiso   1.00
H31    H     0.91765   0.48455   0.74849   0.00000  Uiso   1.00
H32    H     0.86404   0.36032   0.73692   0.00000  Uiso   1.00
H33    H     0.96541   0.51465   0.92267   0.00000  Uiso   1.00
H34    H     0.93458   0.56558   0.57755   0.00000  Uiso   1.00
H35    H     0.78717   0.24327   0.73736   0.00000  Uiso   1.00
H36    H     0.00091   0.56871   0.12899   0.00000  Uiso   1.00
H37    H     0.93591   0.67609   0.40123   0.00000  Uiso   1.00
O38    O     0.69191   0.23266   0.77520   0.00000  Uiso   1.00
O39    O     0.97234   0.65962   0.28900   0.00000  Uiso   1.00
O40    O     0.88705   0.80051   0.33420   0.00000  Uiso   1.00
N41    N     0.70649   0.36468   0.80558   0.00000  Uiso   1.00
N42    N     0.90632   0.66893   0.17174   0.00000  Uiso   1.00
N43    N     0.84555   0.76934   0.49136   0.00000  Uiso   1.00
N44    N     0.76844   0.29124   0.75867   0.00000  Uiso   1.00
N45    N     0.96827   0.59549   0.12483   0.00000  Uiso   1.00
N46    N     0.90751   0.69591   0.44445   0.00000  Uiso   1.00
C47    C     0.68386   0.78113   0.66631   0.00000  Uiso   1.00
C48    C     0.69877   0.86576   0.68392   0.00000  Uiso   1.00
C49    C     0.74561   0.89561   0.67245   0.00000  Uiso   1.00
C50    C     0.75174   0.97461   0.69218   0.00000  Uiso   1.00
C51    C     0.78087   0.09882   0.71489   0.00000  Uiso   1.00
C52    C     0.64327   0.78277   0.58278   0.00000  Uiso   1.00
C53    C     0.64344   0.74285   0.48628   0.00000  Uiso   1.00
C54    C     0.60284   0.75198   0.42089   0.00000  Uiso   1.00
C55    C     0.54579   0.74731   0.28662   0.00000  Uiso   1.00
C56    C     0.65990   0.75461   0.77021   0.00000  Uiso   1.00
C57    C     0.67405   0.69099   0.83129   0.00000  Uiso   1.00
C58    C     0.64745   0.67639   0.92369   0.00000  Uiso   1.00
C59    C     0.61623   0.62800   0.08043   0.00000  Uiso   1.00
C60    C     0.61144   0.86833   0.72176   0.00000  Uiso   1.00
C61    C     0.65944   0.91312   0.71403   0.00000  Uiso   1.00
C62    C     0.66549   0.99209   0.73380   0.00000  Uiso   1.00
C63    C     0.71233   0.02206   0.72236   0.00000  Uiso   1.00
C64    C     0.60394   0.83013   0.61290   0.00000  Uiso   1.00
C65    C     0.56332   0.83932   0.54763   0.00000  Uiso   1.00
C66    C     0.56343   0.79942   0.45106   0.00000  Uiso   1.00
C67    C     0.62057   0.80197   0.80033   0.00000  Uiso   1.00
C68    C     0.59394   0.78747   0.89264   0.00000  Uiso   1.00
C69    C     0.60804   0.72384   0.95386   0.00000  Uiso   1.00
H70    H     0.71448   0.74425   0.64285   0.00000  Uiso   1.00
H71    H     0.77604   0.85894   0.64913   0.00000  Uiso   1.00
H72    H     0.67388   0.70619   0.46300   0.00000  Uiso   1.00
H73    H     0.70449   0.65435   0.80796   0.00000  Uiso   1.00
H74    H     0.82694   0.00699   0.66933   0.00000  Uiso   1.00
H75    H     0.61153   0.68489   0.27688   0.00000  Uiso   1.00
H76    H     0.67608   0.57556   0.00430   0.00000  Uiso   1.00
H77    H     0.58082   0.90520   0.74521   0.00000  Uiso   1.00
H78    H     0.63505   0.02873   0.75710   0.00000  Uiso   1.00
H79    H     0.53289   0.87597   0.57097   0.00000  Uiso   1.00
H80    H     0.56350   0.82413   0.91593   0.00000  Uiso   1.00
H81    H     0.71251   0.14479   0.75696   0.00000  Uiso   1.00
H82    H     0.49710   0.82269   0.36451   0.00000  Uiso   1.00
H83    H     0.56165   0.71336   0.09193   0.00000  Uiso   1.00
O84    O     0.80781   0.15425   0.71908   0.00000  Uiso   1.00
O85    O     0.52520   0.73165   0.20423   0.00000  Uiso   1.00
O86    O     0.60988   0.58822   0.15857   0.00000  Uiso   1.00
N87    N     0.79257   0.02247   0.68834   0.00000  Uiso   1.00
N88    N     0.59118   0.72133   0.32142   0.00000  Uiso   1.00
N89    N     0.65152   0.61911   0.00147   0.00000  Uiso   1.00
N90    N     0.73099   0.09662   0.73549   0.00000  Uiso   1.00
N91    N     0.52960   0.79548   0.36857   0.00000  Uiso   1.00
N92    N     0.58994   0.69326   0.04863   0.00000  Uiso   1.00
C93    C     0.18602   0.39257   0.82698   0.00000  Uiso   1.00
C94    C     0.20050   0.47742   0.80960   0.00000  Uiso   1.00
C95    C     0.24719   0.50785   0.82113   0.00000  Uiso   1.00
C96    C     0.25292   0.58695   0.80162   0.00000  Uiso   1.00
C97    C     0.28143   0.71156   0.77925   0.00000  Uiso   1.00
C98    C     0.14543   0.39357   0.91053   0.00000  Uiso   1.00
C99    C     0.14581   0.35350   0.00691   0.00000  Uiso   1.00
C100   C     0.10518   0.36202   0.07236   0.00000  Uiso   1.00
C101   C     0.04817   0.35642   0.20664   0.00000  Uiso   1.00
C102   C     0.16218   0.36591   0.72301   0.00000  Uiso   1.00
C103   C     0.17664   0.30256   0.66174   0.00000  Uiso   1.00
C104   C     0.15010   0.28777   0.56931   0.00000  Uiso   1.00
C105   C     0.11911   0.23922   0.41245   0.00000  Uiso   1.00
C106   C     0.11316   0.47893   0.77182   0.00000  Uiso   1.00
C107   C     0.16093   0.52432   0.77964   0.00000  Uiso   1.00
C108   C     0.16659   0.60340   0.76010   0.00000  Uiso   1.00
C109   C     0.21328   0.63394   0.77160   0.00000  Uiso   1.00
C110   C     0.10586   0.44048   0.88057   0.00000  Uiso   1.00
C111   C     0.06521   0.44905   0.94588   0.00000  Uiso   1.00
C112   C     0.06553   0.40901   0.04234   0.00000  Uiso   1.00
C113   C     0.12261   0.41281   0.69305   0.00000  Uiso   1.00
C114   C     0.09604   0.39811   0.60071   0.00000  Uiso   1.00
C115   C     0.11046   0.33476   0.53930   0.00000  Uiso   1.00
H116   H     0.21682   0.35605   0.85031   0.00000  Uiso   1.00
H117   H     0.27781   0.47153   0.84433   0.00000  Uiso   1.00
H118   H     0.17644   0.31720   0.03007   0.00000  Uiso   1.00
H119   H     0.20727   0.26628   0.68495   0.00000  Uiso   1.00
H120   H     0.32797   0.62025   0.82453   0.00000  Uiso   1.00
H121   H     0.11422   0.29482   0.21616   0.00000  Uiso   1.00
H122   H     0.17923   0.18743   0.48840   0.00000  Uiso   1.00
H123   H     0.08235   0.51545   0.74849   0.00000  Uiso   1.00
H124   H     0.13596   0.63968   0.73692   0.00000  Uiso   1.00
H125   H     0.03459   0.48535   0.92267   0.00000  Uiso   1.00
H126   H     0.06542   0.43442   0.57755   0.00000  Uiso   1.00
H127   H     0.21283   0.75673   0.73736   0.00000  Uiso   1.00
H128   H     0.99909   0.43129   0.12899   0.00000  Uiso   1.00
H129   H     0.06409   0.32391   0.40123   0.00000  Uiso   1.00
O130   O     0.30809   0.76734   0.77520   0.00000  Uiso   1.00
O131   O     0.02766   0.34038   0.28900   0.00000  Uiso   1.00
O132   O     0.11295   0.19949   0.33420   0.00000  Uiso   1.00
N133   N     0.29351   0.63532   0.80558   0.00000  Uiso   1.00
N134   N     0.09368   0.33107   0.17174   0.00000  Uiso   1.00
N135   N     0.15445   0.23066   0.49136   0.00000  Uiso   1.00
N136   N     0.23156   0.70876   0.75867   0.00000  Uiso   1.00
N137   N     0.03173   0.40451   0.12483   0.00000  Uiso   1.00
N138   N     0.09249   0.30409   0.44445   0.00000  Uiso   1.00
C139   C     0.31614   0.21887   0.66631   0.00000  Uiso   1.00
C140   C     0.30123   0.13424   0.68392   0.00000  Uiso   1.00
C141   C     0.25439   0.10439   0.67245   0.00000  Uiso   1.00
C142   C     0.24826   0.02539   0.69218   0.00000  Uiso   1.00
C143   C     0.21913   0.90118   0.71489   0.00000  Uiso   1.00
C144   C     0.35673   0.21723   0.58278   0.00000  Uiso   1.00
C145   C     0.35656   0.25715   0.48628   0.00000  Uiso   1.00
C146   C     0.39716   0.24802   0.42089   0.00000  Uiso   1.00
C147   C     0.45421   0.25269   0.28662   0.00000  Uiso   1.00
C148   C     0.34010   0.24539   0.77021   0.00000  Uiso   1.00
C149   C     0.32595   0.30901   0.83129   0.00000  Uiso   1.00
C150   C     0.35255   0.32361   0.92369   0.00000  Uiso   1.00
C151   C     0.38377   0.37200   0.08043   0.00000  Uiso   1.00
C152   C     0.38856   0.13167   0.72176   0.00000  Uiso   1.00
C153   C     0.34056   0.08688   0.71403   0.00000  Uiso   1.00
C154   C     0.33451   0.00791   0.73380   0.00000  Uiso   1.00
C155   C     0.28767   0.97794   0.72236   0.00000  Uiso   1.00
C156   C     0.39606   0.16987   0.61290   0.00000  Uiso   1.00
C157   C     0.43668   0.16068   0.54763   0.00000  Uiso   1.00
C158   C     0.43657   0.20058   0.45106   0.00000  Uiso   1.00
C159   C     0.37943   0.19803   0.80033   0.00000  Uiso   1.00
C160   C     0.40606   0.21253   0.89264   0.00000  Uiso   1.00
C161   C     0.39196   0.27616   0.95386   0.00000  Uiso   1.00
H162   H     0.28552   0.25575   0.64285   0.00000  Uiso   1.00
H163   H     0.22396   0.14106   0.64913   0.00000  Uiso   1.00
H164   H     0.32612   0.29381   0.46300   0.00000  Uiso   1.00
H165   H     0.29551   0.34565   0.80796   0.00000  Uiso   1.00
H166   H     0.17306   0.99301   0.66933   0.00000  Uiso   1.00
H167   H     0.38847   0.31511   0.27688   0.00000  Uiso   1.00
H168   H     0.32392   0.42444   0.00430   0.00000  Uiso   1.00
H169   H     0.41918   0.09480   0.74521   0.00000  Uiso   1.00
H170   H     0.36495   0.97127   0.75710   0.00000  Uiso   1.00
H171   H     0.46711   0.12403   0.57097   0.00000  Uiso   1.00
H172   H     0.43650   0.17587   0.91593   0.00000  Uiso   1.00
H173   H     0.28749   0.85521   0.75696   0.00000  Uiso   1.00
H174   H     0.50290   0.17731   0.36451   0.00000  Uiso   1.00
H175   H     0.43835   0.28664   0.09193   0.00000  Uiso   1.00
O176   O     0.19219   0.84575   0.71908   0.00000  Uiso   1.00
O177   O     0.47480   0.26835   0.20423   0.00000  Uiso   1.00
O178   O     0.39012   0.41178   0.15857   0.00000  Uiso   1.00
N179   N     0.20743   0.97753   0.68834   0.00000  Uiso   1.00
N180   N     0.40882   0.27867   0.32142   0.00000  Uiso   1.00
N181   N     0.34848   0.38089   0.00147   0.00000  Uiso   1.00
N182   N     0.26901   0.90338   0.73549   0.00000  Uiso   1.00
N183   N     0.47040   0.20452   0.36857   0.00000  Uiso   1.00
N184   N     0.41006   0.30674   0.04863   0.00000  Uiso   1.00
C185   C     0.68602   0.10743   0.17302   0.00000  Uiso   1.00
C186   C     0.70050   0.02258   0.19040   0.00000  Uiso   1.00
C187   C     0.74719   0.99215   0.17887   0.00000  Uiso   1.00
C188   C     0.75292   0.91305   0.19838   0.00000  Uiso   1.00
C189   C     0.78143   0.78844   0.22075   0.00000  Uiso   1.00
C190   C     0.64543   0.10643   0.08947   0.00000  Uiso   1.00
C191   C     0.64581   0.14650   0.99309   0.00000  Uiso   1.00
C192   C     0.60518   0.13798   0.92764   0.00000  Uiso   1.00
C193   C     0.54817   0.14358   0.79336   0.00000  Uiso   1.00
C194   C     0.66218   0.13409   0.27699   0.00000  Uiso   1.00
C195   C     0.67664   0.19744   0.33826   0.00000  Uiso   1.00
C196   C     0.65010   0.21223   0.43069   0.00000  Uiso   1.00
C197   C     0.61911   0.26078   0.58755   0.00000  Uiso   1.00
C198   C     0.61316   0.02107   0.22818   0.00000  Uiso   1.00
C199   C     0.66093   0.97568   0.22036   0.00000  Uiso   1.00
C200   C     0.66659   0.89660   0.23990   0.00000  Uiso   1.00
C201   C     0.71328   0.86606   0.22840   0.00000  Uiso   1.00
C202   C     0.60586   0.05952   0.11943   0.00000  Uiso   1.00
C203   C     0.56521   0.05095   0.05412   0.00000  Uiso   1.00
C204   C     0.56553   0.09099   0.95766   0.00000  Uiso   1.00
C205   C     0.62261   0.08719   0.30695   0.00000  Uiso   1.00
C206   C     0.59604   0.10189   0.39929   0.00000  Uiso   1.00
C207   C     0.61046   0.16524   0.46070   0.00000  Uiso   1.00
H208   H     0.71682   0.14395   0.14969   0.00000  Uiso   1.00
H209   H     0.77781   0.02847   0.15567   0.00000  Uiso   1.00
H210   H     0.67644   0.18280   0.96993   0.00000  Uiso   1.00
H211   H     0.70727   0.23372   0.31505   0.00000  Uiso   1.00
H212   H     0.82797   0.87975   0.17547   0.00000  Uiso   1.00
H213   H     0.61422   0.20518   0.78384   0.00000  Uiso   1.00
H214   H     0.67923   0.31257   0.51160   0.00000  Uiso   1.00
H215   H     0.58235   0.98455   0.25151   0.00000  Uiso   1.00
H216   H     0.63596   0.86032   0.26308   0.00000  Uiso   1.00
H217   H     0.53459   0.01465   0.07733   0.00000  Uiso   1.00
H218   H     0.56542   0.06558   0.42245   0.00000  Uiso   1.00
H219   H     0.71283   0.74327   0.26264   0.00000  Uiso   1.00
H220   H     0.49909   0.06871   0.87101   0.00000  Uiso   1.00
H221   H     0.56409   0.17609   0.59877   0.00000  Uiso   1.00
O222   O     0.80809   0.73266   0.22480   0.00000  Uiso   1.00
O223   O     0.52766   0.15962   0.71100   0.00000  Uiso   1.00
O224   O     0.61295   0.30051   0.66580   0.00000  Uiso   1.00
N225   N     0.79351   0.86468   0.19442   0.00000  Uiso   1.00
N226   N     0.59368   0.16893   0.82826   0.00000  Uiso   1.00
N227   N     0.65445   0.26934   0.50864   0.00000  Uiso   1.00
N228   N     0.73156   0.79124   0.24133   0.00000  Uiso   1.00
N229   N     0.53173   0.09549   0.87517   0.00000  Uiso   1.00
N230   N     0.59249   0.19591   0.55555   0.00000  Uiso   1.00
C231   C     0.81614   0.28113   0.33369   0.00000  Uiso   1.00
C232   C     0.80123   0.36576   0.31608   0.00000  Uiso   1.00
C233   C     0.75439   0.39561   0.32755   0.00000  Uiso   1.00
C234   C     0.74826   0.47461   0.30782   0.00000  Uiso   1.00
C235   C     0.71913   0.59882   0.28511   0.00000  Uiso   1.00
C236   C     0.85673   0.28277   0.41722   0.00000  Uiso   1.00
C237   C     0.85656   0.24285   0.51372   0.00000  Uiso   1.00
C238   C     0.89716   0.25198   0.57911   0.00000  Uiso   1.00
C239   C     0.95421   0.24731   0.71338   0.00000  Uiso   1.00
C240   C     0.84010   0.25461   0.22979   0.00000  Uiso   1.00
C241   C     0.82595   0.19099   0.16871   0.00000  Uiso   1.00
C242   C     0.85255   0.17639   0.07631   0.00000  Uiso   1.00
C243   C     0.88377   0.12800   0.91957   0.00000  Uiso   1.00
C244   C     0.88856   0.36833   0.27824   0.00000  Uiso   1.00
C245   C     0.84056   0.41312   0.28597   0.00000  Uiso   1.00
C246   C     0.83451   0.49209   0.26620   0.00000  Uiso   1.00
C247   C     0.78767   0.52206   0.27764   0.00000  Uiso   1.00
C248   C     0.89606   0.33013   0.38710   0.00000  Uiso   1.00
C249   C     0.93668   0.33932   0.45237   0.00000  Uiso   1.00
C250   C     0.93657   0.29942   0.54894   0.00000  Uiso   1.00
C251   C     0.87943   0.30197   0.19967   0.00000  Uiso   1.00
C252   C     0.90606   0.28747   0.10736   0.00000  Uiso   1.00
C253   C     0.89196   0.22384   0.04614   0.00000  Uiso   1.00
H254   H     0.78552   0.24425   0.35715   0.00000  Uiso   1.00
H255   H     0.72396   0.35894   0.35087   0.00000  Uiso   1.00
H256   H     0.82612   0.20619   0.53700   0.00000  Uiso   1.00
H257   H     0.79551   0.15435   0.19204   0.00000  Uiso   1.00
H258   H     0.67306   0.50699   0.33067   0.00000  Uiso   1.00
H259   H     0.88847   0.18489   0.72312   0.00000  Uiso   1.00
H260   H     0.82392   0.07556   0.99570   0.00000  Uiso   1.00
H261   H     0.91918   0.40520   0.25479   0.00000  Uiso   1.00
H262   H     0.86495   0.52873   0.24290   0.00000  Uiso   1.00
H263   H     0.96711   0.37597   0.42903   0.00000  Uiso   1.00
H264   H     0.93650   0.32413   0.08407   0.00000  Uiso   1.00
H265   H     0.78749   0.64479   0.24304   0.00000  Uiso   1.00
H266   H     0.00290   0.32269   0.63549   0.00000  Uiso   1.00
H267   H     0.93835   0.21336   0.90807   0.00000  Uiso   1.00
O268   O     0.69219   0.65425   0.28092   0.00000  Uiso   1.00
O269   O     0.97480   0.23165   0.79577   0.00000  Uiso   1.00
O270   O     0.89012   0.08822   0.84143   0.00000  Uiso   1.00
N271   N     0.70743   0.52247   0.31166   0.00000  Uiso   1.00
N272   N     0.90882   0.22133   0.67858   0.00000  Uiso   1.00
N273   N     0.84848   0.11911   0.99853   0.00000  Uiso   1.00
N274   N     0.76901   0.59662   0.26451   0.00000  Uiso   1.00
N275   N     0.97040   0.29548   0.63143   0.00000  Uiso   1.00
N276   N     0.91006   0.19326   0.95137   0.00000  Uiso   1.00
C277   C     0.31398   0.89257   0.17302   0.00000  Uiso   1.00
C278   C     0.29950   0.97742   0.19040   0.00000  Uiso   1.00
C279   C     0.25281   0.00785   0.17887   0.00000  Uiso   1.00
C280   C     0.24708   0.08695   0.19838   0.00000  Uiso   1.00
C281   C     0.21857   0.21156   0.22075   0.00000  Uiso   1.00
C282   C     0.35457   0.89357   0.08947   0.00000  Uiso   1.00
C283   C     0.35419   0.85350   0.99309   0.00000  Uiso   1.00
C284   C     0.39482   0.86202   0.92764   0.00000  Uiso   1.00
C285   C     0.45183   0.85642   0.79336   0.00000  Uiso   1.00
C286   C     0.33782   0.86591   0.27699   0.00000  Uiso   1.00
C287   C     0.32336   0.80256   0.33826   0.00000  Uiso   1.00
C288   C     0.34990   0.78777   0.43069   0.00000  Uiso   1.00
C289   C     0.38089   0.73922   0.58755   0.00000  Uiso   1.00
C290   C     0.38684   0.97893   0.22818   0.00000  Uiso   1.00
C291   C     0.33907   0.02432   0.22036   0.00000  Uiso   1.00
C292   C     0.33341   0.10340   0.23990   0.00000  Uiso   1.00
C293   C     0.28672   0.13394   0.22840   0.00000  Uiso   1.00
C294   C     0.39414   0.94048   0.11943   0.00000  Uiso   1.00
C295   C     0.43479   0.94905   0.05412   0.00000  Uiso   1.00
C296   C     0.43447   0.90901   0.95766   0.00000  Uiso   1.00
C297   C     0.37739   0.91281   0.30695   0.00000  Uiso   1.00
C298   C     0.40396   0.89811   0.39929   0.00000  Uiso   1.00
C299   C     0.38954   0.83476   0.46070   0.00000  Uiso   1.00
H300   H     0.28318   0.85605   0.14969   0.00000  Uiso   1.00
H301   H     0.22219   0.97153   0.15567   0.00000  Uiso   1.00
H302   H     0.32356   0.81720   0.96993   0.00000  Uiso   1.00
H303   H     0.29273   0.76628   0.31505   0.00000  Uiso   1.00
H304   H     0.17203   0.12025   0.17547   0.00000  Uiso   1.00
H305   H     0.38578   0.79482   0.78384   0.00000  Uiso   1.00
H306   H     0.32077   0.68743   0.51160   0.00000  Uiso   1.00
H307   H     0.41765   0.01545   0.25151   0.00000  Uiso   1.00
H308   H     0.36404   0.13968   0.26308   0.00000  Uiso   1.00
H309   H     0.46541   0.98535   0.07733   0.00000  Uiso   1.00
H310   H     0.43458   0.93442   0.42245   0.00000  Uiso   1.00
H311   H     0.28717   0.25673   0.26264   0.00000  Uiso   1.00
H312   H     0.50091   0.93129   0.87101   0.00000  Uiso   1.00
H313   H     0.43591   0.82391   0.59877   0.00000  Uiso   1.00
O314   O     0.19191   0.26734   0.22480   0.00000  Uiso   1.00
O315   O     0.47234   0.84038   0.71100   0.00000  Uiso   1.00
O316   O     0.38705   0.69949   0.66580   0.00000  Uiso   1.00
N317   N     0.20649   0.13532   0.19442   0.00000  Uiso   1.00
N318   N     0.40632   0.83107   0.82826   0.00000  Uiso   1.00
N319   N     0.34555   0.73066   0.50864   0.00000  Uiso   1.00
N320   N     0.26844   0.20876   0.24133   0.00000  Uiso   1.00
N321   N     0.46827   0.90451   0.87517   0.00000  Uiso   1.00
N322   N     0.40751   0.80409   0.55555   0.00000  Uiso   1.00
C323   C     0.18386   0.71887   0.33369   0.00000  Uiso   1.00
C324   C     0.19877   0.63424   0.31608   0.00000  Uiso   1.00
C325   C     0.24561   0.60439   0.32755   0.00000  Uiso   1.00
C326   C     0.25174   0.52539   0.30782   0.00000  Uiso   1.00
C327   C     0.28087   0.40118   0.28511   0.00000  Uiso   1.00
C328   C     0.14327   0.71723   0.41722   0.00000  Uiso   1.00
C329   C     0.14344   0.75715   0.51372   0.00000  Uiso   1.00
C330   C     0.10284   0.74802   0.57911   0.00000  Uiso   1.00
C331   C     0.04579   0.75269   0.71338   0.00000  Uiso   1.00
C332   C     0.15990   0.74539   0.22979   0.00000  Uiso   1.00
C333   C     0.17405   0.80901   0.16871   0.00000  Uiso   1.00
C334   C     0.14745   0.82361   0.07631   0.00000  Uiso   1.00
C335   C     0.11623   0.87200   0.91957   0.00000  Uiso   1.00
C336   C     0.11144   0.63167   0.27824   0.00000  Uiso   1.00
C337   C     0.15944   0.58688   0.28597   0.00000  Uiso   1.00
C338   C     0.16549   0.50791   0.26620   0.00000  Uiso   1.00
C339   C     0.21233   0.47794   0.27764   0.00000  Uiso   1.00
C340   C     0.10394   0.66987   0.38710   0.00000  Uiso   1.00
C341   C     0.06332   0.66068   0.45237   0.00000  Uiso   1.00
C342   C     0.06343   0.70058   0.54894   0.00000  Uiso   1.00
C343   C     0.12057   0.69803   0.19967   0.00000  Uiso   1.00
C344   C     0.09394   0.71253   0.10736   0.00000  Uiso   1.00
C345   C     0.10804   0.77616   0.04614   0.00000  Uiso   1.00
H346   H     0.21448   0.75575   0.35715   0.00000  Uiso   1.00
H347   H     0.27604   0.64106   0.35087   0.00000  Uiso   1.00
H348   H     0.17388   0.79381   0.53700   0.00000  Uiso   1.00
H349   H     0.20449   0.84565   0.19204   0.00000  Uiso   1.00
H350   H     0.32694   0.49301   0.33067   0.00000  Uiso   1.00
H351   H     0.11153   0.81511   0.72312   0.00000  Uiso   1.00
H352   H     0.17608   0.92444   0.99570   0.00000  Uiso   1.00
H353   H     0.08082   0.59480   0.25479   0.00000  Uiso   1.00
H354   H     0.13505   0.47127   0.24290   0.00000  Uiso   1.00
H355   H     0.03289   0.62403   0.42903   0.00000  Uiso   1.00
H356   H     0.06350   0.67587   0.08407   0.00000  Uiso   1.00
H357   H     0.21251   0.35521   0.24304   0.00000  Uiso   1.00
H358   H     0.99710   0.67731   0.63549   0.00000  Uiso   1.00
H359   H     0.06165   0.78664   0.90807   0.00000  Uiso   1.00
O360   O     0.30781   0.34575   0.28092   0.00000  Uiso   1.00
O361   O     0.02520   0.76835   0.79577   0.00000  Uiso   1.00
O362   O     0.10988   0.91178   0.84143   0.00000  Uiso   1.00
N363   N     0.29257   0.47753   0.31166   0.00000  Uiso   1.00
N364   N     0.09118   0.77867   0.67858   0.00000  Uiso   1.00
N365   N     0.15152   0.88089   0.99853   0.00000  Uiso   1.00
N366   N     0.23099   0.40338   0.26451   0.00000  Uiso   1.00
N367   N     0.02960   0.70452   0.63143   0.00000  Uiso   1.00
N368   N     0.08994   0.80674   0.95137   0.00000  Uiso   1.00
