data_job_06349
_audit_creation_date              2018-12-19
_audit_creation_method            'Materials Studio'
_symmetry_space_group_name_H-M    'P1'
_symmetry_Int_Tables_number       1
_symmetry_cell_setting            triclinic
loop_
_symmetry_equiv_pos_as_xyz
  x,y,z
_cell_length_a                    12.6985
_cell_length_b                    19.5974
_cell_length_c                    20.4870
_cell_angle_alpha                 115.7930
_cell_angle_beta                  76.2027
_cell_angle_gamma                 83.5319
loop_
_atom_site_label
_atom_site_type_symbol
_atom_site_fract_x
_atom_site_fract_y
_atom_site_fract_z
_atom_site_U_iso_or_equiv
_atom_site_adp_type
_atom_site_occupancy
C1     C     0.94803   0.48792   0.13762   0.00000  Uiso   1.00
C2     C     0.88411   0.42927   0.14604   0.00000  Uiso   1.00
C3     C     0.81545   0.39579   0.10406   0.00000  Uiso   1.00
C4     C     0.76442   0.34346   0.12036   0.00000  Uiso   1.00
C5     C     0.66254   0.25518   0.12491   0.00000  Uiso   1.00
C6     C     0.91088   0.55942   0.21679   0.00000  Uiso   1.00
C7     C     0.86474   0.63537   0.23430   0.00000  Uiso   1.00
C8     C     0.83627   0.69261   0.31016   0.00000  Uiso   1.00
C9     C     0.77603   0.80641   0.42454   0.00000  Uiso   1.00
C10    C     0.07065   0.45218   0.12101   0.00000  Uiso   1.00
C11    C     0.15885   0.43797   0.05799   0.00000  Uiso   1.00
C12    C     0.26490   0.40493   0.05322   0.00000  Uiso   1.00
C13    C     0.45271   0.35221   0.01888   0.00000  Uiso   1.00
C14    C     0.97952   0.45452   0.24121   0.00000  Uiso   1.00
C15    C     0.90122   0.41113   0.20231   0.00000  Uiso   1.00
C16    C     0.85029   0.35883   0.21868   0.00000  Uiso   1.00
C17    C     0.78156   0.32528   0.17673   0.00000  Uiso   1.00
C18    C     0.92799   0.54128   0.27306   0.00000  Uiso   1.00
C19    C     0.89959   0.59842   0.34891   0.00000  Uiso   1.00
C20    C     0.85341   0.67443   0.36653   0.00000  Uiso   1.00
C21    C     0.08776   0.43403   0.17728   0.00000  Uiso   1.00
C22    C     0.19369   0.40101   0.17261   0.00000  Uiso   1.00
C23    C     0.28203   0.38676   0.10959   0.00000  Uiso   1.00
H24    H     0.93471   0.50205   0.09381   0.00000  Uiso   1.00
H25    H     0.80222   0.40985   0.06053   0.00000  Uiso   1.00
H26    H     0.85153   0.64940   0.19074   0.00000  Uiso   1.00
H27    H     0.14558   0.45202   0.01446   0.00000  Uiso   1.00
H28    H     0.66285   0.29965   0.04846   0.00000  Uiso   1.00
H29    H     0.76684   0.80475   0.32301   0.00000  Uiso   1.00
H30    H     0.38692   0.38855   0.95129   0.00000  Uiso   1.00
H31    H     0.99284   0.44039   0.28502   0.00000  Uiso   1.00
H32    H     0.86354   0.34481   0.26223   0.00000  Uiso   1.00
H33    H     0.91284   0.58436   0.39244   0.00000  Uiso   1.00
H34    H     0.20690   0.38698   0.21616   0.00000  Uiso   1.00
H35    H     0.71261   0.24687   0.21217   0.00000  Uiso   1.00
H36    H     0.81661   0.75197   0.48672   0.00000  Uiso   1.00
H37    H     0.43669   0.33576   0.11500   0.00000  Uiso   1.00
O38    O     0.60160   0.21151   0.11189   0.00000  Uiso   1.00
O39    O     0.73806   0.87419   0.47209   0.00000  Uiso   1.00
O40    O     0.55158   0.32814   0.98440   0.00000  Uiso   1.00
N41    N     0.69232   0.30034   0.09011   0.00000  Uiso   1.00
N42    N     0.78953   0.77257   0.34680   0.00000  Uiso   1.00
N43    N     0.36926   0.38348   0.99928   0.00000  Uiso   1.00
N44    N     0.71910   0.27193   0.17820   0.00000  Uiso   1.00
N45    N     0.81631   0.74417   0.43489   0.00000  Uiso   1.00
N46    N     0.39604   0.35507   0.08737   0.00000  Uiso   1.00
C47    C     0.08548   0.85673   0.35420   0.00000  Uiso   1.00
C48    C     0.03338   0.84521   0.29150   0.00000  Uiso   1.00
C49    C     0.92623   0.88278   0.30262   0.00000  Uiso   1.00
C50    C     0.89423   0.86421   0.23787   0.00000  Uiso   1.00
C51    C     0.80227   0.85455   0.15165   0.00000  Uiso   1.00
C52    C     0.12159   0.77576   0.34608   0.00000  Uiso   1.00
C53    C     0.08860   0.75494   0.40309   0.00000  Uiso   1.00
C54    C     0.13087   0.67792   0.38428   0.00000  Uiso   1.00
C55    C     0.17590   0.56044   0.38281   0.00000  Uiso   1.00
C56    C     0.19312   0.88083   0.33267   0.00000  Uiso   1.00
C57    C     0.22031   0.94834   0.37841   0.00000  Uiso   1.00
C58    C     0.32282   0.95977   0.34832   0.00000  Uiso   1.00
C59    C     0.47893   0.00543   0.32603   0.00000  Uiso   1.00
C60    C     0.21922   0.75696   0.21943   0.00000  Uiso   1.00
C61    C     0.10602   0.79102   0.21830   0.00000  Uiso   1.00
C62    C     0.07419   0.77240   0.15351   0.00000  Uiso   1.00
C63    C     0.96700   0.80993   0.16453   0.00000  Uiso   1.00
C64    C     0.19422   0.72157   0.27288   0.00000  Uiso   1.00
C65    C     0.23656   0.64456   0.25398   0.00000  Uiso   1.00
C66    C     0.20364   0.62363   0.31095   0.00000  Uiso   1.00
C67    C     0.26576   0.82664   0.25946   0.00000  Uiso   1.00
C68    C     0.36826   0.83796   0.22930   0.00000  Uiso   1.00
C69    C     0.39559   0.90548   0.27498   0.00000  Uiso   1.00
H70    H     0.02893   0.89891   0.41119   0.00000  Uiso   1.00
H71    H     0.87003   0.92471   0.35928   0.00000  Uiso   1.00
H72    H     0.03239   0.79689   0.45973   0.00000  Uiso   1.00
H73    H     0.16408   0.99026   0.43505   0.00000  Uiso   1.00
H74    H     0.72589   0.92938   0.26944   0.00000  Uiso   1.00
H75    H     0.06825   0.65989   0.48127   0.00000  Uiso   1.00
H76    H     0.34594   0.06765   0.42923   0.00000  Uiso   1.00
H77    H     0.27577   0.71477   0.16243   0.00000  Uiso   1.00
H78    H     0.13042   0.73046   0.09687   0.00000  Uiso   1.00
H79    H     0.29277   0.60264   0.19733   0.00000  Uiso   1.00
H80    H     0.42445   0.79602   0.17265   0.00000  Uiso   1.00
H81    H     0.93722   0.77172   0.05646   0.00000  Uiso   1.00
H82    H     0.27959   0.50223   0.26829   0.00000  Uiso   1.00
H83    H     0.55727   0.90999   0.21625   0.00000  Uiso   1.00
O84    O     0.73147   0.86418   0.12431   0.00000  Uiso   1.00
O85    O     0.18066   0.51062   0.40223   0.00000  Uiso   1.00
O86    O     0.54496   0.04559   0.33395   0.00000  Uiso   1.00
N87    N     0.79558   0.89014   0.22831   0.00000  Uiso   1.00
N88    N     0.11566   0.63817   0.42636   0.00000  Uiso   1.00
N89    N     0.37528   0.01938   0.37771   0.00000  Uiso   1.00
N90    N     0.90930   0.80530   0.11371   0.00000  Uiso   1.00
N91    N     0.22938   0.55334   0.31175   0.00000  Uiso   1.00
N92    N     0.48900   0.93455   0.26311   0.00000  Uiso   1.00
C93    C     0.44376   0.64224   0.50566   0.00000  Uiso   1.00
C94    C     0.33173   0.70097   0.55774   0.00000  Uiso   1.00
C95    C     0.23403   0.68318   0.58597   0.00000  Uiso   1.00
C96    C     0.14036   0.74522   0.63272   0.00000  Uiso   1.00
C97    C     0.96579   0.82470   0.71085   0.00000  Uiso   1.00
C98    C     0.47616   0.65327   0.43490   0.00000  Uiso   1.00
C99    C     0.49990   0.59536   0.35985   0.00000  Uiso   1.00
C100   C     0.52784   0.61724   0.30320   0.00000  Uiso   1.00
C101   C     0.57757   0.62265   0.19062   0.00000  Uiso   1.00
C102   C     0.52845   0.66966   0.54683   0.00000  Uiso   1.00
C103   C     0.59620   0.62552   0.56586   0.00000  Uiso   1.00
C104   C     0.66818   0.66120   0.60343   0.00000  Uiso   1.00
C105   C     0.79911   0.69205   0.66462   0.00000  Uiso   1.00
C106   C     0.45116   0.78406   0.53849   0.00000  Uiso   1.00
C107   C     0.33575   0.77800   0.57557   0.00000  Uiso   1.00
C108   C     0.24221   0.84009   0.62230   0.00000  Uiso   1.00
C109   C     0.14439   0.82239   0.65059   0.00000  Uiso   1.00
C110   C     0.48018   0.73029   0.45274   0.00000  Uiso   1.00
C111   C     0.50809   0.75227   0.39618   0.00000  Uiso   1.00
C112   C     0.53187   0.69441   0.32107   0.00000  Uiso   1.00
C113   C     0.53247   0.74669   0.56466   0.00000  Uiso   1.00
C114   C     0.60438   0.78243   0.60220   0.00000  Uiso   1.00
C115   C     0.67221   0.73837   0.62129   0.00000  Uiso   1.00
H116   H     0.44063   0.58226   0.49177   0.00000  Uiso   1.00
H117   H     0.23095   0.62356   0.57214   0.00000  Uiso   1.00
H118   H     0.49680   0.53576   0.34607   0.00000  Uiso   1.00
H119   H     0.59306   0.56592   0.55205   0.00000  Uiso   1.00
H120   H     0.00024   0.70331   0.66910   0.00000  Uiso   1.00
H121   H     0.56083   0.51816   0.19241   0.00000  Uiso   1.00
H122   H     0.76384   0.58176   0.62675   0.00000  Uiso   1.00
H123   H     0.45429   0.84403   0.55238   0.00000  Uiso   1.00
H124   H     0.24535   0.89969   0.63609   0.00000  Uiso   1.00
H125   H     0.51120   0.81188   0.41001   0.00000  Uiso   1.00
H126   H     0.60747   0.84204   0.61599   0.00000  Uiso   1.00
H127   H     0.01192   0.92743   0.72100   0.00000  Uiso   1.00
H128   H     0.57252   0.74228   0.24430   0.00000  Uiso   1.00
H129   H     0.77553   0.80588   0.67865   0.00000  Uiso   1.00
O130   O     0.86838   0.84726   0.74900   0.00000  Uiso   1.00
O131   O     0.60388   0.60435   0.12359   0.00000  Uiso   1.00
O132   O     0.87021   0.68779   0.69345   0.00000  Uiso   1.00
N133   N     0.03167   0.74842   0.66984   0.00000  Uiso   1.00
N134   N     0.55577   0.57532   0.22416   0.00000  Uiso   1.00
N135   N     0.74559   0.63477   0.63022   0.00000  Uiso   1.00
N136   N     0.03796   0.86901   0.69777   0.00000  Uiso   1.00
N137   N     0.56206   0.69591   0.25208   0.00000  Uiso   1.00
N138   N     0.75188   0.75537   0.65814   0.00000  Uiso   1.00
C139   C     0.05197   0.51208   0.86238   0.00000  Uiso   1.00
C140   C     0.11589   0.57073   0.85396   0.00000  Uiso   1.00
C141   C     0.18455   0.60421   0.89594   0.00000  Uiso   1.00
C142   C     0.23558   0.65654   0.87964   0.00000  Uiso   1.00
C143   C     0.33746   0.74482   0.87509   0.00000  Uiso   1.00
C144   C     0.08912   0.44058   0.78321   0.00000  Uiso   1.00
C145   C     0.13526   0.36463   0.76570   0.00000  Uiso   1.00
C146   C     0.16373   0.30739   0.68984   0.00000  Uiso   1.00
C147   C     0.22397   0.19359   0.57546   0.00000  Uiso   1.00
C148   C     0.92935   0.54782   0.87899   0.00000  Uiso   1.00
C149   C     0.84115   0.56203   0.94201   0.00000  Uiso   1.00
C150   C     0.73510   0.59507   0.94678   0.00000  Uiso   1.00
C151   C     0.54729   0.64779   0.98112   0.00000  Uiso   1.00
C152   C     0.02048   0.54548   0.75879   0.00000  Uiso   1.00
C153   C     0.09878   0.58887   0.79769   0.00000  Uiso   1.00
C154   C     0.14971   0.64117   0.78132   0.00000  Uiso   1.00
C155   C     0.21844   0.67472   0.82327   0.00000  Uiso   1.00
C156   C     0.07201   0.45872   0.72694   0.00000  Uiso   1.00
C157   C     0.10041   0.40158   0.65109   0.00000  Uiso   1.00
C158   C     0.14659   0.32557   0.63347   0.00000  Uiso   1.00
C159   C     0.91224   0.56597   0.82272   0.00000  Uiso   1.00
C160   C     0.80631   0.59899   0.82739   0.00000  Uiso   1.00
C161   C     0.71797   0.61324   0.89041   0.00000  Uiso   1.00
H162   H     0.06529   0.49795   0.90619   0.00000  Uiso   1.00
H163   H     0.19778   0.59015   0.93947   0.00000  Uiso   1.00
H164   H     0.14847   0.35060   0.80926   0.00000  Uiso   1.00
H165   H     0.85442   0.54798   0.98554   0.00000  Uiso   1.00
H166   H     0.33715   0.70035   0.95154   0.00000  Uiso   1.00
H167   H     0.23316   0.19525   0.67699   0.00000  Uiso   1.00
H168   H     0.61308   0.61145   0.04871   0.00000  Uiso   1.00
H169   H     0.00716   0.55961   0.71498   0.00000  Uiso   1.00
H170   H     0.13646   0.65519   0.73777   0.00000  Uiso   1.00
H171   H     0.08716   0.41564   0.60756   0.00000  Uiso   1.00
H172   H     0.79310   0.61302   0.78384   0.00000  Uiso   1.00
H173   H     0.28739   0.75313   0.78783   0.00000  Uiso   1.00
H174   H     0.18339   0.24803   0.51328   0.00000  Uiso   1.00
H175   H     0.56331   0.66424   0.88500   0.00000  Uiso   1.00
O176   O     0.39840   0.78849   0.88811   0.00000  Uiso   1.00
O177   O     0.26194   0.12581   0.52791   0.00000  Uiso   1.00
O178   O     0.44842   0.67186   0.01560   0.00000  Uiso   1.00
N179   N     0.30768   0.69967   0.90989   0.00000  Uiso   1.00
N180   N     0.21047   0.22743   0.65320   0.00000  Uiso   1.00
N181   N     0.63074   0.61652   0.00072   0.00000  Uiso   1.00
N182   N     0.28090   0.72807   0.82180   0.00000  Uiso   1.00
N183   N     0.18369   0.25583   0.56511   0.00000  Uiso   1.00
N184   N     0.60396   0.64493   0.91263   0.00000  Uiso   1.00
C185   C     0.91452   0.14327   0.64580   0.00000  Uiso   1.00
C186   C     0.96662   0.15479   0.70850   0.00000  Uiso   1.00
C187   C     0.07377   0.11722   0.69738   0.00000  Uiso   1.00
C188   C     0.10577   0.13579   0.76213   0.00000  Uiso   1.00
C189   C     0.19773   0.14545   0.84835   0.00000  Uiso   1.00
C190   C     0.87841   0.22424   0.65392   0.00000  Uiso   1.00
C191   C     0.91140   0.24506   0.59691   0.00000  Uiso   1.00
C192   C     0.86913   0.32208   0.61572   0.00000  Uiso   1.00
C193   C     0.82410   0.43956   0.61719   0.00000  Uiso   1.00
C194   C     0.80688   0.11917   0.66733   0.00000  Uiso   1.00
C195   C     0.77969   0.05166   0.62159   0.00000  Uiso   1.00
C196   C     0.67718   0.04023   0.65168   0.00000  Uiso   1.00
C197   C     0.52107   0.99457   0.67397   0.00000  Uiso   1.00
C198   C     0.78078   0.24304   0.78057   0.00000  Uiso   1.00
C199   C     0.89398   0.20898   0.78170   0.00000  Uiso   1.00
C200   C     0.92581   0.22760   0.84649   0.00000  Uiso   1.00
C201   C     0.03300   0.19007   0.83547   0.00000  Uiso   1.00
C202   C     0.80578   0.27843   0.72712   0.00000  Uiso   1.00
C203   C     0.76344   0.35544   0.74602   0.00000  Uiso   1.00
C204   C     0.79636   0.37637   0.68905   0.00000  Uiso   1.00
C205   C     0.73424   0.17336   0.74054   0.00000  Uiso   1.00
C206   C     0.63174   0.16204   0.77070   0.00000  Uiso   1.00
C207   C     0.60441   0.09452   0.72502   0.00000  Uiso   1.00
H208   H     0.97107   0.10109   0.58881   0.00000  Uiso   1.00
H209   H     0.12997   0.07529   0.64072   0.00000  Uiso   1.00
H210   H     0.96761   0.20311   0.54027   0.00000  Uiso   1.00
H211   H     0.83593   0.00974   0.56495   0.00000  Uiso   1.00
H212   H     0.27412   0.07062   0.73056   0.00000  Uiso   1.00
H213   H     0.93175   0.34011   0.51873   0.00000  Uiso   1.00
H214   H     0.65406   0.93235   0.57077   0.00000  Uiso   1.00
H215   H     0.72423   0.28523   0.83757   0.00000  Uiso   1.00
H216   H     0.86958   0.26954   0.90313   0.00000  Uiso   1.00
H217   H     0.70723   0.39736   0.80267   0.00000  Uiso   1.00
H218   H     0.57555   0.20398   0.82735   0.00000  Uiso   1.00
H219   H     0.06278   0.22828   0.94354   0.00000  Uiso   1.00
H220   H     0.72041   0.49777   0.73171   0.00000  Uiso   1.00
H221   H     0.44273   0.09001   0.78375   0.00000  Uiso   1.00
O222   O     0.26854   0.13582   0.87569   0.00000  Uiso   1.00
O223   O     0.81934   0.48938   0.59777   0.00000  Uiso   1.00
O224   O     0.45504   0.95441   0.66605   0.00000  Uiso   1.00
N225   N     0.20442   0.10986   0.77169   0.00000  Uiso   1.00
N226   N     0.88434   0.36183   0.57364   0.00000  Uiso   1.00
N227   N     0.62472   0.98062   0.62229   0.00000  Uiso   1.00
N228   N     0.09070   0.19470   0.88629   0.00000  Uiso   1.00
N229   N     0.77062   0.44666   0.68825   0.00000  Uiso   1.00
N230   N     0.51100   0.06545   0.73689   0.00000  Uiso   1.00
C231   C     0.55624   0.35776   0.49434   0.00000  Uiso   1.00
C232   C     0.66827   0.29903   0.44226   0.00000  Uiso   1.00
C233   C     0.76597   0.31682   0.41403   0.00000  Uiso   1.00
C234   C     0.85964   0.25478   0.36728   0.00000  Uiso   1.00
C235   C     0.03421   0.17530   0.28916   0.00000  Uiso   1.00
C236   C     0.52384   0.34673   0.56510   0.00000  Uiso   1.00
C237   C     0.50010   0.40464   0.64015   0.00000  Uiso   1.00
C238   C     0.47216   0.38276   0.69680   0.00000  Uiso   1.00
C239   C     0.42243   0.37735   0.80938   0.00000  Uiso   1.00
C240   C     0.47155   0.33034   0.45317   0.00000  Uiso   1.00
C241   C     0.40380   0.37448   0.43414   0.00000  Uiso   1.00
C242   C     0.33182   0.33880   0.39657   0.00000  Uiso   1.00
C243   C     0.20089   0.30795   0.33538   0.00000  Uiso   1.00
C244   C     0.54884   0.21594   0.46151   0.00000  Uiso   1.00
C245   C     0.66425   0.22200   0.42443   0.00000  Uiso   1.00
C246   C     0.75779   0.15991   0.37770   0.00000  Uiso   1.00
C247   C     0.85561   0.17761   0.34941   0.00000  Uiso   1.00
C248   C     0.51982   0.26971   0.54726   0.00000  Uiso   1.00
C249   C     0.49191   0.24773   0.60382   0.00000  Uiso   1.00
C250   C     0.46814   0.30559   0.67893   0.00000  Uiso   1.00
C251   C     0.46753   0.25331   0.43534   0.00000  Uiso   1.00
C252   C     0.39562   0.21757   0.39780   0.00000  Uiso   1.00
C253   C     0.32779   0.26163   0.37871   0.00000  Uiso   1.00
H254   H     0.55937   0.41774   0.50823   0.00000  Uiso   1.00
H255   H     0.76905   0.37644   0.42786   0.00000  Uiso   1.00
H256   H     0.50320   0.46424   0.65393   0.00000  Uiso   1.00
H257   H     0.40694   0.43408   0.44795   0.00000  Uiso   1.00
H258   H     0.99976   0.29669   0.33090   0.00000  Uiso   1.00
H259   H     0.43917   0.48184   0.80759   0.00000  Uiso   1.00
H260   H     0.23616   0.41824   0.37325   0.00000  Uiso   1.00
H261   H     0.54571   0.15597   0.44762   0.00000  Uiso   1.00
H262   H     0.75465   0.10031   0.36391   0.00000  Uiso   1.00
H263   H     0.48880   0.18812   0.58999   0.00000  Uiso   1.00
H264   H     0.39253   0.15796   0.38401   0.00000  Uiso   1.00
H265   H     0.98808   0.07257   0.27900   0.00000  Uiso   1.00
H266   H     0.42748   0.25772   0.75570   0.00000  Uiso   1.00
H267   H     0.22447   0.19412   0.32135   0.00000  Uiso   1.00
O268   O     0.13162   0.15274   0.25100   0.00000  Uiso   1.00
O269   O     0.39612   0.39565   0.87641   0.00000  Uiso   1.00
O270   O     0.12979   0.31221   0.30655   0.00000  Uiso   1.00
N271   N     0.96833   0.25158   0.33016   0.00000  Uiso   1.00
N272   N     0.44423   0.42468   0.77584   0.00000  Uiso   1.00
N273   N     0.25441   0.36523   0.36978   0.00000  Uiso   1.00
N274   N     0.96204   0.13099   0.30223   0.00000  Uiso   1.00
N275   N     0.43794   0.30409   0.74792   0.00000  Uiso   1.00
N276   N     0.24812   0.24463   0.34186   0.00000  Uiso   1.00
