data_job_02266
_audit_creation_date              2018-12-19
_audit_creation_method            'Materials Studio'
_symmetry_space_group_name_H-M    'P1'
_symmetry_Int_Tables_number       1
_symmetry_cell_setting            triclinic
loop_
_symmetry_equiv_pos_as_xyz
  x,y,z
_cell_length_a                    15.2006
_cell_length_b                    17.2332
_cell_length_c                    26.7979
_cell_angle_alpha                 90.0000
_cell_angle_beta                  132.6996
_cell_angle_gamma                 90.0000
loop_
_atom_site_label
_atom_site_type_symbol
_atom_site_fract_x
_atom_site_fract_y
_atom_site_fract_z
_atom_site_U_iso_or_equiv
_atom_site_adp_type
_atom_site_occupancy
C1     C     0.21538   0.08274   0.18389   0.00000  Uiso   1.00
C2     C     0.24416   0.11673   0.24611   0.00000  Uiso   1.00
C3     C     0.31941   0.08380   0.31040   0.00000  Uiso   1.00
C4     C     0.33405   0.12394   0.36053   0.00000  Uiso   1.00
C5     C     0.38759   0.16598   0.45922   0.00000  Uiso   1.00
C6     C     0.07945   0.07534   0.12944   0.00000  Uiso   1.00
C7     C     0.01623   0.00761   0.09563   0.00000  Uiso   1.00
C8     C     0.89221   0.01292   0.04754   0.00000  Uiso   1.00
C9     C     0.69005   0.99071   0.96506   0.00000  Uiso   1.00
C10    C     0.24864   0.14513   0.15879   0.00000  Uiso   1.00
C11    C     0.32764   0.13607   0.14964   0.00000  Uiso   1.00
C12    C     0.34605   0.20013   0.12625   0.00000  Uiso   1.00
C13    C     0.40657   0.28627   0.08934   0.00000  Uiso   1.00
C14    C     0.10756   0.21261   0.15860   0.00000  Uiso   1.00
C15    C     0.18559   0.18727   0.23237   0.00000  Uiso   1.00
C16    C     0.20012   0.22748   0.28242   0.00000  Uiso   1.00
C17    C     0.27538   0.19461   0.34677   0.00000  Uiso   1.00
C18    C     0.02089   0.14588   0.11570   0.00000  Uiso   1.00
C19    C     0.89694   0.15129   0.06765   0.00000  Uiso   1.00
C20    C     0.83354   0.08358   0.03378   0.00000  Uiso   1.00
C21    C     0.19008   0.21567   0.14505   0.00000  Uiso   1.00
C22    C     0.20836   0.27975   0.12166   0.00000  Uiso   1.00
C23    C     0.28738   0.27079   0.11248   0.00000  Uiso   1.00
H24    H     0.26097   0.02782   0.19458   0.00000  Uiso   1.00
H25    H     0.36470   0.02920   0.32101   0.00000  Uiso   1.00
H26    H     0.06157   0.95303   0.10626   0.00000  Uiso   1.00
H27    H     0.37294   0.08147   0.16027   0.00000  Uiso   1.00
H28    H     0.45386   0.06183   0.45511   0.00000  Uiso   1.00
H29    H     0.81468   0.90122   0.00230   0.00000  Uiso   1.00
H30    H     0.47126   0.17207   0.11618   0.00000  Uiso   1.00
H31    H     0.06197   0.26752   0.14790   0.00000  Uiso   1.00
H32    H     0.15479   0.28206   0.27177   0.00000  Uiso   1.00
H33    H     0.85165   0.20589   0.05703   0.00000  Uiso   1.00
H34    H     0.16302   0.33433   0.11104   0.00000  Uiso   1.00
H35    H     0.28348   0.26706   0.41515   0.00000  Uiso   1.00
H36    H     0.64430   0.10645   0.96233   0.00000  Uiso   1.00
H37    H     0.30089   0.37730   0.07622   0.00000  Uiso   1.00
O38    O     0.43329   0.16967   0.51745   0.00000  Uiso   1.00
O39    O     0.59472   0.95896   0.92337   0.00000  Uiso   1.00
O40    O     0.45614   0.31430   0.07279   0.00000  Uiso   1.00
N41    N     0.40104   0.10814   0.42871   0.00000  Uiso   1.00
N42    N     0.80345   0.95798   0.00536   0.00000  Uiso   1.00
N43    N     0.41727   0.21119   0.11182   0.00000  Uiso   1.00
N44    N     0.30936   0.21858   0.40721   0.00000  Uiso   1.00
N45    N     0.71177   0.06842   0.98386   0.00000  Uiso   1.00
N46    N     0.32559   0.32162   0.09032   0.00000  Uiso   1.00
C47    C     0.71538   0.58274   0.18389   0.00000  Uiso   1.00
C48    C     0.74416   0.61673   0.24611   0.00000  Uiso   1.00
C49    C     0.81941   0.58380   0.31040   0.00000  Uiso   1.00
C50    C     0.83405   0.62394   0.36053   0.00000  Uiso   1.00
C51    C     0.88759   0.66598   0.45922   0.00000  Uiso   1.00
C52    C     0.57945   0.57534   0.12944   0.00000  Uiso   1.00
C53    C     0.51623   0.50761   0.09563   0.00000  Uiso   1.00
C54    C     0.39221   0.51292   0.04754   0.00000  Uiso   1.00
C55    C     0.19005   0.49071   0.96506   0.00000  Uiso   1.00
C56    C     0.74864   0.64513   0.15879   0.00000  Uiso   1.00
C57    C     0.82764   0.63607   0.14964   0.00000  Uiso   1.00
C58    C     0.84605   0.70013   0.12625   0.00000  Uiso   1.00
C59    C     0.90657   0.78627   0.08934   0.00000  Uiso   1.00
C60    C     0.60756   0.71261   0.15860   0.00000  Uiso   1.00
C61    C     0.68559   0.68727   0.23237   0.00000  Uiso   1.00
C62    C     0.70012   0.72748   0.28242   0.00000  Uiso   1.00
C63    C     0.77538   0.69461   0.34677   0.00000  Uiso   1.00
C64    C     0.52089   0.64588   0.11570   0.00000  Uiso   1.00
C65    C     0.39694   0.65129   0.06765   0.00000  Uiso   1.00
C66    C     0.33354   0.58358   0.03378   0.00000  Uiso   1.00
C67    C     0.69008   0.71567   0.14505   0.00000  Uiso   1.00
C68    C     0.70836   0.77975   0.12166   0.00000  Uiso   1.00
C69    C     0.78738   0.77079   0.11248   0.00000  Uiso   1.00
H70    H     0.76097   0.52782   0.19458   0.00000  Uiso   1.00
H71    H     0.86470   0.52920   0.32101   0.00000  Uiso   1.00
H72    H     0.56157   0.45303   0.10626   0.00000  Uiso   1.00
H73    H     0.87294   0.58147   0.16027   0.00000  Uiso   1.00
H74    H     0.95386   0.56183   0.45511   0.00000  Uiso   1.00
H75    H     0.31468   0.40122   0.00230   0.00000  Uiso   1.00
H76    H     0.97126   0.67207   0.11618   0.00000  Uiso   1.00
H77    H     0.56197   0.76752   0.14790   0.00000  Uiso   1.00
H78    H     0.65479   0.78206   0.27177   0.00000  Uiso   1.00
H79    H     0.35165   0.70589   0.05703   0.00000  Uiso   1.00
H80    H     0.66302   0.83433   0.11104   0.00000  Uiso   1.00
H81    H     0.78348   0.76706   0.41515   0.00000  Uiso   1.00
H82    H     0.14430   0.60645   0.96233   0.00000  Uiso   1.00
H83    H     0.80089   0.87730   0.07622   0.00000  Uiso   1.00
O84    O     0.93329   0.66967   0.51745   0.00000  Uiso   1.00
O85    O     0.09472   0.45896   0.92337   0.00000  Uiso   1.00
O86    O     0.95614   0.81430   0.07279   0.00000  Uiso   1.00
N87    N     0.90104   0.60814   0.42871   0.00000  Uiso   1.00
N88    N     0.30345   0.45798   0.00536   0.00000  Uiso   1.00
N89    N     0.91727   0.71119   0.11182   0.00000  Uiso   1.00
N90    N     0.80936   0.71858   0.40721   0.00000  Uiso   1.00
N91    N     0.21177   0.56842   0.98386   0.00000  Uiso   1.00
N92    N     0.82559   0.82162   0.09032   0.00000  Uiso   1.00
C93    C     0.78462   0.08274   0.31611   0.00000  Uiso   1.00
C94    C     0.75584   0.11673   0.25389   0.00000  Uiso   1.00
C95    C     0.68059   0.08380   0.18960   0.00000  Uiso   1.00
C96    C     0.66595   0.12394   0.13947   0.00000  Uiso   1.00
C97    C     0.61241   0.16598   0.04078   0.00000  Uiso   1.00
C98    C     0.92055   0.07534   0.37056   0.00000  Uiso   1.00
C99    C     0.98377   0.00761   0.40437   0.00000  Uiso   1.00
C100   C     0.10779   0.01292   0.45246   0.00000  Uiso   1.00
C101   C     0.30995   0.99071   0.53494   0.00000  Uiso   1.00
C102   C     0.75136   0.14513   0.34121   0.00000  Uiso   1.00
C103   C     0.67236   0.13607   0.35036   0.00000  Uiso   1.00
C104   C     0.65395   0.20013   0.37375   0.00000  Uiso   1.00
C105   C     0.59343   0.28627   0.41066   0.00000  Uiso   1.00
C106   C     0.89244   0.21261   0.34140   0.00000  Uiso   1.00
C107   C     0.81441   0.18727   0.26763   0.00000  Uiso   1.00
C108   C     0.79988   0.22748   0.21758   0.00000  Uiso   1.00
C109   C     0.72462   0.19461   0.15323   0.00000  Uiso   1.00
C110   C     0.97911   0.14588   0.38430   0.00000  Uiso   1.00
C111   C     0.10306   0.15129   0.43235   0.00000  Uiso   1.00
C112   C     0.16646   0.08358   0.46622   0.00000  Uiso   1.00
C113   C     0.80992   0.21567   0.35495   0.00000  Uiso   1.00
C114   C     0.79164   0.27975   0.37834   0.00000  Uiso   1.00
C115   C     0.71262   0.27079   0.38752   0.00000  Uiso   1.00
H116   H     0.73903   0.02782   0.30542   0.00000  Uiso   1.00
H117   H     0.63530   0.02920   0.17899   0.00000  Uiso   1.00
H118   H     0.93843   0.95303   0.39374   0.00000  Uiso   1.00
H119   H     0.62706   0.08147   0.33973   0.00000  Uiso   1.00
H120   H     0.54614   0.06183   0.04489   0.00000  Uiso   1.00
H121   H     0.18532   0.90122   0.49770   0.00000  Uiso   1.00
H122   H     0.52874   0.17207   0.38382   0.00000  Uiso   1.00
H123   H     0.93803   0.26752   0.35210   0.00000  Uiso   1.00
H124   H     0.84521   0.28206   0.22823   0.00000  Uiso   1.00
H125   H     0.14835   0.20589   0.44297   0.00000  Uiso   1.00
H126   H     0.83698   0.33433   0.38896   0.00000  Uiso   1.00
H127   H     0.71652   0.26706   0.08485   0.00000  Uiso   1.00
H128   H     0.35570   0.10645   0.53767   0.00000  Uiso   1.00
H129   H     0.69911   0.37730   0.42378   0.00000  Uiso   1.00
O130   O     0.56671   0.16967   0.98255   0.00000  Uiso   1.00
O131   O     0.40528   0.95896   0.57663   0.00000  Uiso   1.00
O132   O     0.54386   0.31430   0.42721   0.00000  Uiso   1.00
N133   N     0.59896   0.10814   0.07129   0.00000  Uiso   1.00
N134   N     0.19655   0.95798   0.49464   0.00000  Uiso   1.00
N135   N     0.58273   0.21119   0.38818   0.00000  Uiso   1.00
N136   N     0.69064   0.21858   0.09279   0.00000  Uiso   1.00
N137   N     0.28823   0.06842   0.51614   0.00000  Uiso   1.00
N138   N     0.67441   0.32162   0.40968   0.00000  Uiso   1.00
C139   C     0.28462   0.58274   0.31611   0.00000  Uiso   1.00
C140   C     0.25584   0.61673   0.25389   0.00000  Uiso   1.00
C141   C     0.18059   0.58380   0.18960   0.00000  Uiso   1.00
C142   C     0.16595   0.62394   0.13947   0.00000  Uiso   1.00
C143   C     0.11241   0.66598   0.04078   0.00000  Uiso   1.00
C144   C     0.42055   0.57534   0.37056   0.00000  Uiso   1.00
C145   C     0.48377   0.50761   0.40437   0.00000  Uiso   1.00
C146   C     0.60779   0.51292   0.45246   0.00000  Uiso   1.00
C147   C     0.80995   0.49071   0.53494   0.00000  Uiso   1.00
C148   C     0.25136   0.64513   0.34121   0.00000  Uiso   1.00
C149   C     0.17236   0.63607   0.35036   0.00000  Uiso   1.00
C150   C     0.15395   0.70013   0.37375   0.00000  Uiso   1.00
C151   C     0.09343   0.78627   0.41066   0.00000  Uiso   1.00
C152   C     0.39244   0.71261   0.34140   0.00000  Uiso   1.00
C153   C     0.31441   0.68727   0.26763   0.00000  Uiso   1.00
C154   C     0.29988   0.72748   0.21758   0.00000  Uiso   1.00
C155   C     0.22462   0.69461   0.15323   0.00000  Uiso   1.00
C156   C     0.47911   0.64588   0.38430   0.00000  Uiso   1.00
C157   C     0.60306   0.65129   0.43235   0.00000  Uiso   1.00
C158   C     0.66646   0.58358   0.46622   0.00000  Uiso   1.00
C159   C     0.30992   0.71567   0.35495   0.00000  Uiso   1.00
C160   C     0.29164   0.77975   0.37834   0.00000  Uiso   1.00
C161   C     0.21262   0.77079   0.38752   0.00000  Uiso   1.00
H162   H     0.23903   0.52782   0.30542   0.00000  Uiso   1.00
H163   H     0.13530   0.52920   0.17899   0.00000  Uiso   1.00
H164   H     0.43843   0.45303   0.39374   0.00000  Uiso   1.00
H165   H     0.12706   0.58147   0.33973   0.00000  Uiso   1.00
H166   H     0.04614   0.56183   0.04489   0.00000  Uiso   1.00
H167   H     0.68532   0.40122   0.49770   0.00000  Uiso   1.00
H168   H     0.02874   0.67207   0.38382   0.00000  Uiso   1.00
H169   H     0.43803   0.76752   0.35210   0.00000  Uiso   1.00
H170   H     0.34521   0.78206   0.22823   0.00000  Uiso   1.00
H171   H     0.64835   0.70589   0.44297   0.00000  Uiso   1.00
H172   H     0.33698   0.83433   0.38896   0.00000  Uiso   1.00
H173   H     0.21652   0.76706   0.08485   0.00000  Uiso   1.00
H174   H     0.85570   0.60645   0.53767   0.00000  Uiso   1.00
H175   H     0.19911   0.87730   0.42378   0.00000  Uiso   1.00
O176   O     0.06671   0.66967   0.98255   0.00000  Uiso   1.00
O177   O     0.90528   0.45896   0.57663   0.00000  Uiso   1.00
O178   O     0.04386   0.81430   0.42721   0.00000  Uiso   1.00
N179   N     0.09896   0.60814   0.07129   0.00000  Uiso   1.00
N180   N     0.69655   0.45798   0.49464   0.00000  Uiso   1.00
N181   N     0.08273   0.71119   0.38818   0.00000  Uiso   1.00
N182   N     0.19064   0.71858   0.09279   0.00000  Uiso   1.00
N183   N     0.78823   0.56842   0.51614   0.00000  Uiso   1.00
N184   N     0.17441   0.82162   0.40968   0.00000  Uiso   1.00
C185   C     0.78462   0.91726   0.81611   0.00000  Uiso   1.00
C186   C     0.75584   0.88327   0.75389   0.00000  Uiso   1.00
C187   C     0.68059   0.91620   0.68960   0.00000  Uiso   1.00
C188   C     0.66595   0.87606   0.63947   0.00000  Uiso   1.00
C189   C     0.61241   0.83402   0.54078   0.00000  Uiso   1.00
C190   C     0.92055   0.92466   0.87056   0.00000  Uiso   1.00
C191   C     0.98377   0.99239   0.90437   0.00000  Uiso   1.00
C192   C     0.10779   0.98708   0.95246   0.00000  Uiso   1.00
C193   C     0.30995   0.00929   0.03494   0.00000  Uiso   1.00
C194   C     0.75136   0.85487   0.84121   0.00000  Uiso   1.00
C195   C     0.67236   0.86393   0.85036   0.00000  Uiso   1.00
C196   C     0.65395   0.79987   0.87375   0.00000  Uiso   1.00
C197   C     0.59343   0.71373   0.91066   0.00000  Uiso   1.00
C198   C     0.89244   0.78739   0.84140   0.00000  Uiso   1.00
C199   C     0.81441   0.81273   0.76763   0.00000  Uiso   1.00
C200   C     0.79988   0.77252   0.71758   0.00000  Uiso   1.00
C201   C     0.72462   0.80539   0.65323   0.00000  Uiso   1.00
C202   C     0.97911   0.85412   0.88430   0.00000  Uiso   1.00
C203   C     0.10306   0.84871   0.93235   0.00000  Uiso   1.00
C204   C     0.16646   0.91642   0.96622   0.00000  Uiso   1.00
C205   C     0.80992   0.78433   0.85495   0.00000  Uiso   1.00
C206   C     0.79164   0.72025   0.87834   0.00000  Uiso   1.00
C207   C     0.71262   0.72921   0.88752   0.00000  Uiso   1.00
H208   H     0.73903   0.97218   0.80542   0.00000  Uiso   1.00
H209   H     0.63530   0.97080   0.67899   0.00000  Uiso   1.00
H210   H     0.93843   0.04697   0.89374   0.00000  Uiso   1.00
H211   H     0.62706   0.91853   0.83973   0.00000  Uiso   1.00
H212   H     0.54614   0.93817   0.54489   0.00000  Uiso   1.00
H213   H     0.18532   0.09878   0.99770   0.00000  Uiso   1.00
H214   H     0.52874   0.82793   0.88382   0.00000  Uiso   1.00
H215   H     0.93803   0.73248   0.85210   0.00000  Uiso   1.00
H216   H     0.84521   0.71794   0.72823   0.00000  Uiso   1.00
H217   H     0.14835   0.79411   0.94297   0.00000  Uiso   1.00
H218   H     0.83698   0.66567   0.88896   0.00000  Uiso   1.00
H219   H     0.71652   0.73294   0.58485   0.00000  Uiso   1.00
H220   H     0.35570   0.89355   0.03767   0.00000  Uiso   1.00
H221   H     0.69911   0.62270   0.92378   0.00000  Uiso   1.00
O222   O     0.56671   0.83033   0.48255   0.00000  Uiso   1.00
O223   O     0.40528   0.04104   0.07663   0.00000  Uiso   1.00
O224   O     0.54386   0.68570   0.92721   0.00000  Uiso   1.00
N225   N     0.59896   0.89186   0.57129   0.00000  Uiso   1.00
N226   N     0.19655   0.04202   0.99464   0.00000  Uiso   1.00
N227   N     0.58273   0.78881   0.88818   0.00000  Uiso   1.00
N228   N     0.69064   0.78142   0.59279   0.00000  Uiso   1.00
N229   N     0.28823   0.93158   0.01614   0.00000  Uiso   1.00
N230   N     0.67441   0.67838   0.90968   0.00000  Uiso   1.00
C231   C     0.28462   0.41726   0.81611   0.00000  Uiso   1.00
C232   C     0.25584   0.38327   0.75389   0.00000  Uiso   1.00
C233   C     0.18059   0.41620   0.68960   0.00000  Uiso   1.00
C234   C     0.16595   0.37606   0.63947   0.00000  Uiso   1.00
C235   C     0.11241   0.33402   0.54078   0.00000  Uiso   1.00
C236   C     0.42055   0.42466   0.87056   0.00000  Uiso   1.00
C237   C     0.48377   0.49239   0.90437   0.00000  Uiso   1.00
C238   C     0.60779   0.48708   0.95246   0.00000  Uiso   1.00
C239   C     0.80995   0.50929   0.03494   0.00000  Uiso   1.00
C240   C     0.25136   0.35487   0.84121   0.00000  Uiso   1.00
C241   C     0.17236   0.36393   0.85036   0.00000  Uiso   1.00
C242   C     0.15395   0.29987   0.87375   0.00000  Uiso   1.00
C243   C     0.09343   0.21373   0.91066   0.00000  Uiso   1.00
C244   C     0.39244   0.28739   0.84140   0.00000  Uiso   1.00
C245   C     0.31441   0.31273   0.76763   0.00000  Uiso   1.00
C246   C     0.29988   0.27252   0.71758   0.00000  Uiso   1.00
C247   C     0.22462   0.30539   0.65323   0.00000  Uiso   1.00
C248   C     0.47911   0.35412   0.88430   0.00000  Uiso   1.00
C249   C     0.60306   0.34871   0.93235   0.00000  Uiso   1.00
C250   C     0.66646   0.41642   0.96622   0.00000  Uiso   1.00
C251   C     0.30992   0.28433   0.85495   0.00000  Uiso   1.00
C252   C     0.29164   0.22025   0.87834   0.00000  Uiso   1.00
C253   C     0.21262   0.22921   0.88752   0.00000  Uiso   1.00
H254   H     0.23903   0.47218   0.80542   0.00000  Uiso   1.00
H255   H     0.13530   0.47080   0.67899   0.00000  Uiso   1.00
H256   H     0.43843   0.54697   0.89374   0.00000  Uiso   1.00
H257   H     0.12706   0.41853   0.83973   0.00000  Uiso   1.00
H258   H     0.04614   0.43817   0.54489   0.00000  Uiso   1.00
H259   H     0.68532   0.59878   0.99770   0.00000  Uiso   1.00
H260   H     0.02874   0.32793   0.88382   0.00000  Uiso   1.00
H261   H     0.43803   0.23248   0.85210   0.00000  Uiso   1.00
H262   H     0.34521   0.21794   0.72823   0.00000  Uiso   1.00
H263   H     0.64835   0.29411   0.94297   0.00000  Uiso   1.00
H264   H     0.33698   0.16567   0.88896   0.00000  Uiso   1.00
H265   H     0.21652   0.23294   0.58485   0.00000  Uiso   1.00
H266   H     0.85570   0.39355   0.03767   0.00000  Uiso   1.00
H267   H     0.19911   0.12270   0.92378   0.00000  Uiso   1.00
O268   O     0.06671   0.33033   0.48255   0.00000  Uiso   1.00
O269   O     0.90528   0.54104   0.07663   0.00000  Uiso   1.00
O270   O     0.04386   0.18570   0.92721   0.00000  Uiso   1.00
N271   N     0.09896   0.39186   0.57129   0.00000  Uiso   1.00
N272   N     0.69655   0.54202   0.99464   0.00000  Uiso   1.00
N273   N     0.08273   0.28881   0.88818   0.00000  Uiso   1.00
N274   N     0.19064   0.28142   0.59279   0.00000  Uiso   1.00
N275   N     0.78823   0.43158   0.01614   0.00000  Uiso   1.00
N276   N     0.17441   0.17838   0.90968   0.00000  Uiso   1.00
C277   C     0.21538   0.91726   0.68389   0.00000  Uiso   1.00
C278   C     0.24416   0.88327   0.74611   0.00000  Uiso   1.00
C279   C     0.31941   0.91620   0.81040   0.00000  Uiso   1.00
C280   C     0.33405   0.87606   0.86053   0.00000  Uiso   1.00
C281   C     0.38759   0.83402   0.95922   0.00000  Uiso   1.00
C282   C     0.07945   0.92466   0.62944   0.00000  Uiso   1.00
C283   C     0.01623   0.99239   0.59563   0.00000  Uiso   1.00
C284   C     0.89221   0.98708   0.54754   0.00000  Uiso   1.00
C285   C     0.69005   0.00929   0.46506   0.00000  Uiso   1.00
C286   C     0.24864   0.85487   0.65879   0.00000  Uiso   1.00
C287   C     0.32764   0.86393   0.64964   0.00000  Uiso   1.00
C288   C     0.34605   0.79987   0.62625   0.00000  Uiso   1.00
C289   C     0.40657   0.71373   0.58934   0.00000  Uiso   1.00
C290   C     0.10756   0.78739   0.65860   0.00000  Uiso   1.00
C291   C     0.18559   0.81273   0.73237   0.00000  Uiso   1.00
C292   C     0.20012   0.77252   0.78242   0.00000  Uiso   1.00
C293   C     0.27538   0.80539   0.84677   0.00000  Uiso   1.00
C294   C     0.02089   0.85412   0.61570   0.00000  Uiso   1.00
C295   C     0.89694   0.84871   0.56765   0.00000  Uiso   1.00
C296   C     0.83354   0.91642   0.53378   0.00000  Uiso   1.00
C297   C     0.19008   0.78433   0.64505   0.00000  Uiso   1.00
C298   C     0.20836   0.72025   0.62166   0.00000  Uiso   1.00
C299   C     0.28738   0.72921   0.61248   0.00000  Uiso   1.00
H300   H     0.26097   0.97218   0.69458   0.00000  Uiso   1.00
H301   H     0.36470   0.97080   0.82101   0.00000  Uiso   1.00
H302   H     0.06157   0.04697   0.60626   0.00000  Uiso   1.00
H303   H     0.37294   0.91853   0.66027   0.00000  Uiso   1.00
H304   H     0.45386   0.93817   0.95511   0.00000  Uiso   1.00
H305   H     0.81468   0.09878   0.50230   0.00000  Uiso   1.00
H306   H     0.47126   0.82793   0.61618   0.00000  Uiso   1.00
H307   H     0.06197   0.73248   0.64790   0.00000  Uiso   1.00
H308   H     0.15479   0.71794   0.77177   0.00000  Uiso   1.00
H309   H     0.85165   0.79411   0.55703   0.00000  Uiso   1.00
H310   H     0.16302   0.66567   0.61104   0.00000  Uiso   1.00
H311   H     0.28348   0.73294   0.91515   0.00000  Uiso   1.00
H312   H     0.64430   0.89355   0.46233   0.00000  Uiso   1.00
H313   H     0.30089   0.62270   0.57622   0.00000  Uiso   1.00
O314   O     0.43329   0.83033   0.01745   0.00000  Uiso   1.00
O315   O     0.59472   0.04104   0.42337   0.00000  Uiso   1.00
O316   O     0.45614   0.68570   0.57279   0.00000  Uiso   1.00
N317   N     0.40104   0.89186   0.92871   0.00000  Uiso   1.00
N318   N     0.80345   0.04202   0.50536   0.00000  Uiso   1.00
N319   N     0.41727   0.78881   0.61182   0.00000  Uiso   1.00
N320   N     0.30936   0.78142   0.90721   0.00000  Uiso   1.00
N321   N     0.71177   0.93158   0.48386   0.00000  Uiso   1.00
N322   N     0.32559   0.67838   0.59032   0.00000  Uiso   1.00
C323   C     0.71538   0.41726   0.68389   0.00000  Uiso   1.00
C324   C     0.74416   0.38327   0.74611   0.00000  Uiso   1.00
C325   C     0.81941   0.41620   0.81040   0.00000  Uiso   1.00
C326   C     0.83405   0.37606   0.86053   0.00000  Uiso   1.00
C327   C     0.88759   0.33402   0.95922   0.00000  Uiso   1.00
C328   C     0.57945   0.42466   0.62944   0.00000  Uiso   1.00
C329   C     0.51623   0.49239   0.59563   0.00000  Uiso   1.00
C330   C     0.39221   0.48708   0.54754   0.00000  Uiso   1.00
C331   C     0.19005   0.50929   0.46506   0.00000  Uiso   1.00
C332   C     0.74864   0.35487   0.65879   0.00000  Uiso   1.00
C333   C     0.82764   0.36393   0.64964   0.00000  Uiso   1.00
C334   C     0.84605   0.29987   0.62625   0.00000  Uiso   1.00
C335   C     0.90657   0.21373   0.58934   0.00000  Uiso   1.00
C336   C     0.60756   0.28739   0.65860   0.00000  Uiso   1.00
C337   C     0.68559   0.31273   0.73237   0.00000  Uiso   1.00
C338   C     0.70012   0.27252   0.78242   0.00000  Uiso   1.00
C339   C     0.77538   0.30539   0.84677   0.00000  Uiso   1.00
C340   C     0.52089   0.35412   0.61570   0.00000  Uiso   1.00
C341   C     0.39694   0.34871   0.56765   0.00000  Uiso   1.00
C342   C     0.33354   0.41642   0.53378   0.00000  Uiso   1.00
C343   C     0.69008   0.28433   0.64505   0.00000  Uiso   1.00
C344   C     0.70836   0.22025   0.62166   0.00000  Uiso   1.00
C345   C     0.78738   0.22921   0.61248   0.00000  Uiso   1.00
H346   H     0.76097   0.47218   0.69458   0.00000  Uiso   1.00
H347   H     0.86470   0.47080   0.82101   0.00000  Uiso   1.00
H348   H     0.56157   0.54697   0.60626   0.00000  Uiso   1.00
H349   H     0.87294   0.41853   0.66027   0.00000  Uiso   1.00
H350   H     0.95386   0.43817   0.95511   0.00000  Uiso   1.00
H351   H     0.31468   0.59878   0.50230   0.00000  Uiso   1.00
H352   H     0.97126   0.32793   0.61618   0.00000  Uiso   1.00
H353   H     0.56197   0.23248   0.64790   0.00000  Uiso   1.00
H354   H     0.65479   0.21794   0.77177   0.00000  Uiso   1.00
H355   H     0.35165   0.29411   0.55703   0.00000  Uiso   1.00
H356   H     0.66302   0.16567   0.61104   0.00000  Uiso   1.00
H357   H     0.78348   0.23294   0.91515   0.00000  Uiso   1.00
H358   H     0.14430   0.39355   0.46233   0.00000  Uiso   1.00
H359   H     0.80089   0.12270   0.57622   0.00000  Uiso   1.00
O360   O     0.93329   0.33033   0.01745   0.00000  Uiso   1.00
O361   O     0.09472   0.54104   0.42337   0.00000  Uiso   1.00
O362   O     0.95614   0.18570   0.57279   0.00000  Uiso   1.00
N363   N     0.90104   0.39186   0.92871   0.00000  Uiso   1.00
N364   N     0.30345   0.54202   0.50536   0.00000  Uiso   1.00
N365   N     0.91727   0.28881   0.61182   0.00000  Uiso   1.00
N366   N     0.80936   0.28142   0.90721   0.00000  Uiso   1.00
N367   N     0.21177   0.43158   0.48386   0.00000  Uiso   1.00
N368   N     0.82559   0.17838   0.59032   0.00000  Uiso   1.00
