data_job_06590
_audit_creation_date              2018-12-19
_audit_creation_method            'Materials Studio'
_symmetry_space_group_name_H-M    'P1'
_symmetry_Int_Tables_number       1
_symmetry_cell_setting            triclinic
loop_
_symmetry_equiv_pos_as_xyz
  x,y,z
_cell_length_a                    21.7082
_cell_length_b                    19.8569
_cell_length_c                    21.4393
_cell_angle_alpha                 106.8230
_cell_angle_beta                  103.9170
_cell_angle_gamma                 105.0800
loop_
_atom_site_label
_atom_site_type_symbol
_atom_site_fract_x
_atom_site_fract_y
_atom_site_fract_z
_atom_site_U_iso_or_equiv
_atom_site_adp_type
_atom_site_occupancy
C1     C     0.21625   0.94751   0.08730   0.00000  Uiso   1.00
C2     C     0.17999   0.86386   0.06895   0.00000  Uiso   1.00
C3     C     0.13464   0.81275   0.00441   0.00000  Uiso   1.00
C4     C     0.10689   0.73874   0.99817   0.00000  Uiso   1.00
C5     C     0.04798   0.61222   0.96111   0.00000  Uiso   1.00
C6     C     0.19833   0.98896   0.14826   0.00000  Uiso   1.00
C7     C     0.16840   0.04304   0.15041   0.00000  Uiso   1.00
C8     C     0.15610   0.07433   0.21094   0.00000  Uiso   1.00
C9     C     0.12569   0.14207   0.29704   0.00000  Uiso   1.00
C10    C     0.29192   0.96190   0.11575   0.00000  Uiso   1.00
C11    C     0.34069   0.99325   0.09058   0.00000  Uiso   1.00
C12    C     0.40720   0.00178   0.12375   0.00000  Uiso   1.00
C13    C     0.52212   0.02750   0.15937   0.00000  Uiso   1.00
C14    C     0.24763   0.90694   0.19099   0.00000  Uiso   1.00
C15    C     0.19704   0.84183   0.12527   0.00000  Uiso   1.00
C16    C     0.16936   0.76787   0.11912   0.00000  Uiso   1.00
C17    C     0.12397   0.71666   0.05458   0.00000  Uiso   1.00
C18    C     0.21537   0.96693   0.20458   0.00000  Uiso   1.00
C19    C     0.20312   0.99816   0.26512   0.00000  Uiso   1.00
C20    C     0.17317   0.05226   0.26736   0.00000  Uiso   1.00
C21    C     0.30897   0.93987   0.17207   0.00000  Uiso   1.00
C22    C     0.37541   0.94836   0.20529   0.00000  Uiso   1.00
C23    C     0.42427   0.97971   0.18017   0.00000  Uiso   1.00
H24    H     0.20297   0.96467   0.04346   0.00000  Uiso   1.00
H25    H     0.12145   0.82983   0.96084   0.00000  Uiso   1.00
H26    H     0.15522   0.06008   0.10683   0.00000  Uiso   1.00
H27    H     0.32748   0.01029   0.04700   0.00000  Uiso   1.00
H28    H     0.03857   0.67063   0.89408   0.00000  Uiso   1.00
H29    H     0.10978   0.15615   0.20190   0.00000  Uiso   1.00
H30    H     0.47304   0.05116   0.07575   0.00000  Uiso   1.00
H31    H     0.26090   0.88979   0.23483   0.00000  Uiso   1.00
H32    H     0.18256   0.75084   0.16271   0.00000  Uiso   1.00
H33    H     0.21632   0.98109   0.30869   0.00000  Uiso   1.00
H34    H     0.38859   0.93130   0.24887   0.00000  Uiso   1.00
H35    H     0.08816   0.60651   0.05793   0.00000  Uiso   1.00
H36    H     0.15938   0.09204   0.36575   0.00000  Uiso   1.00
H37    H     0.52264   0.98705   0.23959   0.00000  Uiso   1.00
O38    O     0.01077   0.54852   0.92511   0.00000  Uiso   1.00
O39    O     0.10421   0.18552   0.32897   0.00000  Uiso   1.00
O40    O     0.58079   0.04777   0.16345   0.00000  Uiso   1.00
N41    N     0.06100   0.67460   0.94254   0.00000  Uiso   1.00
N42    N     0.12757   0.12853   0.23033   0.00000  Uiso   1.00
N43    N     0.46719   0.03039   0.11240   0.00000  Uiso   1.00
N44    N     0.08769   0.64011   0.03070   0.00000  Uiso   1.00
N45    N     0.15426   0.09403   0.31849   0.00000  Uiso   1.00
N46    N     0.49388   0.99589   0.20056   0.00000  Uiso   1.00
C47    C     0.21793   0.28848   0.02077   0.00000  Uiso   1.00
C48    C     0.22392   0.26750   0.94878   0.00000  Uiso   1.00
C49    C     0.17180   0.21952   0.88712   0.00000  Uiso   1.00
C50    C     0.18757   0.20753   0.82672   0.00000  Uiso   1.00
C51    C     0.18691   0.16964   0.71475   0.00000  Uiso   1.00
C52    C     0.27124   0.26768   0.06406   0.00000  Uiso   1.00
C53    C     0.25890   0.21986   0.09933   0.00000  Uiso   1.00
C54    C     0.31450   0.20803   0.13598   0.00000  Uiso   1.00
C55    C     0.38732   0.17044   0.20302   0.00000  Uiso   1.00
C56    C     0.24132   0.37414   0.05111   0.00000  Uiso   1.00
C57    C     0.20384   0.41584   0.07551   0.00000  Uiso   1.00
C58    C     0.23426   0.49364   0.10128   0.00000  Uiso   1.00
C59    C     0.26063   0.62136   0.14821   0.00000  Uiso   1.00
C60    C     0.33861   0.35251   0.02315   0.00000  Uiso   1.00
C61    C     0.28947   0.30228   0.95007   0.00000  Uiso   1.00
C62    C     0.30532   0.29036   0.88975   0.00000  Uiso   1.00
C63    C     0.25324   0.24238   0.82802   0.00000  Uiso   1.00
C64    C     0.33679   0.30245   0.06535   0.00000  Uiso   1.00
C65    C     0.39242   0.29069   0.10197   0.00000  Uiso   1.00
C66    C     0.38017   0.24286   0.13728   0.00000  Uiso   1.00
C67    C     0.30687   0.40892   0.05240   0.00000  Uiso   1.00
C68    C     0.33736   0.48667   0.07814   0.00000  Uiso   1.00
C69    C     0.29993   0.52848   0.10258   0.00000  Uiso   1.00
H70    H     0.16689   0.26140   0.01976   0.00000  Uiso   1.00
H71    H     0.12108   0.19261   0.88614   0.00000  Uiso   1.00
H72    H     0.20817   0.19296   0.09833   0.00000  Uiso   1.00
H73    H     0.15311   0.38890   0.07450   0.00000  Uiso   1.00
H74    H     0.09920   0.13166   0.73857   0.00000  Uiso   1.00
H75    H     0.28283   0.13240   0.18599   0.00000  Uiso   1.00
H76    H     0.16674   0.54560   0.13576   0.00000  Uiso   1.00
H77    H     0.38965   0.37958   0.02416   0.00000  Uiso   1.00
H78    H     0.35606   0.31728   0.89077   0.00000  Uiso   1.00
H79    H     0.44314   0.31762   0.10296   0.00000  Uiso   1.00
H80    H     0.38809   0.51357   0.07914   0.00000  Uiso   1.00
H81    H     0.28992   0.23284   0.74233   0.00000  Uiso   1.00
H82    H     0.47355   0.23358   0.18975   0.00000  Uiso   1.00
H83    H     0.35746   0.64678   0.13952   0.00000  Uiso   1.00
O84    O     0.16845   0.13912   0.65262   0.00000  Uiso   1.00
O85    O     0.40937   0.14010   0.23963   0.00000  Uiso   1.00
O86    O     0.25706   0.68220   0.17373   0.00000  Uiso   1.00
N87    N     0.14869   0.16404   0.75776   0.00000  Uiso   1.00
N88    N     0.32038   0.16472   0.17606   0.00000  Uiso   1.00
N89    N     0.21185   0.55102   0.12912   0.00000  Uiso   1.00
N90    N     0.25132   0.21848   0.75978   0.00000  Uiso   1.00
N91    N     0.42300   0.21917   0.17808   0.00000  Uiso   1.00
N92    N     0.31447   0.60547   0.13114   0.00000  Uiso   1.00
C93    C     0.84280   0.23180   0.42363   0.00000  Uiso   1.00
C94    C     0.79060   0.25507   0.38180   0.00000  Uiso   1.00
C95    C     0.73588   0.20724   0.32221   0.00000  Uiso   1.00
C96    C     0.69396   0.23947   0.29156   0.00000  Uiso   1.00
C97    C     0.61103   0.26384   0.22233   0.00000  Uiso   1.00
C98    C     0.91186   0.27976   0.42697   0.00000  Uiso   1.00
C99    C     0.95910   0.25269   0.40537   0.00000  Uiso   1.00
C100   C     0.01928   0.30570   0.41277   0.00000  Uiso   1.00
C101   C     0.12463   0.36841   0.41372   0.00000  Uiso   1.00
C102   C     0.84163   0.25807   0.49744   0.00000  Uiso   1.00
C103   C     0.82983   0.21278   0.53509   0.00000  Uiso   1.00
C104   C     0.83088   0.24754   0.60181   0.00000  Uiso   1.00
C105   C     0.82718   0.27658   0.71217   0.00000  Uiso   1.00
C106   C     0.86567   0.37407   0.47518   0.00000  Uiso   1.00
C107   C     0.80302   0.33234   0.40980   0.00000  Uiso   1.00
C108   C     0.76118   0.36465   0.37924   0.00000  Uiso   1.00
C109   C     0.70640   0.31688   0.31961   0.00000  Uiso   1.00
C110   C     0.92429   0.35703   0.45497   0.00000  Uiso   1.00
C111   C     0.98440   0.41009   0.46240   0.00000  Uiso   1.00
C112   C     0.03172   0.38312   0.44082   0.00000  Uiso   1.00
C113   C     0.85405   0.33535   0.52544   0.00000  Uiso   1.00
C114   C     0.85513   0.37018   0.59212   0.00000  Uiso   1.00
C115   C     0.84333   0.32495   0.62986   0.00000  Uiso   1.00
H116   H     0.83314   0.17164   0.40183   0.00000  Uiso   1.00
H117   H     0.72629   0.14745   0.30055   0.00000  Uiso   1.00
H118   H     0.94948   0.19289   0.38371   0.00000  Uiso   1.00
H119   H     0.82022   0.15298   0.51341   0.00000  Uiso   1.00
H120   H     0.61331   0.15470   0.20060   0.00000  Uiso   1.00
H121   H     0.08394   0.25052   0.37597   0.00000  Uiso   1.00
H122   H     0.81137   0.16637   0.64945   0.00000  Uiso   1.00
H123   H     0.87535   0.43423   0.49698   0.00000  Uiso   1.00
H124   H     0.77080   0.42445   0.40092   0.00000  Uiso   1.00
H125   H     0.99400   0.46989   0.48408   0.00000  Uiso   1.00
H126   H     0.86474   0.42998   0.61377   0.00000  Uiso   1.00
H127   H     0.64945   0.37953   0.28206   0.00000  Uiso   1.00
H128   H     0.12008   0.47535   0.45743   0.00000  Uiso   1.00
H129   H     0.84751   0.39120   0.73091   0.00000  Uiso   1.00
O130   O     0.56186   0.25595   0.17641   0.00000  Uiso   1.00
O131   O     0.17931   0.38165   0.40650   0.00000  Uiso   1.00
O132   O     0.82170   0.27125   0.76530   0.00000  Uiso   1.00
N133   N     0.63616   0.20896   0.23296   0.00000  Uiso   1.00
N134   N     0.07616   0.29854   0.39691   0.00000  Uiso   1.00
N135   N     0.82135   0.21987   0.65260   0.00000  Uiso   1.00
N136   N     0.65560   0.32993   0.27679   0.00000  Uiso   1.00
N137   N     0.09560   0.41952   0.44074   0.00000  Uiso   1.00
N138   N     0.84079   0.34085   0.69643   0.00000  Uiso   1.00
C139   C     0.68505   0.57392   0.31018   0.00000  Uiso   1.00
C140   C     0.65466   0.56970   0.23659   0.00000  Uiso   1.00
C141   C     0.60222   0.50883   0.18309   0.00000  Uiso   1.00
C142   C     0.58168   0.51603   0.11957   0.00000  Uiso   1.00
C143   C     0.52979   0.49949   0.00677   0.00000  Uiso   1.00
C144   C     0.67851   0.64336   0.35799   0.00000  Uiso   1.00
C145   C     0.64613   0.64443   0.40656   0.00000  Uiso   1.00
C146   C     0.64568   0.71364   0.44523   0.00000  Uiso   1.00
C147   C     0.63086   0.81147   0.52094   0.00000  Uiso   1.00
C148   C     0.76086   0.59163   0.32386   0.00000  Uiso   1.00
C149   C     0.79772   0.54922   0.34376   0.00000  Uiso   1.00
C150   C     0.86660   0.57489   0.35372   0.00000  Uiso   1.00
C151   C     0.97963   0.59240   0.37644   0.00000  Uiso   1.00
C152   C     0.74182   0.69493   0.29251   0.00000  Uiso   1.00
C153   C     0.68550   0.63543   0.22700   0.00000  Uiso   1.00
C154   C     0.66504   0.64272   0.16354   0.00000  Uiso   1.00
C155   C     0.61257   0.58187   0.10995   0.00000  Uiso   1.00
C156   C     0.70935   0.70909   0.34839   0.00000  Uiso   1.00
C157   C     0.70895   0.77832   0.38700   0.00000  Uiso   1.00
C158   C     0.67657   0.77949   0.43562   0.00000  Uiso   1.00
C159   C     0.79170   0.65736   0.31426   0.00000  Uiso   1.00
C160   C     0.86053   0.68311   0.32420   0.00000  Uiso   1.00
C161   C     0.89749   0.64074   0.34411   0.00000  Uiso   1.00
H162   H     0.66104   0.52275   0.31766   0.00000  Uiso   1.00
H163   H     0.57837   0.45797   0.19055   0.00000  Uiso   1.00
H164   H     0.62228   0.59355   0.41398   0.00000  Uiso   1.00
H165   H     0.77384   0.49836   0.35119   0.00000  Uiso   1.00
H166   H     0.50029   0.41516   0.04539   0.00000  Uiso   1.00
H167   H     0.59290   0.70104   0.51653   0.00000  Uiso   1.00
H168   H     0.91250   0.50030   0.38412   0.00000  Uiso   1.00
H169   H     0.76583   0.74611   0.28504   0.00000  Uiso   1.00
H170   H     0.68891   0.69359   0.15612   0.00000  Uiso   1.00
H171   H     0.73282   0.82917   0.37956   0.00000  Uiso   1.00
H172   H     0.88438   0.73397   0.31677   0.00000  Uiso   1.00
H173   H     0.59001   0.60640   0.01745   0.00000  Uiso   1.00
H174   H     0.68262   0.89227   0.48860   0.00000  Uiso   1.00
H175   H     0.00222   0.69154   0.35618   0.00000  Uiso   1.00
O176   O     0.49265   0.47221   0.94721   0.00000  Uiso   1.00
O177   O     0.61416   0.84727   0.56534   0.00000  Uiso   1.00
O178   O     0.03346   0.58390   0.39162   0.00000  Uiso   1.00
N179   N     0.53197   0.46737   0.05650   0.00000  Uiso   1.00
N180   N     0.61855   0.73464   0.49698   0.00000  Uiso   1.00
N181   N     0.91735   0.54698   0.37321   0.00000  Uiso   1.00
N182   N     0.58025   0.57027   0.04147   0.00000  Uiso   1.00
N183   N     0.66683   0.83755   0.48195   0.00000  Uiso   1.00
N184   N     0.96563   0.64988   0.35817   0.00000  Uiso   1.00
C185   C     0.66485   0.59287   0.79015   0.00000  Uiso   1.00
C186   C     0.67630   0.51865   0.78176   0.00000  Uiso   1.00
C187   C     0.62621   0.44760   0.75016   0.00000  Uiso   1.00
C188   C     0.64705   0.38673   0.74768   0.00000  Uiso   1.00
C189   C     0.65442   0.26996   0.73034   0.00000  Uiso   1.00
C190   C     0.70930   0.63215   0.75657   0.00000  Uiso   1.00
C191   C     0.68694   0.65655   0.70380   0.00000  Uiso   1.00
C192   C     0.73556   0.69124   0.68012   0.00000  Uiso   1.00
C193   C     0.79417   0.75075   0.62371   0.00000  Uiso   1.00
C194   C     0.69536   0.64031   0.86762   0.00000  Uiso   1.00
C195   C     0.66129   0.67159   0.90822   0.00000  Uiso   1.00
C196   C     0.69819   0.71316   0.97805   0.00000  Uiso   1.00
C197   C     0.73515   0.78534   0.09406   0.00000  Uiso   1.00
C198   C     0.79095   0.61110   0.84196   0.00000  Uiso   1.00
C199   C     0.74480   0.52855   0.80990   0.00000  Uiso   1.00
C200   C     0.76572   0.46776   0.80748   0.00000  Uiso   1.00
C201   C     0.71566   0.39664   0.77588   0.00000  Uiso   1.00
C202   C     0.77779   0.64205   0.78471   0.00000  Uiso   1.00
C203   C     0.82646   0.67672   0.76112   0.00000  Uiso   1.00
C204   C     0.80418   0.70116   0.70831   0.00000  Uiso   1.00
C205   C     0.76386   0.65021   0.89577   0.00000  Uiso   1.00
C206   C     0.80081   0.69175   0.96554   0.00000  Uiso   1.00
C207   C     0.76680   0.72308   0.00624   0.00000  Uiso   1.00
H208   H     0.61153   0.58517   0.76824   0.00000  Uiso   1.00
H209   H     0.57320   0.43996   0.72838   0.00000  Uiso   1.00
H210   H     0.63394   0.64889   0.68203   0.00000  Uiso   1.00
H211   H     0.60829   0.66392   0.88643   0.00000  Uiso   1.00
H212   H     0.56093   0.28334   0.69657   0.00000  Uiso   1.00
H213   H     0.68898   0.72390   0.59886   0.00000  Uiso   1.00
H214   H     0.63490   0.75559   0.02987   0.00000  Uiso   1.00
H215   H     0.84428   0.61881   0.86387   0.00000  Uiso   1.00
H216   H     0.81873   0.47544   0.82926   0.00000  Uiso   1.00
H217   H     0.87946   0.68437   0.78291   0.00000  Uiso   1.00
H218   H     0.85381   0.69940   0.98730   0.00000  Uiso   1.00
H219   H     0.76021   0.31214   0.77844   0.00000  Uiso   1.00
H220   H     0.88826   0.75270   0.68074   0.00000  Uiso   1.00
H221   H     0.83418   0.78439   0.11174   0.00000  Uiso   1.00
O222   O     0.63956   0.20282   0.71299   0.00000  Uiso   1.00
O223   O     0.80757   0.78083   0.58481   0.00000  Uiso   1.00
O224   O     0.73662   0.82240   0.15027   0.00000  Uiso   1.00
N225   N     0.61133   0.30979   0.72060   0.00000  Uiso   1.00
N226   N     0.73106   0.72168   0.62924   0.00000  Uiso   1.00
N227   N     0.68050   0.75133   0.03219   0.00000  Uiso   1.00
N228   N     0.71856   0.32529   0.76466   0.00000  Uiso   1.00
N229   N     0.83828   0.73717   0.67330   0.00000  Uiso   1.00
N230   N     0.78773   0.76682   0.07625   0.00000  Uiso   1.00
C231   C     0.37777   0.84060   0.76697   0.00000  Uiso   1.00
C232   C     0.38845   0.83447   0.83778   0.00000  Uiso   1.00
C233   C     0.34065   0.78979   0.85581   0.00000  Uiso   1.00
C234   C     0.36028   0.79203   0.92320   0.00000  Uiso   1.00
C235   C     0.36696   0.77560   0.02590   0.00000  Uiso   1.00
C236   C     0.43370   0.82058   0.74312   0.00000  Uiso   1.00
C237   C     0.42395   0.76422   0.68157   0.00000  Uiso   1.00
C238   C     0.48168   0.75478   0.66927   0.00000  Uiso   1.00
C239   C     0.55862   0.71681   0.62499   0.00000  Uiso   1.00
C240   C     0.39332   0.92391   0.78004   0.00000  Uiso   1.00
C241   C     0.34962   0.95445   0.74951   0.00000  Uiso   1.00
C242   C     0.37335   0.03200   0.76828   0.00000  Uiso   1.00
C243   C     0.38759   0.15448   0.78132   0.00000  Uiso   1.00
C244   C     0.49763   0.92404   0.85457   0.00000  Uiso   1.00
C245   C     0.45355   0.87979   0.88536   0.00000  Uiso   1.00
C246   C     0.47326   0.88211   0.95274   0.00000  Uiso   1.00
C247   C     0.42550   0.83744   0.97087   0.00000  Uiso   1.00
C248   C     0.49880   0.86590   0.79070   0.00000  Uiso   1.00
C249   C     0.55656   0.85654   0.77849   0.00000  Uiso   1.00
C250   C     0.54690   0.80018   0.71694   0.00000  Uiso   1.00
C251   C     0.45842   0.96924   0.82762   0.00000  Uiso   1.00
C252   C     0.48223   0.04676   0.84644   0.00000  Uiso   1.00
C253   C     0.43857   0.07741   0.81595   0.00000  Uiso   1.00
H254   H     0.32709   0.80531   0.72992   0.00000  Uiso   1.00
H255   H     0.29027   0.75472   0.81897   0.00000  Uiso   1.00
H256   H     0.37357   0.72916   0.64475   0.00000  Uiso   1.00
H257   H     0.29924   0.91936   0.71269   0.00000  Uiso   1.00
H258   H     0.27817   0.71859   0.93868   0.00000  Uiso   1.00
H259   H     0.45380   0.66473   0.57132   0.00000  Uiso   1.00
H260   H     0.29707   0.06579   0.71457   0.00000  Uiso   1.00
H261   H     0.54832   0.95932   0.89162   0.00000  Uiso   1.00
H262   H     0.52364   0.91718   0.98955   0.00000  Uiso   1.00
H263   H     0.60693   0.89162   0.81532   0.00000  Uiso   1.00
H264   H     0.53261   0.08182   0.88326   0.00000  Uiso   1.00
H265   H     0.46759   0.85045   0.07713   0.00000  Uiso   1.00
H266   H     0.64321   0.79659   0.70976   0.00000  Uiso   1.00
H267   H     0.48649   0.19764   0.85302   0.00000  Uiso   1.00
O268   O     0.35266   0.75400   0.06940   0.00000  Uiso   1.00
O269   O     0.58307   0.68334   0.58743   0.00000  Uiso   1.00
O270   O     0.37745   0.20952   0.77538   0.00000  Uiso   1.00
N271   N     0.32614   0.75542   0.95783   0.00000  Uiso   1.00
N272   N     0.49033   0.70505   0.61437   0.00000  Uiso   1.00
N273   N     0.34381   0.08000   0.74829   0.00000  Uiso   1.00
N274   N     0.42806   0.82637   0.03232   0.00000  Uiso   1.00
N275   N     0.59225   0.77600   0.68887   0.00000  Uiso   1.00
N276   N     0.44573   0.15096   0.82278   0.00000  Uiso   1.00
C277   C     0.77312   0.21919   0.00440   0.00000  Uiso   1.00
C278   C     0.83066   0.28545   0.00844   0.00000  Uiso   1.00
C279   C     0.89080   0.32656   0.06405   0.00000  Uiso   1.00
C280   C     0.93703   0.38507   0.05766   0.00000  Uiso   1.00
C281   C     0.02843   0.48539   0.07303   0.00000  Uiso   1.00
C282   C     0.76212   0.15352   0.93940   0.00000  Uiso   1.00
C283   C     0.76463   0.08371   0.93696   0.00000  Uiso   1.00
C284   C     0.75316   0.03116   0.87245   0.00000  Uiso   1.00
C285   C     0.73810   0.92663   0.78062   0.00000  Uiso   1.00
C286   C     0.70958   0.23970   0.98980   0.00000  Uiso   1.00
C287   C     0.66789   0.24232   0.02974   0.00000  Uiso   1.00
C288   C     0.61218   0.26231   0.00765   0.00000  Uiso   1.00
C289   C     0.51554   0.29159   0.99408   0.00000  Uiso   1.00
C290   C     0.74828   0.24999   0.89414   0.00000  Uiso   1.00
C291   C     0.81716   0.30217   0.94855   0.00000  Uiso   1.00
C292   C     0.86332   0.36064   0.94207   0.00000  Uiso   1.00
C293   C     0.92352   0.40183   0.99767   0.00000  Uiso   1.00
C294   C     0.74863   0.17024   0.87951   0.00000  Uiso   1.00
C295   C     0.73715   0.11778   0.81498   0.00000  Uiso   1.00
C296   C     0.73964   0.04791   0.81245   0.00000  Uiso   1.00
C297   C     0.69608   0.25643   0.92991   0.00000  Uiso   1.00
C298   C     0.64042   0.27641   0.90775   0.00000  Uiso   1.00
C299   C     0.59866   0.27907   0.94765   0.00000  Uiso   1.00
H300   H     0.78363   0.20616   0.05102   0.00000  Uiso   1.00
H301   H     0.90122   0.31359   0.11039   0.00000  Uiso   1.00
H302   H     0.77506   0.07077   0.98332   0.00000  Uiso   1.00
H303   H     0.67835   0.22937   0.07607   0.00000  Uiso   1.00
H304   H     0.02566   0.44006   0.14979   0.00000  Uiso   1.00
H305   H     0.75963   0.92806   0.88185   0.00000  Uiso   1.00
H306   H     0.55568   0.26250   0.07745   0.00000  Uiso   1.00
H307   H     0.73778   0.26301   0.84752   0.00000  Uiso   1.00
H308   H     0.85286   0.37357   0.89572   0.00000  Uiso   1.00
H309   H     0.72671   0.13075   0.76865   0.00000  Uiso   1.00
H310   H     0.62999   0.28935   0.86141   0.00000  Uiso   1.00
H311   H     0.98641   0.48874   0.97556   0.00000  Uiso   1.00
H312   H     0.72037   0.97674   0.70762   0.00000  Uiso   1.00
H313   H     0.51643   0.31118   0.90322   0.00000  Uiso   1.00
O314   O     0.08258   0.53609   0.09804   0.00000  Uiso   1.00
O315   O     0.73354   0.86436   0.74652   0.00000  Uiso   1.00
O316   O     0.46597   0.30313   0.00314   0.00000  Uiso   1.00
N317   N     0.00062   0.43636   0.10217   0.00000  Uiso   1.00
N318   N     0.75191   0.95767   0.85167   0.00000  Uiso   1.00
N319   N     0.56123   0.27032   0.03453   0.00000  Uiso   1.00
N320   N     0.97951   0.46255   0.00842   0.00000  Uiso   1.00
N321   N     0.73079   0.98386   0.75791   0.00000  Uiso   1.00
N322   N     0.54011   0.29651   0.94077   0.00000  Uiso   1.00
C323   C     0.97690   0.00483   0.31839   0.00000  Uiso   1.00
C324   C     0.96928   0.00419   0.38711   0.00000  Uiso   1.00
C325   C     0.01823   0.04644   0.45221   0.00000  Uiso   1.00
C326   C     0.00143   0.03790   0.50870   0.00000  Uiso   1.00
C327   C     0.99924   0.04440   0.61669   0.00000  Uiso   1.00
C328   C     0.91826   0.02499   0.28330   0.00000  Uiso   1.00
C329   C     0.92432   0.08472   0.26110   0.00000  Uiso   1.00
C330   C     0.86457   0.09367   0.23018   0.00000  Uiso   1.00
C331   C     0.78318   0.13242   0.17695   0.00000  Uiso   1.00
C332   C     0.96306   0.92342   0.27417   0.00000  Uiso   1.00
C333   C     0.00678   0.89775   0.24429   0.00000  Uiso   1.00
C334   C     0.98474   0.82120   0.20568   0.00000  Uiso   1.00
C335   C     0.97291   0.70226   0.13828   0.00000  Uiso   1.00
C336   C     0.86003   0.91452   0.30294   0.00000  Uiso   1.00
C337   C     0.90580   0.95514   0.37872   0.00000  Uiso   1.00
C338   C     0.88892   0.94652   0.43513   0.00000  Uiso   1.00
C339   C     0.93784   0.98875   0.50030   0.00000  Uiso   1.00
C340   C     0.85478   0.97594   0.27491   0.00000  Uiso   1.00
C341   C     0.79501   0.98480   0.24401   0.00000  Uiso   1.00
C342   C     0.80097   0.04452   0.22178   0.00000  Uiso   1.00
C343   C     0.89958   0.87437   0.26579   0.00000  Uiso   1.00
C344   C     0.87747   0.79783   0.22721   0.00000  Uiso   1.00
C345   C     0.92115   0.77205   0.19727   0.00000  Uiso   1.00
H346   H     0.02632   0.04302   0.32492   0.00000  Uiso   1.00
H347   H     0.06735   0.08441   0.45868   0.00000  Uiso   1.00
H348   H     0.97345   0.12266   0.26759   0.00000  Uiso   1.00
H349   H     0.05590   0.93573   0.25079   0.00000  Uiso   1.00
H350   H     0.08483   0.10868   0.60329   0.00000  Uiso   1.00
H351   H     0.88684   0.18933   0.20034   0.00000  Uiso   1.00
H352   H     0.06070   0.79515   0.16491   0.00000  Uiso   1.00
H353   H     0.81060   0.87632   0.29641   0.00000  Uiso   1.00
H354   H     0.83979   0.90856   0.42862   0.00000  Uiso   1.00
H355   H     0.74589   0.94682   0.23752   0.00000  Uiso   1.00
H356   H     0.82834   0.75989   0.22073   0.00000  Uiso   1.00
H357   H     0.90013   0.96595   0.57889   0.00000  Uiso   1.00
H358   H     0.70215   0.04661   0.17593   0.00000  Uiso   1.00
H359   H     0.87601   0.65243   0.14051   0.00000  Uiso   1.00
O360   O     0.01557   0.06155   0.67858   0.00000  Uiso   1.00
O361   O     0.75582   0.16736   0.14991   0.00000  Uiso   1.00
O362   O     0.98392   0.65020   0.10343   0.00000  Uiso   1.00
N363   N     0.03736   0.07065   0.57940   0.00000  Uiso   1.00
N364   N     0.85226   0.14607   0.20268   0.00000  Uiso   1.00
N365   N     0.01479   0.77754   0.16954   0.00000  Uiso   1.00
N366   N     0.93798   0.99385   0.56627   0.00000  Uiso   1.00
N367   N     0.75287   0.06927   0.18955   0.00000  Uiso   1.00
N368   N     0.91541   0.70074   0.15641   0.00000  Uiso   1.00
C369   C     0.12936   0.98711   0.77249   0.00000  Uiso   1.00
C370   C     0.19609   0.99265   0.82126   0.00000  Uiso   1.00
C371   C     0.25215   0.05808   0.86008   0.00000  Uiso   1.00
C372   C     0.30833   0.05135   0.90156   0.00000  Uiso   1.00
C373   C     0.41192   0.07057   0.97693   0.00000  Uiso   1.00
C374   C     0.07397   0.95110   0.79741   0.00000  Uiso   1.00
C375   C     0.02735   0.98159   0.81617   0.00000  Uiso   1.00
C376   C     0.98073   0.93987   0.83756   0.00000  Uiso   1.00
C377   C     0.89470   0.89455   0.87586   0.00000  Uiso   1.00
C378   C     0.11808   0.92966   0.70197   0.00000  Uiso   1.00
C379   C     0.10853   0.94212   0.64048   0.00000  Uiso   1.00
C380   C     0.09902   0.88235   0.58151   0.00000  Uiso   1.00
C381   C     0.08147   0.80374   0.47163   0.00000  Uiso   1.00
C382   C     0.12944   0.85882   0.77711   0.00000  Uiso   1.00
C383   C     0.19613   0.92296   0.82377   0.00000  Uiso   1.00
C384   C     0.25224   0.91614   0.86519   0.00000  Uiso   1.00
C385   C     0.30837   0.98155   0.90407   0.00000  Uiso   1.00
C386   C     0.07401   0.88142   0.79992   0.00000  Uiso   1.00
C387   C     0.02744   0.83965   0.82128   0.00000  Uiso   1.00
C388   C     0.98077   0.87007   0.84008   0.00000  Uiso   1.00
C389   C     0.11812   0.85998   0.70448   0.00000  Uiso   1.00
C390   C     0.10862   0.80018   0.64559   0.00000  Uiso   1.00
C391   C     0.09906   0.81254   0.58403   0.00000  Uiso   1.00
H392   H     0.12932   0.04136   0.77054   0.00000  Uiso   1.00
H393   H     0.25209   0.11200   0.85813   0.00000  Uiso   1.00
H394   H     0.02733   0.03551   0.81422   0.00000  Uiso   1.00
H395   H     0.10850   0.99605   0.63856   0.00000  Uiso   1.00
H396   H     0.38821   0.15959   0.95637   0.00000  Uiso   1.00
H397   H     0.91427   0.99830   0.86376   0.00000  Uiso   1.00
H398   H     0.08543   0.91508   0.49334   0.00000  Uiso   1.00
H399   H     0.12947   0.80456   0.77906   0.00000  Uiso   1.00
H400   H     0.25226   0.86221   0.86712   0.00000  Uiso   1.00
H401   H     0.02749   0.78572   0.82321   0.00000  Uiso   1.00
H402   H     0.10866   0.74626   0.64755   0.00000  Uiso   1.00
H403   H     0.38835   0.95685   0.96367   0.00000  Uiso   1.00
H404   H     0.91440   0.79556   0.87106   0.00000  Uiso   1.00
H405   H     0.08556   0.71235   0.50064   0.00000  Uiso   1.00
O406   O     0.46904   0.10041   0.01782   0.00000  Uiso   1.00
O407   O     0.84723   0.88881   0.89630   0.00000  Uiso   1.00
O408   O     0.07179   0.77963   0.41032   0.00000  Uiso   1.00
N409   N     0.37140   0.10396   0.94599   0.00000  Uiso   1.00
N410   N     0.92830   0.95317   0.85942   0.00000  Uiso   1.00
N411   N     0.08830   0.87537   0.51310   0.00000  Uiso   1.00
N412   N     0.37147   0.99487   0.94992   0.00000  Uiso   1.00
N413   N     0.92837   0.84408   0.86335   0.00000  Uiso   1.00
N414   N     0.08837   0.76627   0.51703   0.00000  Uiso   1.00
C415   C     0.23567   0.53503   0.68581   0.00000  Uiso   1.00
C416   C     0.29739   0.56827   0.75194   0.00000  Uiso   1.00
C417   C     0.35546   0.62916   0.76807   0.00000  Uiso   1.00
C418   C     0.40627   0.65096   0.83114   0.00000  Uiso   1.00
C419   C     0.50320   0.70829   0.92692   0.00000  Uiso   1.00
C420   C     0.22578   0.45204   0.65345   0.00000  Uiso   1.00
C421   C     0.22363   0.41521   0.58676   0.00000  Uiso   1.00
C422   C     0.21415   0.33916   0.56691   0.00000  Uiso   1.00
C423   C     0.19985   0.21605   0.50976   0.00000  Uiso   1.00
C424   C     0.17491   0.53709   0.70915   0.00000  Uiso   1.00
C425   C     0.12998   0.57176   0.68928   0.00000  Uiso   1.00
C426   C     0.07766   0.56731   0.71631   0.00000  Uiso   1.00
C427   C     0.98438   0.57626   0.74564   0.00000  Uiso   1.00
C428   C     0.22264   0.46546   0.76914   0.00000  Uiso   1.00
C429   C     0.29032   0.53048   0.79720   0.00000  Uiso   1.00
C430   C     0.34105   0.55219   0.86026   0.00000  Uiso   1.00
C431   C     0.39919   0.61311   0.87648   0.00000  Uiso   1.00
C432   C     0.21870   0.41425   0.69870   0.00000  Uiso   1.00
C433   C     0.20922   0.33824   0.67895   0.00000  Uiso   1.00
C434   C     0.20706   0.30131   0.61225   0.00000  Uiso   1.00
C435   C     0.16784   0.49931   0.75441   0.00000  Uiso   1.00
C436   C     0.11557   0.49480   0.78147   0.00000  Uiso   1.00
C437   C     0.07057   0.52946   0.76165   0.00000  Uiso   1.00
H438   H     0.24118   0.56444   0.65057   0.00000  Uiso   1.00
H439   H     0.36092   0.65838   0.73303   0.00000  Uiso   1.00
H440   H     0.22910   0.44446   0.55174   0.00000  Uiso   1.00
H441   H     0.13547   0.60100   0.65425   0.00000  Uiso   1.00
H442   H     0.49057   0.74585   0.84439   0.00000  Uiso   1.00
H443   H     0.21260   0.29479   0.46214   0.00000  Uiso   1.00
H444   H     0.01516   0.62487   0.67829   0.00000  Uiso   1.00
H445   H     0.21713   0.43604   0.80437   0.00000  Uiso   1.00
H446   H     0.33556   0.52294   0.89527   0.00000  Uiso   1.00
H447   H     0.20374   0.30902   0.71399   0.00000  Uiso   1.00
H448   H     0.11011   0.46556   0.81649   0.00000  Uiso   1.00
H449   H     0.46999   0.63592   0.97608   0.00000  Uiso   1.00
H450   H     0.19201   0.18486   0.59382   0.00000  Uiso   1.00
H451   H     0.99457   0.51494   0.80997   0.00000  Uiso   1.00
O452   O     0.55863   0.75035   0.96725   0.00000  Uiso   1.00
O453   O     0.19392   0.15858   0.46573   0.00000  Uiso   1.00
O454   O     0.93489   0.59164   0.74933   0.00000  Uiso   1.00
N455   N     0.46947   0.70806   0.86292   0.00000  Uiso   1.00
N456   N     0.20959   0.28635   0.50553   0.00000  Uiso   1.00
N457   N     0.02499   0.59493   0.70760   0.00000  Uiso   1.00
N458   N     0.45839   0.64891   0.93377   0.00000  Uiso   1.00
N459   N     0.19851   0.22720   0.57639   0.00000  Uiso   1.00
N460   N     0.01391   0.53578   0.77846   0.00000  Uiso   1.00
C461   C     0.43710   0.84105   0.46789   0.00000  Uiso   1.00
C462   C     0.43357   0.91976   0.49047   0.00000  Uiso   1.00
C463   C     0.47917   0.98144   0.54861   0.00000  Uiso   1.00
C464   C     0.46708   0.04854   0.56029   0.00000  Uiso   1.00
C465   C     0.47005   0.16997   0.60220   0.00000  Uiso   1.00
C466   C     0.36939   0.78806   0.46255   0.00000  Uiso   1.00
C467   C     0.36104   0.73900   0.49721   0.00000  Uiso   1.00
C468   C     0.29493   0.69523   0.48538   0.00000  Uiso   1.00
C469   C     0.19826   0.61214   0.48391   0.00000  Uiso   1.00
C470   C     0.43805   0.82183   0.39400   0.00000  Uiso   1.00
C471   C     0.48742   0.80114   0.37102   0.00000  Uiso   1.00
C472   C     0.47911   0.78579   0.30147   0.00000  Uiso   1.00
C473   C     0.48905   0.75514   0.19357   0.00000  Uiso   1.00
C474   C     0.33453   0.85054   0.38522   0.00000  Uiso   1.00
C475   C     0.37785   0.92491   0.44557   0.00000  Uiso   1.00
C476   C     0.36569   0.99194   0.45716   0.00000  Uiso   1.00
C477   C     0.41127   0.05371   0.51531   0.00000  Uiso   1.00
C478   C     0.31368   0.79321   0.41765   0.00000  Uiso   1.00
C479   C     0.24756   0.74950   0.40576   0.00000  Uiso   1.00
C480   C     0.23911   0.70039   0.44040   0.00000  Uiso   1.00
C481   C     0.38234   0.82698   0.34910   0.00000  Uiso   1.00
C482   C     0.37394   0.81165   0.27957   0.00000  Uiso   1.00
C483   C     0.42330   0.79095   0.25649   0.00000  Uiso   1.00
H484   H     0.48047   0.83703   0.50284   0.00000  Uiso   1.00
H485   H     0.52228   0.97743   0.58335   0.00000  Uiso   1.00
H486   H     0.40417   0.73502   0.53195   0.00000  Uiso   1.00
H487   H     0.53053   0.79716   0.40578   0.00000  Uiso   1.00
H488   H     0.54404   0.13535   0.65282   0.00000  Uiso   1.00
H489   H     0.29500   0.62420   0.54443   0.00000  Uiso   1.00
H490   H     0.56146   0.75523   0.27837   0.00000  Uiso   1.00
H491   H     0.29115   0.85455   0.35027   0.00000  Uiso   1.00
H492   H     0.32257   0.99591   0.42240   0.00000  Uiso   1.00
H493   H     0.20446   0.75350   0.37101   0.00000  Uiso   1.00
H494   H     0.33082   0.81565   0.24484   0.00000  Uiso   1.00
H495   H     0.38195   0.15035   0.52219   0.00000  Uiso   1.00
H496   H     0.13291   0.63919   0.41380   0.00000  Uiso   1.00
H497   H     0.39937   0.77024   0.14774   0.00000  Uiso   1.00
O498   O     0.48707   0.23552   0.63773   0.00000  Uiso   1.00
O499   O     0.16034   0.56490   0.49551   0.00000  Uiso   1.00
O500   O     0.50993   0.73682   0.14645   0.00000  Uiso   1.00
N501   N     0.50159   0.11948   0.61217   0.00000  Uiso   1.00
N502   N     0.26875   0.64159   0.51084   0.00000  Uiso   1.00
N503   N     0.51786   0.76408   0.26210   0.00000  Uiso   1.00
N504   N     0.41437   0.12756   0.54188   0.00000  Uiso   1.00
N505   N     0.18153   0.64967   0.44055   0.00000  Uiso   1.00
N506   N     0.43064   0.77216   0.19180   0.00000  Uiso   1.00
C507   C     0.60845   0.40413   0.56660   0.00000  Uiso   1.00
C508   C     0.67031   0.45353   0.55837   0.00000  Uiso   1.00
C509   C     0.73451   0.49055   0.60844   0.00000  Uiso   1.00
C510   C     0.78430   0.53300   0.59083   0.00000  Uiso   1.00
C511   C     0.88247   0.60895   0.58800   0.00000  Uiso   1.00
C512   C     0.55339   0.43755   0.55140   0.00000  Uiso   1.00
C513   C     0.51929   0.46112   0.59560   0.00000  Uiso   1.00
C514   C     0.47065   0.49010   0.57211   0.00000  Uiso   1.00
C515   C     0.38728   0.54117   0.55844   0.00000  Uiso   1.00
C516   C     0.58399   0.32787   0.50759   0.00000  Uiso   1.00
C517   C     0.57561   0.25922   0.51497   0.00000  Uiso   1.00
C518   C     0.55272   0.19586   0.45459   0.00000  Uiso   1.00
C519   C     0.51685   0.07665   0.37291   0.00000  Uiso   1.00
C520   C     0.58269   0.41369   0.44628   0.00000  Uiso   1.00
C521   C     0.65631   0.45872   0.49302   0.00000  Uiso   1.00
C522   C     0.70602   0.50112   0.47532   0.00000  Uiso   1.00
C523   C     0.77029   0.53820   0.52536   0.00000  Uiso   1.00
C524   C     0.53940   0.44274   0.48605   0.00000  Uiso   1.00
C525   C     0.49080   0.47169   0.46248   0.00000  Uiso   1.00
C526   C     0.45664   0.49530   0.50664   0.00000  Uiso   1.00
C527   C     0.57000   0.33306   0.44224   0.00000  Uiso   1.00
C528   C     0.54711   0.26979   0.38185   0.00000  Uiso   1.00
C529   C     0.53870   0.20106   0.38912   0.00000  Uiso   1.00
H530   H     0.61934   0.40010   0.61748   0.00000  Uiso   1.00
H531   H     0.74532   0.48653   0.65902   0.00000  Uiso   1.00
H532   H     0.53013   0.45709   0.64617   0.00000  Uiso   1.00
H533   H     0.58644   0.25523   0.56555   0.00000  Uiso   1.00
H534   H     0.87882   0.58466   0.67625   0.00000  Uiso   1.00
H535   H     0.42506   0.52256   0.64916   0.00000  Uiso   1.00
H536   H     0.54380   0.09690   0.47915   0.00000  Uiso   1.00
H537   H     0.57180   0.41773   0.39540   0.00000  Uiso   1.00
H538   H     0.69518   0.50513   0.42474   0.00000  Uiso   1.00
H539   H     0.47998   0.47569   0.41190   0.00000  Uiso   1.00
H540   H     0.53629   0.27383   0.33128   0.00000  Uiso   1.00
H541   H     0.83812   0.59977   0.48611   0.00000  Uiso   1.00
H542   H     0.38435   0.53766   0.45902   0.00000  Uiso   1.00
H543   H     0.50310   0.11200   0.28900   0.00000  Uiso   1.00
O544   O     0.94048   0.64941   0.60450   0.00000  Uiso   1.00
O545   O     0.34516   0.56792   0.56895   0.00000  Uiso   1.00
O546   O     0.50095   0.00946   0.34590   0.00000  Uiso   1.00
N547   N     0.85231   0.57621   0.62747   0.00000  Uiso   1.00
N548   N     0.42808   0.51816   0.60214   0.00000  Uiso   1.00
N549   N     0.53907   0.12020   0.44320   0.00000  Uiso   1.00
N550   N     0.83041   0.58434   0.52515   0.00000  Uiso   1.00
N551   N     0.40618   0.52629   0.49983   0.00000  Uiso   1.00
N552   N     0.51717   0.12832   0.34088   0.00000  Uiso   1.00
