data_job_01288
_audit_creation_date              2018-12-19
_audit_creation_method            'Materials Studio'
_symmetry_space_group_name_H-M    'P1'
_symmetry_Int_Tables_number       1
_symmetry_cell_setting            triclinic
loop_
_symmetry_equiv_pos_as_xyz
  x,y,z
_cell_length_a                    26.7711
_cell_length_b                    7.3889
_cell_length_c                    12.5063
_cell_angle_alpha                 90.0000
_cell_angle_beta                  79.5626
_cell_angle_gamma                 90.0000
loop_
_atom_site_label
_atom_site_type_symbol
_atom_site_fract_x
_atom_site_fract_y
_atom_site_fract_z
_atom_site_U_iso_or_equiv
_atom_site_adp_type
_atom_site_occupancy
C1     C     0.87390   0.88455   0.22324   0.00000  Uiso   1.00
C2     C     0.85900   0.74279   0.14615   0.00000  Uiso   1.00
C3     C     0.83309   0.77612   0.06158   0.00000  Uiso   1.00
C4     C     0.82304   0.62817   0.00039   0.00000  Uiso   1.00
C5     C     0.79755   0.43464   0.87728   0.00000  Uiso   1.00
C6     C     0.85075   0.82183   0.33767   0.00000  Uiso   1.00
C7     C     0.81793   0.92165   0.41413   0.00000  Uiso   1.00
C8     C     0.80095   0.84024   0.51417   0.00000  Uiso   1.00
C9     C     0.76269   0.76948   0.68842   0.00000  Uiso   1.00
C10    C     0.93128   0.86835   0.21450   0.00000  Uiso   1.00
C11    C     0.96616   0.00729   0.18743   0.00000  Uiso   1.00
C12    C     0.01698   0.96505   0.18380   0.00000  Uiso   1.00
C13    C     0.10375   0.96652   0.16682   0.00000  Uiso   1.00
C14    C     0.90212   0.56252   0.26496   0.00000  Uiso   1.00
C15    C     0.87432   0.56787   0.16882   0.00000  Uiso   1.00
C16    C     0.86431   0.41982   0.10774   0.00000  Uiso   1.00
C17    C     0.83840   0.45294   0.02309   0.00000  Uiso   1.00
C18    C     0.86608   0.64692   0.36033   0.00000  Uiso   1.00
C19    C     0.84915   0.56535   0.46029   0.00000  Uiso   1.00
C20    C     0.81630   0.66501   0.53688   0.00000  Uiso   1.00
C21    C     0.94661   0.69343   0.23716   0.00000  Uiso   1.00
C22    C     0.99738   0.65098   0.23358   0.00000  Uiso   1.00
C23    C     0.03233   0.78982   0.20651   0.00000  Uiso   1.00
H24    H     0.86197   0.02073   0.20561   0.00000  Uiso   1.00
H25    H     0.82123   0.91151   0.04408   0.00000  Uiso   1.00
H26    H     0.80608   0.05701   0.39658   0.00000  Uiso   1.00
H27    H     0.95429   0.14263   0.16991   0.00000  Uiso   1.00
H28    H     0.78282   0.71326   0.87501   0.00000  Uiso   1.00
H29    H     0.75087   0.02009   0.61828   0.00000  Uiso   1.00
H30    H     0.06341   0.20064   0.14031   0.00000  Uiso   1.00
H31    H     0.91405   0.42633   0.28261   0.00000  Uiso   1.00
H32    H     0.87617   0.28448   0.12529   0.00000  Uiso   1.00
H33    H     0.86102   0.42999   0.47780   0.00000  Uiso   1.00
H34    H     0.00923   0.51561   0.25113   0.00000  Uiso   1.00
H35    H     0.82741   0.20434   0.94093   0.00000  Uiso   1.00
H36    H     0.79546   0.51118   0.68421   0.00000  Uiso   1.00
H37    H     0.10800   0.69172   0.20623   0.00000  Uiso   1.00
O38    O     0.77924   0.37620   0.80312   0.00000  Uiso   1.00
O39    O     0.73734   0.77878   0.77827   0.00000  Uiso   1.00
O40    O     0.14738   0.01564   0.15117   0.00000  Uiso   1.00
N41    N     0.79852   0.61296   0.91210   0.00000  Uiso   1.00
N42    N     0.76865   0.89982   0.60701   0.00000  Uiso   1.00
N43    N     0.06084   0.06863   0.16017   0.00000  Uiso   1.00
N44    N     0.82251   0.33911   0.94757   0.00000  Uiso   1.00
N45    N     0.79264   0.62597   0.64248   0.00000  Uiso   1.00
N46    N     0.08483   0.79478   0.19564   0.00000  Uiso   1.00
C47    C     0.37390   0.38455   0.22324   0.00000  Uiso   1.00
C48    C     0.35900   0.24279   0.14615   0.00000  Uiso   1.00
C49    C     0.33309   0.27612   0.06158   0.00000  Uiso   1.00
C50    C     0.32304   0.12817   0.00039   0.00000  Uiso   1.00
C51    C     0.29755   0.93464   0.87728   0.00000  Uiso   1.00
C52    C     0.35075   0.32183   0.33767   0.00000  Uiso   1.00
C53    C     0.31793   0.42165   0.41413   0.00000  Uiso   1.00
C54    C     0.30095   0.34024   0.51417   0.00000  Uiso   1.00
C55    C     0.26269   0.26948   0.68842   0.00000  Uiso   1.00
C56    C     0.43128   0.36835   0.21450   0.00000  Uiso   1.00
C57    C     0.46616   0.50729   0.18743   0.00000  Uiso   1.00
C58    C     0.51698   0.46505   0.18380   0.00000  Uiso   1.00
C59    C     0.60375   0.46652   0.16682   0.00000  Uiso   1.00
C60    C     0.40212   0.06252   0.26496   0.00000  Uiso   1.00
C61    C     0.37432   0.06787   0.16882   0.00000  Uiso   1.00
C62    C     0.36431   0.91982   0.10774   0.00000  Uiso   1.00
C63    C     0.33840   0.95294   0.02309   0.00000  Uiso   1.00
C64    C     0.36608   0.14692   0.36033   0.00000  Uiso   1.00
C65    C     0.34915   0.06535   0.46029   0.00000  Uiso   1.00
C66    C     0.31630   0.16501   0.53688   0.00000  Uiso   1.00
C67    C     0.44661   0.19343   0.23716   0.00000  Uiso   1.00
C68    C     0.49738   0.15098   0.23358   0.00000  Uiso   1.00
C69    C     0.53233   0.28982   0.20651   0.00000  Uiso   1.00
H70    H     0.36197   0.52073   0.20561   0.00000  Uiso   1.00
H71    H     0.32123   0.41151   0.04408   0.00000  Uiso   1.00
H72    H     0.30608   0.55701   0.39658   0.00000  Uiso   1.00
H73    H     0.45429   0.64263   0.16991   0.00000  Uiso   1.00
H74    H     0.28282   0.21326   0.87501   0.00000  Uiso   1.00
H75    H     0.25087   0.52009   0.61828   0.00000  Uiso   1.00
H76    H     0.56341   0.70064   0.14031   0.00000  Uiso   1.00
H77    H     0.41405   0.92633   0.28261   0.00000  Uiso   1.00
H78    H     0.37617   0.78448   0.12529   0.00000  Uiso   1.00
H79    H     0.36102   0.92999   0.47780   0.00000  Uiso   1.00
H80    H     0.50923   0.01561   0.25113   0.00000  Uiso   1.00
H81    H     0.32741   0.70434   0.94093   0.00000  Uiso   1.00
H82    H     0.29546   0.01118   0.68421   0.00000  Uiso   1.00
H83    H     0.60800   0.19172   0.20623   0.00000  Uiso   1.00
O84    O     0.27924   0.87620   0.80312   0.00000  Uiso   1.00
O85    O     0.23734   0.27878   0.77827   0.00000  Uiso   1.00
O86    O     0.64738   0.51564   0.15117   0.00000  Uiso   1.00
N87    N     0.29852   0.11296   0.91210   0.00000  Uiso   1.00
N88    N     0.26865   0.39982   0.60701   0.00000  Uiso   1.00
N89    N     0.56084   0.56863   0.16017   0.00000  Uiso   1.00
N90    N     0.32251   0.83911   0.94757   0.00000  Uiso   1.00
N91    N     0.29264   0.12597   0.64248   0.00000  Uiso   1.00
N92    N     0.58483   0.29478   0.19564   0.00000  Uiso   1.00
C93    C     0.12610   0.88455   0.77676   0.00000  Uiso   1.00
C94    C     0.14100   0.74279   0.85385   0.00000  Uiso   1.00
C95    C     0.16691   0.77612   0.93842   0.00000  Uiso   1.00
C96    C     0.17696   0.62817   0.99961   0.00000  Uiso   1.00
C97    C     0.20245   0.43464   0.12272   0.00000  Uiso   1.00
C98    C     0.14925   0.82183   0.66233   0.00000  Uiso   1.00
C99    C     0.18207   0.92165   0.58587   0.00000  Uiso   1.00
C100   C     0.19905   0.84024   0.48583   0.00000  Uiso   1.00
C101   C     0.23731   0.76948   0.31158   0.00000  Uiso   1.00
C102   C     0.06872   0.86835   0.78550   0.00000  Uiso   1.00
C103   C     0.03384   0.00729   0.81257   0.00000  Uiso   1.00
C104   C     0.98302   0.96505   0.81620   0.00000  Uiso   1.00
C105   C     0.89625   0.96652   0.83318   0.00000  Uiso   1.00
C106   C     0.09788   0.56252   0.73504   0.00000  Uiso   1.00
C107   C     0.12568   0.56787   0.83118   0.00000  Uiso   1.00
C108   C     0.13569   0.41982   0.89226   0.00000  Uiso   1.00
C109   C     0.16160   0.45294   0.97691   0.00000  Uiso   1.00
C110   C     0.13392   0.64692   0.63967   0.00000  Uiso   1.00
C111   C     0.15085   0.56535   0.53971   0.00000  Uiso   1.00
C112   C     0.18370   0.66501   0.46312   0.00000  Uiso   1.00
C113   C     0.05339   0.69343   0.76284   0.00000  Uiso   1.00
C114   C     0.00262   0.65098   0.76642   0.00000  Uiso   1.00
C115   C     0.96767   0.78982   0.79349   0.00000  Uiso   1.00
H116   H     0.13803   0.02073   0.79439   0.00000  Uiso   1.00
H117   H     0.17877   0.91151   0.95592   0.00000  Uiso   1.00
H118   H     0.19392   0.05701   0.60342   0.00000  Uiso   1.00
H119   H     0.04571   0.14263   0.83009   0.00000  Uiso   1.00
H120   H     0.21718   0.71326   0.12499   0.00000  Uiso   1.00
H121   H     0.24913   0.02009   0.38172   0.00000  Uiso   1.00
H122   H     0.93659   0.20064   0.85969   0.00000  Uiso   1.00
H123   H     0.08595   0.42633   0.71739   0.00000  Uiso   1.00
H124   H     0.12383   0.28448   0.87471   0.00000  Uiso   1.00
H125   H     0.13898   0.42999   0.52220   0.00000  Uiso   1.00
H126   H     0.99077   0.51561   0.74887   0.00000  Uiso   1.00
H127   H     0.17259   0.20434   0.05907   0.00000  Uiso   1.00
H128   H     0.20454   0.51118   0.31579   0.00000  Uiso   1.00
H129   H     0.89200   0.69172   0.79377   0.00000  Uiso   1.00
O130   O     0.22076   0.37620   0.19688   0.00000  Uiso   1.00
O131   O     0.26266   0.77878   0.22173   0.00000  Uiso   1.00
O132   O     0.85262   0.01564   0.84883   0.00000  Uiso   1.00
N133   N     0.20148   0.61296   0.08790   0.00000  Uiso   1.00
N134   N     0.23135   0.89982   0.39299   0.00000  Uiso   1.00
N135   N     0.93916   0.06863   0.83983   0.00000  Uiso   1.00
N136   N     0.17749   0.33911   0.05243   0.00000  Uiso   1.00
N137   N     0.20736   0.62597   0.35752   0.00000  Uiso   1.00
N138   N     0.91517   0.79478   0.80436   0.00000  Uiso   1.00
C139   C     0.62610   0.38455   0.77676   0.00000  Uiso   1.00
C140   C     0.64100   0.24279   0.85385   0.00000  Uiso   1.00
C141   C     0.66691   0.27612   0.93842   0.00000  Uiso   1.00
C142   C     0.67696   0.12817   0.99961   0.00000  Uiso   1.00
C143   C     0.70245   0.93464   0.12272   0.00000  Uiso   1.00
C144   C     0.64925   0.32183   0.66233   0.00000  Uiso   1.00
C145   C     0.68207   0.42165   0.58587   0.00000  Uiso   1.00
C146   C     0.69905   0.34024   0.48583   0.00000  Uiso   1.00
C147   C     0.73731   0.26948   0.31158   0.00000  Uiso   1.00
C148   C     0.56872   0.36835   0.78550   0.00000  Uiso   1.00
C149   C     0.53384   0.50729   0.81257   0.00000  Uiso   1.00
C150   C     0.48302   0.46505   0.81620   0.00000  Uiso   1.00
C151   C     0.39625   0.46652   0.83318   0.00000  Uiso   1.00
C152   C     0.59788   0.06252   0.73504   0.00000  Uiso   1.00
C153   C     0.62568   0.06787   0.83118   0.00000  Uiso   1.00
C154   C     0.63569   0.91982   0.89226   0.00000  Uiso   1.00
C155   C     0.66160   0.95294   0.97691   0.00000  Uiso   1.00
C156   C     0.63392   0.14692   0.63967   0.00000  Uiso   1.00
C157   C     0.65085   0.06535   0.53971   0.00000  Uiso   1.00
C158   C     0.68370   0.16501   0.46312   0.00000  Uiso   1.00
C159   C     0.55339   0.19343   0.76284   0.00000  Uiso   1.00
C160   C     0.50262   0.15098   0.76642   0.00000  Uiso   1.00
C161   C     0.46767   0.28982   0.79349   0.00000  Uiso   1.00
H162   H     0.63803   0.52073   0.79439   0.00000  Uiso   1.00
H163   H     0.67877   0.41151   0.95592   0.00000  Uiso   1.00
H164   H     0.69392   0.55701   0.60342   0.00000  Uiso   1.00
H165   H     0.54571   0.64263   0.83009   0.00000  Uiso   1.00
H166   H     0.71718   0.21326   0.12499   0.00000  Uiso   1.00
H167   H     0.74913   0.52009   0.38172   0.00000  Uiso   1.00
H168   H     0.43659   0.70064   0.85969   0.00000  Uiso   1.00
H169   H     0.58595   0.92633   0.71739   0.00000  Uiso   1.00
H170   H     0.62383   0.78448   0.87471   0.00000  Uiso   1.00
H171   H     0.63898   0.92999   0.52220   0.00000  Uiso   1.00
H172   H     0.49077   0.01561   0.74887   0.00000  Uiso   1.00
H173   H     0.67259   0.70434   0.05907   0.00000  Uiso   1.00
H174   H     0.70454   0.01118   0.31579   0.00000  Uiso   1.00
H175   H     0.39200   0.19172   0.79377   0.00000  Uiso   1.00
O176   O     0.72076   0.87620   0.19688   0.00000  Uiso   1.00
O177   O     0.76266   0.27878   0.22173   0.00000  Uiso   1.00
O178   O     0.35262   0.51564   0.84883   0.00000  Uiso   1.00
N179   N     0.70148   0.11296   0.08790   0.00000  Uiso   1.00
N180   N     0.73135   0.39982   0.39299   0.00000  Uiso   1.00
N181   N     0.43916   0.56863   0.83983   0.00000  Uiso   1.00
N182   N     0.67749   0.83911   0.05243   0.00000  Uiso   1.00
N183   N     0.70736   0.12597   0.35752   0.00000  Uiso   1.00
N184   N     0.41517   0.29478   0.80436   0.00000  Uiso   1.00
