data_job_03896
_audit_creation_date              2018-12-19
_audit_creation_method            'Materials Studio'
_symmetry_space_group_name_H-M    'P1'
_symmetry_Int_Tables_number       1
_symmetry_cell_setting            triclinic
loop_
_symmetry_equiv_pos_as_xyz
  x,y,z
_cell_length_a                    29.8934
_cell_length_b                    7.4334
_cell_length_c                    41.8663
_cell_angle_alpha                 90.0000
_cell_angle_beta                  90.0000
_cell_angle_gamma                 90.0000
loop_
_atom_site_label
_atom_site_type_symbol
_atom_site_fract_x
_atom_site_fract_y
_atom_site_fract_z
_atom_site_U_iso_or_equiv
_atom_site_adp_type
_atom_site_occupancy
C1     C     0.04925   0.05032   0.15685   0.00000  Uiso   1.00
C2     C     0.08336   0.18719   0.16880   0.00000  Uiso   1.00
C3     C     0.12788   0.15181   0.17579   0.00000  Uiso   1.00
C4     C     0.15363   0.29523   0.18643   0.00000  Uiso   1.00
C5     C     0.20935   0.48150   0.20447   0.00000  Uiso   1.00
C6     C     0.01055   0.05568   0.18056   0.00000  Uiso   1.00
C7     C     0.99385   0.90970   0.19744   0.00000  Uiso   1.00
C8     C     0.95831   0.94242   0.21798   0.00000  Uiso   1.00
C9     C     0.90097   0.92448   0.25427   0.00000  Uiso   1.00
C10    C     0.03092   0.12577   0.12561   0.00000  Uiso   1.00
C11    C     0.03133   0.03872   0.09629   0.00000  Uiso   1.00
C12    C     0.01292   0.13045   0.07056   0.00000  Uiso   1.00
C13    C     0.98720   0.22134   0.02152   0.00000  Uiso   1.00
C14    C     0.01582   0.36798   0.16330   0.00000  Uiso   1.00
C15    C     0.06520   0.35973   0.17231   0.00000  Uiso   1.00
C16    C     0.09089   0.50326   0.18294   0.00000  Uiso   1.00
C17    C     0.13544   0.46809   0.18995   0.00000  Uiso   1.00
C18    C     0.99239   0.22821   0.18407   0.00000  Uiso   1.00
C19    C     0.95686   0.26115   0.20459   0.00000  Uiso   1.00
C20    C     0.94011   0.11527   0.22150   0.00000  Uiso   1.00
C21    C     0.01276   0.29832   0.12912   0.00000  Uiso   1.00
C22    C     0.99434   0.39018   0.10343   0.00000  Uiso   1.00
C23    C     0.99472   0.30330   0.07407   0.00000  Uiso   1.00
H24    H     0.06339   0.91599   0.15412   0.00000  Uiso   1.00
H25    H     0.14192   0.01826   0.17308   0.00000  Uiso   1.00
H26    H     0.00791   0.77620   0.19472   0.00000  Uiso   1.00
H27    H     0.04538   0.90521   0.09358   0.00000  Uiso   1.00
H28    H     0.22098   0.20771   0.19566   0.00000  Uiso   1.00
H29    H     0.93840   0.69730   0.24128   0.00000  Uiso   1.00
H30    H     0.01742   0.96934   0.02801   0.00000  Uiso   1.00
H31    H     0.00167   0.50231   0.16604   0.00000  Uiso   1.00
H32    H     0.07683   0.63676   0.18565   0.00000  Uiso   1.00
H33    H     0.94281   0.39469   0.20729   0.00000  Uiso   1.00
H34    H     0.98029   0.52370   0.10615   0.00000  Uiso   1.00
H35    H     0.16814   0.70971   0.20586   0.00000  Uiso   1.00
H36    H     0.88556   0.19929   0.25149   0.00000  Uiso   1.00
H37    H     0.96458   0.47134   0.03822   0.00000  Uiso   1.00
O38    O     0.24511   0.53656   0.21346   0.00000  Uiso   1.00
O39    O     0.87437   0.86691   0.27331   0.00000  Uiso   1.00
O40    O     0.97804   0.22382   0.99350   0.00000  Uiso   1.00
N41    N     0.19823   0.30742   0.19536   0.00000  Uiso   1.00
N42    N     0.93404   0.83021   0.23802   0.00000  Uiso   1.00
N43    N     0.00791   0.08453   0.03863   0.00000  Uiso   1.00
N44    N     0.16980   0.57754   0.20085   0.00000  Uiso   1.00
N45    N     0.90561   0.10033   0.24352   0.00000  Uiso   1.00
N46    N     0.97948   0.35465   0.04412   0.00000  Uiso   1.00
C47    C     0.45075   0.44968   0.65685   0.00000  Uiso   1.00
C48    C     0.41664   0.31281   0.66880   0.00000  Uiso   1.00
C49    C     0.37212   0.34819   0.67579   0.00000  Uiso   1.00
C50    C     0.34637   0.20477   0.68643   0.00000  Uiso   1.00
C51    C     0.29065   0.01850   0.70447   0.00000  Uiso   1.00
C52    C     0.48945   0.44432   0.68056   0.00000  Uiso   1.00
C53    C     0.50615   0.59030   0.69744   0.00000  Uiso   1.00
C54    C     0.54169   0.55758   0.71798   0.00000  Uiso   1.00
C55    C     0.59903   0.57552   0.75427   0.00000  Uiso   1.00
C56    C     0.46908   0.37423   0.62561   0.00000  Uiso   1.00
C57    C     0.46867   0.46128   0.59629   0.00000  Uiso   1.00
C58    C     0.48708   0.36955   0.57056   0.00000  Uiso   1.00
C59    C     0.51280   0.27866   0.52152   0.00000  Uiso   1.00
C60    C     0.48418   0.13202   0.66330   0.00000  Uiso   1.00
C61    C     0.43480   0.14027   0.67231   0.00000  Uiso   1.00
C62    C     0.40911   0.99674   0.68294   0.00000  Uiso   1.00
C63    C     0.36456   0.03191   0.68995   0.00000  Uiso   1.00
C64    C     0.50761   0.27179   0.68407   0.00000  Uiso   1.00
C65    C     0.54314   0.23885   0.70459   0.00000  Uiso   1.00
C66    C     0.55989   0.38473   0.72150   0.00000  Uiso   1.00
C67    C     0.48724   0.20168   0.62912   0.00000  Uiso   1.00
C68    C     0.50566   0.10982   0.60343   0.00000  Uiso   1.00
C69    C     0.50528   0.19670   0.57407   0.00000  Uiso   1.00
H70    H     0.43661   0.58401   0.65412   0.00000  Uiso   1.00
H71    H     0.35808   0.48174   0.67308   0.00000  Uiso   1.00
H72    H     0.49209   0.72380   0.69472   0.00000  Uiso   1.00
H73    H     0.45462   0.59479   0.59358   0.00000  Uiso   1.00
H74    H     0.27902   0.29229   0.69566   0.00000  Uiso   1.00
H75    H     0.56160   0.80270   0.74128   0.00000  Uiso   1.00
H76    H     0.48258   0.53066   0.52801   0.00000  Uiso   1.00
H77    H     0.49833   0.99769   0.66604   0.00000  Uiso   1.00
H78    H     0.42317   0.86324   0.68565   0.00000  Uiso   1.00
H79    H     0.55719   0.10531   0.70729   0.00000  Uiso   1.00
H80    H     0.51971   0.97630   0.60615   0.00000  Uiso   1.00
H81    H     0.33186   0.79029   0.70586   0.00000  Uiso   1.00
H82    H     0.61444   0.30071   0.75149   0.00000  Uiso   1.00
H83    H     0.53542   0.02866   0.53822   0.00000  Uiso   1.00
O84    O     0.25489   0.96344   0.71346   0.00000  Uiso   1.00
O85    O     0.62563   0.63309   0.77331   0.00000  Uiso   1.00
O86    O     0.52196   0.27618   0.49350   0.00000  Uiso   1.00
N87    N     0.30177   0.19258   0.69536   0.00000  Uiso   1.00
N88    N     0.56596   0.66979   0.73802   0.00000  Uiso   1.00
N89    N     0.49209   0.41547   0.53863   0.00000  Uiso   1.00
N90    N     0.33020   0.92246   0.70085   0.00000  Uiso   1.00
N91    N     0.59439   0.39967   0.74352   0.00000  Uiso   1.00
N92    N     0.52052   0.14535   0.54412   0.00000  Uiso   1.00
C93    C     0.95075   0.05032   0.34315   0.00000  Uiso   1.00
C94    C     0.91664   0.18719   0.33120   0.00000  Uiso   1.00
C95    C     0.87212   0.15181   0.32421   0.00000  Uiso   1.00
C96    C     0.84637   0.29523   0.31357   0.00000  Uiso   1.00
C97    C     0.79065   0.48150   0.29553   0.00000  Uiso   1.00
C98    C     0.98945   0.05568   0.31944   0.00000  Uiso   1.00
C99    C     0.00615   0.90970   0.30256   0.00000  Uiso   1.00
C100   C     0.04169   0.94242   0.28202   0.00000  Uiso   1.00
C101   C     0.09903   0.92448   0.24573   0.00000  Uiso   1.00
C102   C     0.96908   0.12577   0.37439   0.00000  Uiso   1.00
C103   C     0.96867   0.03872   0.40371   0.00000  Uiso   1.00
C104   C     0.98708   0.13045   0.42944   0.00000  Uiso   1.00
C105   C     0.01280   0.22134   0.47848   0.00000  Uiso   1.00
C106   C     0.98418   0.36798   0.33670   0.00000  Uiso   1.00
C107   C     0.93480   0.35973   0.32769   0.00000  Uiso   1.00
C108   C     0.90911   0.50326   0.31706   0.00000  Uiso   1.00
C109   C     0.86456   0.46809   0.31005   0.00000  Uiso   1.00
C110   C     0.00761   0.22821   0.31593   0.00000  Uiso   1.00
C111   C     0.04314   0.26115   0.29541   0.00000  Uiso   1.00
C112   C     0.05989   0.11527   0.27850   0.00000  Uiso   1.00
C113   C     0.98724   0.29832   0.37088   0.00000  Uiso   1.00
C114   C     0.00566   0.39018   0.39657   0.00000  Uiso   1.00
C115   C     0.00528   0.30330   0.42593   0.00000  Uiso   1.00
H116   H     0.93661   0.91599   0.34588   0.00000  Uiso   1.00
H117   H     0.85808   0.01826   0.32692   0.00000  Uiso   1.00
H118   H     0.99209   0.77620   0.30528   0.00000  Uiso   1.00
H119   H     0.95462   0.90521   0.40642   0.00000  Uiso   1.00
H120   H     0.77902   0.20771   0.30434   0.00000  Uiso   1.00
H121   H     0.06160   0.69730   0.25872   0.00000  Uiso   1.00
H122   H     0.98258   0.96934   0.47199   0.00000  Uiso   1.00
H123   H     0.99833   0.50231   0.33396   0.00000  Uiso   1.00
H124   H     0.92317   0.63676   0.31435   0.00000  Uiso   1.00
H125   H     0.05719   0.39469   0.29271   0.00000  Uiso   1.00
H126   H     0.01971   0.52370   0.39385   0.00000  Uiso   1.00
H127   H     0.83186   0.70971   0.29414   0.00000  Uiso   1.00
H128   H     0.11444   0.19929   0.24851   0.00000  Uiso   1.00
H129   H     0.03542   0.47134   0.46178   0.00000  Uiso   1.00
O130   O     0.75489   0.53656   0.28654   0.00000  Uiso   1.00
O131   O     0.12563   0.86691   0.22669   0.00000  Uiso   1.00
O132   O     0.02196   0.22382   0.50650   0.00000  Uiso   1.00
N133   N     0.80177   0.30742   0.30464   0.00000  Uiso   1.00
N134   N     0.06596   0.83021   0.26198   0.00000  Uiso   1.00
N135   N     0.99209   0.08453   0.46137   0.00000  Uiso   1.00
N136   N     0.83020   0.57754   0.29915   0.00000  Uiso   1.00
N137   N     0.09439   0.10033   0.25648   0.00000  Uiso   1.00
N138   N     0.02052   0.35465   0.45588   0.00000  Uiso   1.00
C139   C     0.54925   0.44968   0.84315   0.00000  Uiso   1.00
C140   C     0.58336   0.31281   0.83120   0.00000  Uiso   1.00
C141   C     0.62788   0.34819   0.82421   0.00000  Uiso   1.00
C142   C     0.65363   0.20477   0.81357   0.00000  Uiso   1.00
C143   C     0.70935   0.01850   0.79553   0.00000  Uiso   1.00
C144   C     0.51055   0.44432   0.81944   0.00000  Uiso   1.00
C145   C     0.49385   0.59030   0.80256   0.00000  Uiso   1.00
C146   C     0.45831   0.55758   0.78202   0.00000  Uiso   1.00
C147   C     0.40097   0.57552   0.74573   0.00000  Uiso   1.00
C148   C     0.53092   0.37423   0.87439   0.00000  Uiso   1.00
C149   C     0.53133   0.46128   0.90371   0.00000  Uiso   1.00
C150   C     0.51292   0.36955   0.92944   0.00000  Uiso   1.00
C151   C     0.48720   0.27866   0.97848   0.00000  Uiso   1.00
C152   C     0.51582   0.13202   0.83670   0.00000  Uiso   1.00
C153   C     0.56520   0.14027   0.82769   0.00000  Uiso   1.00
C154   C     0.59089   0.99674   0.81706   0.00000  Uiso   1.00
C155   C     0.63544   0.03191   0.81005   0.00000  Uiso   1.00
C156   C     0.49239   0.27179   0.81593   0.00000  Uiso   1.00
C157   C     0.45686   0.23885   0.79541   0.00000  Uiso   1.00
C158   C     0.44011   0.38473   0.77850   0.00000  Uiso   1.00
C159   C     0.51276   0.20168   0.87088   0.00000  Uiso   1.00
C160   C     0.49434   0.10982   0.89657   0.00000  Uiso   1.00
C161   C     0.49472   0.19670   0.92593   0.00000  Uiso   1.00
H162   H     0.56339   0.58401   0.84588   0.00000  Uiso   1.00
H163   H     0.64192   0.48174   0.82692   0.00000  Uiso   1.00
H164   H     0.50791   0.72380   0.80528   0.00000  Uiso   1.00
H165   H     0.54538   0.59479   0.90642   0.00000  Uiso   1.00
H166   H     0.72098   0.29229   0.80434   0.00000  Uiso   1.00
H167   H     0.43840   0.80270   0.75872   0.00000  Uiso   1.00
H168   H     0.51742   0.53066   0.97199   0.00000  Uiso   1.00
H169   H     0.50167   0.99769   0.83396   0.00000  Uiso   1.00
H170   H     0.57683   0.86324   0.81435   0.00000  Uiso   1.00
H171   H     0.44281   0.10531   0.79271   0.00000  Uiso   1.00
H172   H     0.48029   0.97630   0.89385   0.00000  Uiso   1.00
H173   H     0.66814   0.79029   0.79414   0.00000  Uiso   1.00
H174   H     0.38556   0.30071   0.74851   0.00000  Uiso   1.00
H175   H     0.46458   0.02866   0.96178   0.00000  Uiso   1.00
O176   O     0.74511   0.96344   0.78654   0.00000  Uiso   1.00
O177   O     0.37437   0.63309   0.72669   0.00000  Uiso   1.00
O178   O     0.47804   0.27618   0.00650   0.00000  Uiso   1.00
N179   N     0.69823   0.19258   0.80464   0.00000  Uiso   1.00
N180   N     0.43404   0.66979   0.76198   0.00000  Uiso   1.00
N181   N     0.50791   0.41547   0.96137   0.00000  Uiso   1.00
N182   N     0.66980   0.92246   0.79915   0.00000  Uiso   1.00
N183   N     0.40561   0.39967   0.75648   0.00000  Uiso   1.00
N184   N     0.47948   0.14535   0.95588   0.00000  Uiso   1.00
C185   C     0.95075   0.94968   0.84315   0.00000  Uiso   1.00
C186   C     0.91664   0.81281   0.83120   0.00000  Uiso   1.00
C187   C     0.87212   0.84819   0.82421   0.00000  Uiso   1.00
C188   C     0.84637   0.70477   0.81357   0.00000  Uiso   1.00
C189   C     0.79065   0.51850   0.79553   0.00000  Uiso   1.00
C190   C     0.98945   0.94432   0.81944   0.00000  Uiso   1.00
C191   C     0.00615   0.09030   0.80256   0.00000  Uiso   1.00
C192   C     0.04169   0.05758   0.78202   0.00000  Uiso   1.00
C193   C     0.09903   0.07552   0.74573   0.00000  Uiso   1.00
C194   C     0.96908   0.87423   0.87439   0.00000  Uiso   1.00
C195   C     0.96867   0.96128   0.90371   0.00000  Uiso   1.00
C196   C     0.98708   0.86955   0.92944   0.00000  Uiso   1.00
C197   C     0.01280   0.77866   0.97848   0.00000  Uiso   1.00
C198   C     0.98418   0.63202   0.83670   0.00000  Uiso   1.00
C199   C     0.93480   0.64027   0.82769   0.00000  Uiso   1.00
C200   C     0.90911   0.49674   0.81706   0.00000  Uiso   1.00
C201   C     0.86456   0.53191   0.81005   0.00000  Uiso   1.00
C202   C     0.00761   0.77179   0.81593   0.00000  Uiso   1.00
C203   C     0.04314   0.73885   0.79541   0.00000  Uiso   1.00
C204   C     0.05989   0.88473   0.77850   0.00000  Uiso   1.00
C205   C     0.98724   0.70168   0.87088   0.00000  Uiso   1.00
C206   C     0.00566   0.60982   0.89657   0.00000  Uiso   1.00
C207   C     0.00528   0.69670   0.92593   0.00000  Uiso   1.00
H208   H     0.93661   0.08401   0.84588   0.00000  Uiso   1.00
H209   H     0.85808   0.98174   0.82692   0.00000  Uiso   1.00
H210   H     0.99209   0.22380   0.80528   0.00000  Uiso   1.00
H211   H     0.95462   0.09479   0.90642   0.00000  Uiso   1.00
H212   H     0.77902   0.79229   0.80434   0.00000  Uiso   1.00
H213   H     0.06160   0.30270   0.75872   0.00000  Uiso   1.00
H214   H     0.98258   0.03066   0.97199   0.00000  Uiso   1.00
H215   H     0.99833   0.49769   0.83396   0.00000  Uiso   1.00
H216   H     0.92317   0.36324   0.81435   0.00000  Uiso   1.00
H217   H     0.05719   0.60531   0.79271   0.00000  Uiso   1.00
H218   H     0.01971   0.47630   0.89385   0.00000  Uiso   1.00
H219   H     0.83186   0.29029   0.79414   0.00000  Uiso   1.00
H220   H     0.11444   0.80071   0.74851   0.00000  Uiso   1.00
H221   H     0.03542   0.52866   0.96178   0.00000  Uiso   1.00
O222   O     0.75489   0.46344   0.78654   0.00000  Uiso   1.00
O223   O     0.12563   0.13309   0.72669   0.00000  Uiso   1.00
O224   O     0.02196   0.77618   0.00650   0.00000  Uiso   1.00
N225   N     0.80177   0.69258   0.80464   0.00000  Uiso   1.00
N226   N     0.06596   0.16979   0.76198   0.00000  Uiso   1.00
N227   N     0.99209   0.91547   0.96137   0.00000  Uiso   1.00
N228   N     0.83020   0.42246   0.79915   0.00000  Uiso   1.00
N229   N     0.09439   0.89967   0.75648   0.00000  Uiso   1.00
N230   N     0.02052   0.64535   0.95588   0.00000  Uiso   1.00
C231   C     0.54925   0.55032   0.34315   0.00000  Uiso   1.00
C232   C     0.58336   0.68719   0.33120   0.00000  Uiso   1.00
C233   C     0.62788   0.65181   0.32421   0.00000  Uiso   1.00
C234   C     0.65363   0.79523   0.31357   0.00000  Uiso   1.00
C235   C     0.70935   0.98150   0.29553   0.00000  Uiso   1.00
C236   C     0.51055   0.55568   0.31944   0.00000  Uiso   1.00
C237   C     0.49385   0.40970   0.30256   0.00000  Uiso   1.00
C238   C     0.45831   0.44242   0.28202   0.00000  Uiso   1.00
C239   C     0.40097   0.42448   0.24573   0.00000  Uiso   1.00
C240   C     0.53092   0.62577   0.37439   0.00000  Uiso   1.00
C241   C     0.53133   0.53872   0.40371   0.00000  Uiso   1.00
C242   C     0.51292   0.63045   0.42944   0.00000  Uiso   1.00
C243   C     0.48720   0.72134   0.47848   0.00000  Uiso   1.00
C244   C     0.51582   0.86798   0.33670   0.00000  Uiso   1.00
C245   C     0.56520   0.85973   0.32769   0.00000  Uiso   1.00
C246   C     0.59089   0.00326   0.31706   0.00000  Uiso   1.00
C247   C     0.63544   0.96809   0.31005   0.00000  Uiso   1.00
C248   C     0.49239   0.72821   0.31593   0.00000  Uiso   1.00
C249   C     0.45686   0.76115   0.29541   0.00000  Uiso   1.00
C250   C     0.44011   0.61527   0.27850   0.00000  Uiso   1.00
C251   C     0.51276   0.79832   0.37088   0.00000  Uiso   1.00
C252   C     0.49434   0.89018   0.39657   0.00000  Uiso   1.00
C253   C     0.49472   0.80330   0.42593   0.00000  Uiso   1.00
H254   H     0.56339   0.41599   0.34588   0.00000  Uiso   1.00
H255   H     0.64192   0.51826   0.32692   0.00000  Uiso   1.00
H256   H     0.50791   0.27620   0.30528   0.00000  Uiso   1.00
H257   H     0.54538   0.40521   0.40642   0.00000  Uiso   1.00
H258   H     0.72098   0.70771   0.30434   0.00000  Uiso   1.00
H259   H     0.43840   0.19730   0.25872   0.00000  Uiso   1.00
H260   H     0.51742   0.46934   0.47199   0.00000  Uiso   1.00
H261   H     0.50167   0.00231   0.33396   0.00000  Uiso   1.00
H262   H     0.57683   0.13676   0.31435   0.00000  Uiso   1.00
H263   H     0.44281   0.89469   0.29271   0.00000  Uiso   1.00
H264   H     0.48029   0.02370   0.39385   0.00000  Uiso   1.00
H265   H     0.66814   0.20971   0.29414   0.00000  Uiso   1.00
H266   H     0.38556   0.69929   0.24851   0.00000  Uiso   1.00
H267   H     0.46458   0.97134   0.46178   0.00000  Uiso   1.00
O268   O     0.74511   0.03656   0.28654   0.00000  Uiso   1.00
O269   O     0.37437   0.36691   0.22669   0.00000  Uiso   1.00
O270   O     0.47804   0.72382   0.50650   0.00000  Uiso   1.00
N271   N     0.69823   0.80742   0.30464   0.00000  Uiso   1.00
N272   N     0.43404   0.33021   0.26198   0.00000  Uiso   1.00
N273   N     0.50791   0.58453   0.46137   0.00000  Uiso   1.00
N274   N     0.66980   0.07754   0.29915   0.00000  Uiso   1.00
N275   N     0.40561   0.60033   0.25648   0.00000  Uiso   1.00
N276   N     0.47948   0.85465   0.45588   0.00000  Uiso   1.00
C277   C     0.04925   0.94968   0.65685   0.00000  Uiso   1.00
C278   C     0.08336   0.81281   0.66880   0.00000  Uiso   1.00
C279   C     0.12788   0.84819   0.67579   0.00000  Uiso   1.00
C280   C     0.15363   0.70477   0.68643   0.00000  Uiso   1.00
C281   C     0.20935   0.51850   0.70447   0.00000  Uiso   1.00
C282   C     0.01055   0.94432   0.68056   0.00000  Uiso   1.00
C283   C     0.99385   0.09030   0.69744   0.00000  Uiso   1.00
C284   C     0.95831   0.05758   0.71798   0.00000  Uiso   1.00
C285   C     0.90097   0.07552   0.75427   0.00000  Uiso   1.00
C286   C     0.03092   0.87423   0.62561   0.00000  Uiso   1.00
C287   C     0.03133   0.96128   0.59629   0.00000  Uiso   1.00
C288   C     0.01292   0.86955   0.57056   0.00000  Uiso   1.00
C289   C     0.98720   0.77866   0.52152   0.00000  Uiso   1.00
C290   C     0.01582   0.63202   0.66330   0.00000  Uiso   1.00
C291   C     0.06520   0.64027   0.67231   0.00000  Uiso   1.00
C292   C     0.09089   0.49674   0.68294   0.00000  Uiso   1.00
C293   C     0.13544   0.53191   0.68995   0.00000  Uiso   1.00
C294   C     0.99239   0.77179   0.68407   0.00000  Uiso   1.00
C295   C     0.95686   0.73885   0.70459   0.00000  Uiso   1.00
C296   C     0.94011   0.88473   0.72150   0.00000  Uiso   1.00
C297   C     0.01276   0.70168   0.62912   0.00000  Uiso   1.00
C298   C     0.99434   0.60982   0.60343   0.00000  Uiso   1.00
C299   C     0.99472   0.69670   0.57407   0.00000  Uiso   1.00
H300   H     0.06339   0.08401   0.65412   0.00000  Uiso   1.00
H301   H     0.14192   0.98174   0.67308   0.00000  Uiso   1.00
H302   H     0.00791   0.22380   0.69472   0.00000  Uiso   1.00
H303   H     0.04538   0.09479   0.59358   0.00000  Uiso   1.00
H304   H     0.22098   0.79229   0.69566   0.00000  Uiso   1.00
H305   H     0.93840   0.30270   0.74128   0.00000  Uiso   1.00
H306   H     0.01742   0.03066   0.52801   0.00000  Uiso   1.00
H307   H     0.00167   0.49769   0.66604   0.00000  Uiso   1.00
H308   H     0.07683   0.36324   0.68565   0.00000  Uiso   1.00
H309   H     0.94281   0.60531   0.70729   0.00000  Uiso   1.00
H310   H     0.98029   0.47630   0.60615   0.00000  Uiso   1.00
H311   H     0.16814   0.29029   0.70586   0.00000  Uiso   1.00
H312   H     0.88556   0.80071   0.75149   0.00000  Uiso   1.00
H313   H     0.96458   0.52866   0.53822   0.00000  Uiso   1.00
O314   O     0.24511   0.46344   0.71346   0.00000  Uiso   1.00
O315   O     0.87437   0.13309   0.77331   0.00000  Uiso   1.00
O316   O     0.97804   0.77618   0.49350   0.00000  Uiso   1.00
N317   N     0.19823   0.69258   0.69536   0.00000  Uiso   1.00
N318   N     0.93404   0.16979   0.73802   0.00000  Uiso   1.00
N319   N     0.00791   0.91547   0.53863   0.00000  Uiso   1.00
N320   N     0.16980   0.42246   0.70085   0.00000  Uiso   1.00
N321   N     0.90561   0.89967   0.74352   0.00000  Uiso   1.00
N322   N     0.97948   0.64535   0.54412   0.00000  Uiso   1.00
C323   C     0.45075   0.55032   0.15685   0.00000  Uiso   1.00
C324   C     0.41664   0.68719   0.16880   0.00000  Uiso   1.00
C325   C     0.37212   0.65181   0.17579   0.00000  Uiso   1.00
C326   C     0.34637   0.79523   0.18643   0.00000  Uiso   1.00
C327   C     0.29065   0.98150   0.20447   0.00000  Uiso   1.00
C328   C     0.48945   0.55568   0.18056   0.00000  Uiso   1.00
C329   C     0.50615   0.40970   0.19744   0.00000  Uiso   1.00
C330   C     0.54169   0.44242   0.21798   0.00000  Uiso   1.00
C331   C     0.59903   0.42448   0.25427   0.00000  Uiso   1.00
C332   C     0.46908   0.62577   0.12561   0.00000  Uiso   1.00
C333   C     0.46867   0.53872   0.09629   0.00000  Uiso   1.00
C334   C     0.48708   0.63045   0.07056   0.00000  Uiso   1.00
C335   C     0.51280   0.72134   0.02152   0.00000  Uiso   1.00
C336   C     0.48418   0.86798   0.16330   0.00000  Uiso   1.00
C337   C     0.43480   0.85973   0.17231   0.00000  Uiso   1.00
C338   C     0.40911   0.00326   0.18294   0.00000  Uiso   1.00
C339   C     0.36456   0.96809   0.18995   0.00000  Uiso   1.00
C340   C     0.50761   0.72821   0.18407   0.00000  Uiso   1.00
C341   C     0.54314   0.76115   0.20459   0.00000  Uiso   1.00
C342   C     0.55989   0.61527   0.22150   0.00000  Uiso   1.00
C343   C     0.48724   0.79832   0.12912   0.00000  Uiso   1.00
C344   C     0.50566   0.89018   0.10343   0.00000  Uiso   1.00
C345   C     0.50528   0.80330   0.07407   0.00000  Uiso   1.00
H346   H     0.43661   0.41599   0.15412   0.00000  Uiso   1.00
H347   H     0.35808   0.51826   0.17308   0.00000  Uiso   1.00
H348   H     0.49209   0.27620   0.19472   0.00000  Uiso   1.00
H349   H     0.45462   0.40521   0.09358   0.00000  Uiso   1.00
H350   H     0.27902   0.70771   0.19566   0.00000  Uiso   1.00
H351   H     0.56160   0.19730   0.24128   0.00000  Uiso   1.00
H352   H     0.48258   0.46934   0.02801   0.00000  Uiso   1.00
H353   H     0.49833   0.00231   0.16604   0.00000  Uiso   1.00
H354   H     0.42317   0.13676   0.18565   0.00000  Uiso   1.00
H355   H     0.55719   0.89469   0.20729   0.00000  Uiso   1.00
H356   H     0.51971   0.02370   0.10615   0.00000  Uiso   1.00
H357   H     0.33186   0.20971   0.20586   0.00000  Uiso   1.00
H358   H     0.61444   0.69929   0.25149   0.00000  Uiso   1.00
H359   H     0.53542   0.97134   0.03822   0.00000  Uiso   1.00
O360   O     0.25489   0.03656   0.21346   0.00000  Uiso   1.00
O361   O     0.62563   0.36691   0.27331   0.00000  Uiso   1.00
O362   O     0.52196   0.72382   0.99350   0.00000  Uiso   1.00
N363   N     0.30177   0.80742   0.19536   0.00000  Uiso   1.00
N364   N     0.56596   0.33021   0.23802   0.00000  Uiso   1.00
N365   N     0.49209   0.58453   0.03863   0.00000  Uiso   1.00
N366   N     0.33020   0.07754   0.20085   0.00000  Uiso   1.00
N367   N     0.59439   0.60033   0.24352   0.00000  Uiso   1.00
N368   N     0.52052   0.85465   0.04412   0.00000  Uiso   1.00
