data_job_01830
_audit_creation_date              2018-12-19
_audit_creation_method            'Materials Studio'
_symmetry_space_group_name_H-M    'P1'
_symmetry_Int_Tables_number       1
_symmetry_cell_setting            triclinic
loop_
_symmetry_equiv_pos_as_xyz
  x,y,z
_cell_length_a                    22.8790
_cell_length_b                    13.5923
_cell_length_c                    16.7847
_cell_angle_alpha                 90.0000
_cell_angle_beta                  90.0000
_cell_angle_gamma                 90.0000
loop_
_atom_site_label
_atom_site_type_symbol
_atom_site_fract_x
_atom_site_fract_y
_atom_site_fract_z
_atom_site_U_iso_or_equiv
_atom_site_adp_type
_atom_site_occupancy
C1     C     0.90648   0.18501   0.10899   0.00000  Uiso   1.00
C2     C     0.88406   0.10335   0.05470   0.00000  Uiso   1.00
C3     C     0.89262   0.00325   0.06606   0.00000  Uiso   1.00
C4     C     0.86862   0.94040   0.00966   0.00000  Uiso   1.00
C5     C     0.83861   0.80812   0.93529   0.00000  Uiso   1.00
C6     C     0.94284   0.25279   0.05622   0.00000  Uiso   1.00
C7     C     0.00084   0.27834   0.06886   0.00000  Uiso   1.00
C8     C     0.02632   0.34130   0.01375   0.00000  Uiso   1.00
C9     C     0.08757   0.44108   0.94177   0.00000  Uiso   1.00
C10    C     0.85288   0.24439   0.13357   0.00000  Uiso   1.00
C11    C     0.83523   0.26290   0.21124   0.00000  Uiso   1.00
C12    C     0.78497   0.31880   0.22124   0.00000  Uiso   1.00
C13    C     0.70653   0.40553   0.26935   0.00000  Uiso   1.00
C14    C     0.84861   0.25139   0.98864   0.00000  Uiso   1.00
C15    C     0.85262   0.13941   0.98933   0.00000  Uiso   1.00
C16    C     0.82860   0.07669   0.93290   0.00000  Uiso   1.00
C17    C     0.83713   0.97651   0.94418   0.00000  Uiso   1.00
C18    C     0.91141   0.28884   0.99085   0.00000  Uiso   1.00
C19    C     0.93681   0.35178   0.93571   0.00000  Uiso   1.00
C20    C     0.99483   0.37741   0.94826   0.00000  Uiso   1.00
C21    C     0.82144   0.28044   0.06820   0.00000  Uiso   1.00
C22    C     0.77120   0.33633   0.07808   0.00000  Uiso   1.00
C23    C     0.75348   0.35492   0.15576   0.00000  Uiso   1.00
H24    H     0.93095   0.15695   0.15988   0.00000  Uiso   1.00
H25    H     0.91696   0.97538   0.11665   0.00000  Uiso   1.00
H26    H     0.02515   0.25044   0.11946   0.00000  Uiso   1.00
H27    H     0.85957   0.23499   0.26181   0.00000  Uiso   1.00
H28    H     0.88760   0.78998   0.03988   0.00000  Uiso   1.00
H29    H     0.11572   0.36998   0.04582   0.00000  Uiso   1.00
H30    H     0.76656   0.33741   0.34600   0.00000  Uiso   1.00
H31    H     0.82413   0.27946   0.93774   0.00000  Uiso   1.00
H32    H     0.80427   0.10461   0.88232   0.00000  Uiso   1.00
H33    H     0.91247   0.37967   0.88513   0.00000  Uiso   1.00
H34    H     0.74689   0.36422   0.02748   0.00000  Uiso   1.00
H35    H     0.79614   0.89487   0.84969   0.00000  Uiso   1.00
H36    H     0.02427   0.47487   0.85563   0.00000  Uiso   1.00
H37    H     0.67511   0.44230   0.15580   0.00000  Uiso   1.00
O38    O     0.83075   0.72520   0.91232   0.00000  Uiso   1.00
O39    O     0.13004   0.48614   0.92012   0.00000  Uiso   1.00
O40    O     0.67195   0.44340   0.31395   0.00000  Uiso   1.00
N41    N     0.86879   0.83866   0.00273   0.00000  Uiso   1.00
N42    N     0.08208   0.38091   0.00828   0.00000  Uiso   1.00
N43    N     0.75565   0.35048   0.28892   0.00000  Uiso   1.00
N44    N     0.81958   0.89510   0.90039   0.00000  Uiso   1.00
N45    N     0.03286   0.43735   0.90594   0.00000  Uiso   1.00
N46    N     0.70644   0.40692   0.18658   0.00000  Uiso   1.00
C47    C     0.59352   0.81499   0.10899   0.00000  Uiso   1.00
C48    C     0.61594   0.89665   0.05470   0.00000  Uiso   1.00
C49    C     0.60738   0.99675   0.06606   0.00000  Uiso   1.00
C50    C     0.63138   0.05960   0.00966   0.00000  Uiso   1.00
C51    C     0.66139   0.19188   0.93529   0.00000  Uiso   1.00
C52    C     0.55716   0.74721   0.05622   0.00000  Uiso   1.00
C53    C     0.49916   0.72166   0.06886   0.00000  Uiso   1.00
C54    C     0.47368   0.65870   0.01375   0.00000  Uiso   1.00
C55    C     0.41243   0.55892   0.94177   0.00000  Uiso   1.00
C56    C     0.64712   0.75561   0.13357   0.00000  Uiso   1.00
C57    C     0.66477   0.73710   0.21124   0.00000  Uiso   1.00
C58    C     0.71503   0.68120   0.22124   0.00000  Uiso   1.00
C59    C     0.79347   0.59447   0.26935   0.00000  Uiso   1.00
C60    C     0.65139   0.74861   0.98864   0.00000  Uiso   1.00
C61    C     0.64738   0.86059   0.98933   0.00000  Uiso   1.00
C62    C     0.67140   0.92331   0.93290   0.00000  Uiso   1.00
C63    C     0.66287   0.02349   0.94418   0.00000  Uiso   1.00
C64    C     0.58859   0.71116   0.99085   0.00000  Uiso   1.00
C65    C     0.56319   0.64822   0.93571   0.00000  Uiso   1.00
C66    C     0.50517   0.62259   0.94826   0.00000  Uiso   1.00
C67    C     0.67856   0.71956   0.06820   0.00000  Uiso   1.00
C68    C     0.72880   0.66367   0.07808   0.00000  Uiso   1.00
C69    C     0.74652   0.64508   0.15576   0.00000  Uiso   1.00
H70    H     0.56905   0.84305   0.15988   0.00000  Uiso   1.00
H71    H     0.58304   0.02462   0.11665   0.00000  Uiso   1.00
H72    H     0.47485   0.74956   0.11946   0.00000  Uiso   1.00
H73    H     0.64043   0.76501   0.26181   0.00000  Uiso   1.00
H74    H     0.61240   0.21002   0.03988   0.00000  Uiso   1.00
H75    H     0.38428   0.63002   0.04582   0.00000  Uiso   1.00
H76    H     0.73344   0.66259   0.34600   0.00000  Uiso   1.00
H77    H     0.67587   0.72054   0.93774   0.00000  Uiso   1.00
H78    H     0.69573   0.89539   0.88232   0.00000  Uiso   1.00
H79    H     0.58753   0.62033   0.88513   0.00000  Uiso   1.00
H80    H     0.75311   0.63578   0.02748   0.00000  Uiso   1.00
H81    H     0.70386   0.10513   0.84969   0.00000  Uiso   1.00
H82    H     0.47573   0.52513   0.85563   0.00000  Uiso   1.00
H83    H     0.82489   0.55770   0.15580   0.00000  Uiso   1.00
O84    O     0.66925   0.27480   0.91232   0.00000  Uiso   1.00
O85    O     0.36996   0.51386   0.92012   0.00000  Uiso   1.00
O86    O     0.82805   0.55660   0.31395   0.00000  Uiso   1.00
N87    N     0.63121   0.16134   0.00273   0.00000  Uiso   1.00
N88    N     0.41792   0.61909   0.00828   0.00000  Uiso   1.00
N89    N     0.74435   0.64952   0.28892   0.00000  Uiso   1.00
N90    N     0.68042   0.10490   0.90039   0.00000  Uiso   1.00
N91    N     0.46714   0.56265   0.90594   0.00000  Uiso   1.00
N92    N     0.79356   0.59308   0.18658   0.00000  Uiso   1.00
C93    C     0.09352   0.18501   0.39101   0.00000  Uiso   1.00
C94    C     0.11594   0.10335   0.44530   0.00000  Uiso   1.00
C95    C     0.10738   0.00325   0.43394   0.00000  Uiso   1.00
C96    C     0.13138   0.94040   0.49034   0.00000  Uiso   1.00
C97    C     0.16139   0.80812   0.56471   0.00000  Uiso   1.00
C98    C     0.05716   0.25279   0.44378   0.00000  Uiso   1.00
C99    C     0.99916   0.27834   0.43114   0.00000  Uiso   1.00
C100   C     0.97368   0.34130   0.48625   0.00000  Uiso   1.00
C101   C     0.91243   0.44108   0.55823   0.00000  Uiso   1.00
C102   C     0.14712   0.24439   0.36643   0.00000  Uiso   1.00
C103   C     0.16477   0.26290   0.28876   0.00000  Uiso   1.00
C104   C     0.21503   0.31880   0.27876   0.00000  Uiso   1.00
C105   C     0.29347   0.40553   0.23065   0.00000  Uiso   1.00
C106   C     0.15139   0.25139   0.51136   0.00000  Uiso   1.00
C107   C     0.14738   0.13941   0.51067   0.00000  Uiso   1.00
C108   C     0.17140   0.07669   0.56710   0.00000  Uiso   1.00
C109   C     0.16287   0.97651   0.55582   0.00000  Uiso   1.00
C110   C     0.08859   0.28884   0.50915   0.00000  Uiso   1.00
C111   C     0.06319   0.35178   0.56429   0.00000  Uiso   1.00
C112   C     0.00517   0.37741   0.55174   0.00000  Uiso   1.00
C113   C     0.17856   0.28044   0.43180   0.00000  Uiso   1.00
C114   C     0.22880   0.33633   0.42192   0.00000  Uiso   1.00
C115   C     0.24652   0.35492   0.34424   0.00000  Uiso   1.00
H116   H     0.06905   0.15695   0.34012   0.00000  Uiso   1.00
H117   H     0.08304   0.97538   0.38335   0.00000  Uiso   1.00
H118   H     0.97485   0.25044   0.38054   0.00000  Uiso   1.00
H119   H     0.14043   0.23499   0.23819   0.00000  Uiso   1.00
H120   H     0.11240   0.78998   0.46012   0.00000  Uiso   1.00
H121   H     0.88428   0.36998   0.45418   0.00000  Uiso   1.00
H122   H     0.23344   0.33741   0.15400   0.00000  Uiso   1.00
H123   H     0.17587   0.27946   0.56226   0.00000  Uiso   1.00
H124   H     0.19573   0.10461   0.61768   0.00000  Uiso   1.00
H125   H     0.08753   0.37967   0.61487   0.00000  Uiso   1.00
H126   H     0.25311   0.36422   0.47252   0.00000  Uiso   1.00
H127   H     0.20386   0.89487   0.65031   0.00000  Uiso   1.00
H128   H     0.97573   0.47487   0.64437   0.00000  Uiso   1.00
H129   H     0.32489   0.44230   0.34420   0.00000  Uiso   1.00
O130   O     0.16925   0.72520   0.58768   0.00000  Uiso   1.00
O131   O     0.86996   0.48614   0.57988   0.00000  Uiso   1.00
O132   O     0.32805   0.44340   0.18605   0.00000  Uiso   1.00
N133   N     0.13121   0.83866   0.49727   0.00000  Uiso   1.00
N134   N     0.91792   0.38091   0.49172   0.00000  Uiso   1.00
N135   N     0.24435   0.35048   0.21108   0.00000  Uiso   1.00
N136   N     0.18042   0.89510   0.59961   0.00000  Uiso   1.00
N137   N     0.96714   0.43735   0.59406   0.00000  Uiso   1.00
N138   N     0.29356   0.40692   0.31342   0.00000  Uiso   1.00
C139   C     0.40648   0.81499   0.39101   0.00000  Uiso   1.00
C140   C     0.38406   0.89665   0.44530   0.00000  Uiso   1.00
C141   C     0.39262   0.99675   0.43394   0.00000  Uiso   1.00
C142   C     0.36862   0.05960   0.49034   0.00000  Uiso   1.00
C143   C     0.33861   0.19188   0.56471   0.00000  Uiso   1.00
C144   C     0.44284   0.74721   0.44378   0.00000  Uiso   1.00
C145   C     0.50084   0.72166   0.43114   0.00000  Uiso   1.00
C146   C     0.52632   0.65870   0.48625   0.00000  Uiso   1.00
C147   C     0.58757   0.55892   0.55823   0.00000  Uiso   1.00
C148   C     0.35288   0.75561   0.36643   0.00000  Uiso   1.00
C149   C     0.33523   0.73710   0.28876   0.00000  Uiso   1.00
C150   C     0.28497   0.68120   0.27876   0.00000  Uiso   1.00
C151   C     0.20653   0.59447   0.23065   0.00000  Uiso   1.00
C152   C     0.34861   0.74861   0.51136   0.00000  Uiso   1.00
C153   C     0.35262   0.86059   0.51067   0.00000  Uiso   1.00
C154   C     0.32860   0.92331   0.56710   0.00000  Uiso   1.00
C155   C     0.33713   0.02349   0.55582   0.00000  Uiso   1.00
C156   C     0.41141   0.71116   0.50915   0.00000  Uiso   1.00
C157   C     0.43681   0.64822   0.56429   0.00000  Uiso   1.00
C158   C     0.49483   0.62259   0.55174   0.00000  Uiso   1.00
C159   C     0.32144   0.71956   0.43180   0.00000  Uiso   1.00
C160   C     0.27120   0.66367   0.42192   0.00000  Uiso   1.00
C161   C     0.25348   0.64508   0.34424   0.00000  Uiso   1.00
H162   H     0.43095   0.84305   0.34012   0.00000  Uiso   1.00
H163   H     0.41696   0.02462   0.38335   0.00000  Uiso   1.00
H164   H     0.52515   0.74956   0.38054   0.00000  Uiso   1.00
H165   H     0.35957   0.76501   0.23819   0.00000  Uiso   1.00
H166   H     0.38760   0.21002   0.46012   0.00000  Uiso   1.00
H167   H     0.61572   0.63002   0.45418   0.00000  Uiso   1.00
H168   H     0.26656   0.66259   0.15400   0.00000  Uiso   1.00
H169   H     0.32413   0.72054   0.56226   0.00000  Uiso   1.00
H170   H     0.30427   0.89539   0.61768   0.00000  Uiso   1.00
H171   H     0.41247   0.62033   0.61487   0.00000  Uiso   1.00
H172   H     0.24689   0.63578   0.47252   0.00000  Uiso   1.00
H173   H     0.29614   0.10513   0.65031   0.00000  Uiso   1.00
H174   H     0.52427   0.52513   0.64437   0.00000  Uiso   1.00
H175   H     0.17511   0.55770   0.34420   0.00000  Uiso   1.00
O176   O     0.33075   0.27480   0.58768   0.00000  Uiso   1.00
O177   O     0.63004   0.51386   0.57988   0.00000  Uiso   1.00
O178   O     0.17195   0.55660   0.18605   0.00000  Uiso   1.00
N179   N     0.36879   0.16134   0.49727   0.00000  Uiso   1.00
N180   N     0.58208   0.61909   0.49172   0.00000  Uiso   1.00
N181   N     0.25565   0.64952   0.21108   0.00000  Uiso   1.00
N182   N     0.31958   0.10490   0.59961   0.00000  Uiso   1.00
N183   N     0.53286   0.56265   0.59406   0.00000  Uiso   1.00
N184   N     0.20644   0.59308   0.31342   0.00000  Uiso   1.00
C185   C     0.09352   0.81499   0.89101   0.00000  Uiso   1.00
C186   C     0.11594   0.89665   0.94530   0.00000  Uiso   1.00
C187   C     0.10738   0.99675   0.93394   0.00000  Uiso   1.00
C188   C     0.13138   0.05960   0.99034   0.00000  Uiso   1.00
C189   C     0.16139   0.19188   0.06471   0.00000  Uiso   1.00
C190   C     0.05716   0.74721   0.94378   0.00000  Uiso   1.00
C191   C     0.99916   0.72166   0.93114   0.00000  Uiso   1.00
C192   C     0.97368   0.65870   0.98625   0.00000  Uiso   1.00
C193   C     0.91243   0.55892   0.05823   0.00000  Uiso   1.00
C194   C     0.14712   0.75561   0.86643   0.00000  Uiso   1.00
C195   C     0.16477   0.73710   0.78876   0.00000  Uiso   1.00
C196   C     0.21503   0.68120   0.77876   0.00000  Uiso   1.00
C197   C     0.29347   0.59447   0.73065   0.00000  Uiso   1.00
C198   C     0.15139   0.74861   0.01136   0.00000  Uiso   1.00
C199   C     0.14738   0.86059   0.01067   0.00000  Uiso   1.00
C200   C     0.17140   0.92331   0.06710   0.00000  Uiso   1.00
C201   C     0.16287   0.02349   0.05582   0.00000  Uiso   1.00
C202   C     0.08859   0.71116   0.00915   0.00000  Uiso   1.00
C203   C     0.06319   0.64822   0.06429   0.00000  Uiso   1.00
C204   C     0.00517   0.62259   0.05174   0.00000  Uiso   1.00
C205   C     0.17856   0.71956   0.93180   0.00000  Uiso   1.00
C206   C     0.22880   0.66367   0.92192   0.00000  Uiso   1.00
C207   C     0.24652   0.64508   0.84424   0.00000  Uiso   1.00
H208   H     0.06905   0.84305   0.84012   0.00000  Uiso   1.00
H209   H     0.08304   0.02462   0.88335   0.00000  Uiso   1.00
H210   H     0.97485   0.74956   0.88054   0.00000  Uiso   1.00
H211   H     0.14043   0.76501   0.73819   0.00000  Uiso   1.00
H212   H     0.11240   0.21002   0.96012   0.00000  Uiso   1.00
H213   H     0.88428   0.63002   0.95418   0.00000  Uiso   1.00
H214   H     0.23344   0.66259   0.65400   0.00000  Uiso   1.00
H215   H     0.17587   0.72054   0.06226   0.00000  Uiso   1.00
H216   H     0.19573   0.89539   0.11768   0.00000  Uiso   1.00
H217   H     0.08753   0.62033   0.11487   0.00000  Uiso   1.00
H218   H     0.25311   0.63578   0.97252   0.00000  Uiso   1.00
H219   H     0.20386   0.10513   0.15031   0.00000  Uiso   1.00
H220   H     0.97573   0.52513   0.14437   0.00000  Uiso   1.00
H221   H     0.32489   0.55770   0.84420   0.00000  Uiso   1.00
O222   O     0.16925   0.27480   0.08768   0.00000  Uiso   1.00
O223   O     0.86996   0.51386   0.07988   0.00000  Uiso   1.00
O224   O     0.32805   0.55660   0.68605   0.00000  Uiso   1.00
N225   N     0.13121   0.16134   0.99727   0.00000  Uiso   1.00
N226   N     0.91792   0.61909   0.99172   0.00000  Uiso   1.00
N227   N     0.24435   0.64952   0.71108   0.00000  Uiso   1.00
N228   N     0.18042   0.10490   0.09961   0.00000  Uiso   1.00
N229   N     0.96714   0.56265   0.09406   0.00000  Uiso   1.00
N230   N     0.29356   0.59308   0.81342   0.00000  Uiso   1.00
C231   C     0.40648   0.18501   0.89101   0.00000  Uiso   1.00
C232   C     0.38406   0.10335   0.94530   0.00000  Uiso   1.00
C233   C     0.39262   0.00325   0.93394   0.00000  Uiso   1.00
C234   C     0.36862   0.94040   0.99034   0.00000  Uiso   1.00
C235   C     0.33861   0.80812   0.06471   0.00000  Uiso   1.00
C236   C     0.44284   0.25279   0.94378   0.00000  Uiso   1.00
C237   C     0.50084   0.27834   0.93114   0.00000  Uiso   1.00
C238   C     0.52632   0.34130   0.98625   0.00000  Uiso   1.00
C239   C     0.58757   0.44108   0.05823   0.00000  Uiso   1.00
C240   C     0.35288   0.24439   0.86643   0.00000  Uiso   1.00
C241   C     0.33523   0.26290   0.78876   0.00000  Uiso   1.00
C242   C     0.28497   0.31880   0.77876   0.00000  Uiso   1.00
C243   C     0.20653   0.40553   0.73065   0.00000  Uiso   1.00
C244   C     0.34861   0.25139   0.01136   0.00000  Uiso   1.00
C245   C     0.35262   0.13941   0.01067   0.00000  Uiso   1.00
C246   C     0.32860   0.07669   0.06710   0.00000  Uiso   1.00
C247   C     0.33713   0.97651   0.05582   0.00000  Uiso   1.00
C248   C     0.41141   0.28884   0.00915   0.00000  Uiso   1.00
C249   C     0.43681   0.35178   0.06429   0.00000  Uiso   1.00
C250   C     0.49483   0.37741   0.05174   0.00000  Uiso   1.00
C251   C     0.32144   0.28044   0.93180   0.00000  Uiso   1.00
C252   C     0.27120   0.33633   0.92192   0.00000  Uiso   1.00
C253   C     0.25348   0.35492   0.84424   0.00000  Uiso   1.00
H254   H     0.43095   0.15695   0.84012   0.00000  Uiso   1.00
H255   H     0.41696   0.97538   0.88335   0.00000  Uiso   1.00
H256   H     0.52515   0.25044   0.88054   0.00000  Uiso   1.00
H257   H     0.35957   0.23499   0.73819   0.00000  Uiso   1.00
H258   H     0.38760   0.78998   0.96012   0.00000  Uiso   1.00
H259   H     0.61572   0.36998   0.95418   0.00000  Uiso   1.00
H260   H     0.26656   0.33741   0.65400   0.00000  Uiso   1.00
H261   H     0.32413   0.27946   0.06226   0.00000  Uiso   1.00
H262   H     0.30427   0.10461   0.11768   0.00000  Uiso   1.00
H263   H     0.41247   0.37967   0.11487   0.00000  Uiso   1.00
H264   H     0.24689   0.36422   0.97252   0.00000  Uiso   1.00
H265   H     0.29614   0.89487   0.15031   0.00000  Uiso   1.00
H266   H     0.52427   0.47487   0.14437   0.00000  Uiso   1.00
H267   H     0.17511   0.44230   0.84420   0.00000  Uiso   1.00
O268   O     0.33075   0.72520   0.08768   0.00000  Uiso   1.00
O269   O     0.63004   0.48614   0.07988   0.00000  Uiso   1.00
O270   O     0.17195   0.44340   0.68605   0.00000  Uiso   1.00
N271   N     0.36879   0.83866   0.99727   0.00000  Uiso   1.00
N272   N     0.58208   0.38091   0.99172   0.00000  Uiso   1.00
N273   N     0.25565   0.35048   0.71108   0.00000  Uiso   1.00
N274   N     0.31958   0.89510   0.09961   0.00000  Uiso   1.00
N275   N     0.53286   0.43735   0.09406   0.00000  Uiso   1.00
N276   N     0.20644   0.40692   0.81342   0.00000  Uiso   1.00
C277   C     0.90648   0.81499   0.60899   0.00000  Uiso   1.00
C278   C     0.88406   0.89665   0.55470   0.00000  Uiso   1.00
C279   C     0.89262   0.99675   0.56606   0.00000  Uiso   1.00
C280   C     0.86862   0.05960   0.50966   0.00000  Uiso   1.00
C281   C     0.83861   0.19188   0.43529   0.00000  Uiso   1.00
C282   C     0.94284   0.74721   0.55622   0.00000  Uiso   1.00
C283   C     0.00084   0.72166   0.56886   0.00000  Uiso   1.00
C284   C     0.02632   0.65870   0.51375   0.00000  Uiso   1.00
C285   C     0.08757   0.55892   0.44177   0.00000  Uiso   1.00
C286   C     0.85288   0.75561   0.63357   0.00000  Uiso   1.00
C287   C     0.83523   0.73710   0.71124   0.00000  Uiso   1.00
C288   C     0.78497   0.68120   0.72124   0.00000  Uiso   1.00
C289   C     0.70653   0.59447   0.76935   0.00000  Uiso   1.00
C290   C     0.84861   0.74861   0.48864   0.00000  Uiso   1.00
C291   C     0.85262   0.86059   0.48933   0.00000  Uiso   1.00
C292   C     0.82860   0.92331   0.43290   0.00000  Uiso   1.00
C293   C     0.83713   0.02349   0.44418   0.00000  Uiso   1.00
C294   C     0.91141   0.71116   0.49085   0.00000  Uiso   1.00
C295   C     0.93681   0.64822   0.43571   0.00000  Uiso   1.00
C296   C     0.99483   0.62259   0.44826   0.00000  Uiso   1.00
C297   C     0.82144   0.71956   0.56820   0.00000  Uiso   1.00
C298   C     0.77120   0.66367   0.57808   0.00000  Uiso   1.00
C299   C     0.75348   0.64508   0.65576   0.00000  Uiso   1.00
H300   H     0.93095   0.84305   0.65988   0.00000  Uiso   1.00
H301   H     0.91696   0.02462   0.61665   0.00000  Uiso   1.00
H302   H     0.02515   0.74956   0.61946   0.00000  Uiso   1.00
H303   H     0.85957   0.76501   0.76181   0.00000  Uiso   1.00
H304   H     0.88760   0.21002   0.53988   0.00000  Uiso   1.00
H305   H     0.11572   0.63002   0.54582   0.00000  Uiso   1.00
H306   H     0.76656   0.66259   0.84600   0.00000  Uiso   1.00
H307   H     0.82413   0.72054   0.43774   0.00000  Uiso   1.00
H308   H     0.80427   0.89539   0.38232   0.00000  Uiso   1.00
H309   H     0.91247   0.62033   0.38513   0.00000  Uiso   1.00
H310   H     0.74689   0.63578   0.52748   0.00000  Uiso   1.00
H311   H     0.79614   0.10513   0.34969   0.00000  Uiso   1.00
H312   H     0.02427   0.52513   0.35563   0.00000  Uiso   1.00
H313   H     0.67511   0.55770   0.65580   0.00000  Uiso   1.00
O314   O     0.83075   0.27480   0.41232   0.00000  Uiso   1.00
O315   O     0.13004   0.51386   0.42012   0.00000  Uiso   1.00
O316   O     0.67195   0.55660   0.81395   0.00000  Uiso   1.00
N317   N     0.86879   0.16134   0.50273   0.00000  Uiso   1.00
N318   N     0.08208   0.61909   0.50828   0.00000  Uiso   1.00
N319   N     0.75565   0.64952   0.78892   0.00000  Uiso   1.00
N320   N     0.81958   0.10490   0.40039   0.00000  Uiso   1.00
N321   N     0.03286   0.56265   0.40594   0.00000  Uiso   1.00
N322   N     0.70644   0.59308   0.68658   0.00000  Uiso   1.00
C323   C     0.59352   0.18501   0.60899   0.00000  Uiso   1.00
C324   C     0.61594   0.10335   0.55470   0.00000  Uiso   1.00
C325   C     0.60738   0.00325   0.56606   0.00000  Uiso   1.00
C326   C     0.63138   0.94040   0.50966   0.00000  Uiso   1.00
C327   C     0.66139   0.80812   0.43529   0.00000  Uiso   1.00
C328   C     0.55716   0.25279   0.55622   0.00000  Uiso   1.00
C329   C     0.49916   0.27834   0.56886   0.00000  Uiso   1.00
C330   C     0.47368   0.34130   0.51375   0.00000  Uiso   1.00
C331   C     0.41243   0.44108   0.44177   0.00000  Uiso   1.00
C332   C     0.64712   0.24439   0.63357   0.00000  Uiso   1.00
C333   C     0.66477   0.26290   0.71124   0.00000  Uiso   1.00
C334   C     0.71503   0.31880   0.72124   0.00000  Uiso   1.00
C335   C     0.79347   0.40553   0.76935   0.00000  Uiso   1.00
C336   C     0.65139   0.25139   0.48864   0.00000  Uiso   1.00
C337   C     0.64738   0.13941   0.48933   0.00000  Uiso   1.00
C338   C     0.67140   0.07669   0.43290   0.00000  Uiso   1.00
C339   C     0.66287   0.97651   0.44418   0.00000  Uiso   1.00
C340   C     0.58859   0.28884   0.49085   0.00000  Uiso   1.00
C341   C     0.56319   0.35178   0.43571   0.00000  Uiso   1.00
C342   C     0.50517   0.37741   0.44826   0.00000  Uiso   1.00
C343   C     0.67856   0.28044   0.56820   0.00000  Uiso   1.00
C344   C     0.72880   0.33633   0.57808   0.00000  Uiso   1.00
C345   C     0.74652   0.35492   0.65576   0.00000  Uiso   1.00
H346   H     0.56905   0.15695   0.65988   0.00000  Uiso   1.00
H347   H     0.58304   0.97538   0.61665   0.00000  Uiso   1.00
H348   H     0.47485   0.25044   0.61946   0.00000  Uiso   1.00
H349   H     0.64043   0.23499   0.76181   0.00000  Uiso   1.00
H350   H     0.61240   0.78998   0.53988   0.00000  Uiso   1.00
H351   H     0.38428   0.36998   0.54582   0.00000  Uiso   1.00
H352   H     0.73344   0.33741   0.84600   0.00000  Uiso   1.00
H353   H     0.67587   0.27946   0.43774   0.00000  Uiso   1.00
H354   H     0.69573   0.10461   0.38232   0.00000  Uiso   1.00
H355   H     0.58753   0.37967   0.38513   0.00000  Uiso   1.00
H356   H     0.75311   0.36422   0.52748   0.00000  Uiso   1.00
H357   H     0.70386   0.89487   0.34969   0.00000  Uiso   1.00
H358   H     0.47573   0.47487   0.35563   0.00000  Uiso   1.00
H359   H     0.82489   0.44230   0.65580   0.00000  Uiso   1.00
O360   O     0.66925   0.72520   0.41232   0.00000  Uiso   1.00
O361   O     0.36996   0.48614   0.42012   0.00000  Uiso   1.00
O362   O     0.82805   0.44340   0.81395   0.00000  Uiso   1.00
N363   N     0.63121   0.83866   0.50273   0.00000  Uiso   1.00
N364   N     0.41792   0.38091   0.50828   0.00000  Uiso   1.00
N365   N     0.74435   0.35048   0.78892   0.00000  Uiso   1.00
N366   N     0.68042   0.89510   0.40039   0.00000  Uiso   1.00
N367   N     0.46714   0.43735   0.40594   0.00000  Uiso   1.00
N368   N     0.79356   0.40692   0.68658   0.00000  Uiso   1.00
