data_job_03328
_audit_creation_date              2018-12-19
_audit_creation_method            'Materials Studio'
_symmetry_space_group_name_H-M    'P1'
_symmetry_Int_Tables_number       1
_symmetry_cell_setting            triclinic
loop_
_symmetry_equiv_pos_as_xyz
  x,y,z
_cell_length_a                    21.7662
_cell_length_b                    12.4544
_cell_length_c                    16.8475
_cell_angle_alpha                 90.0000
_cell_angle_beta                  90.0000
_cell_angle_gamma                 90.0000
loop_
_atom_site_label
_atom_site_type_symbol
_atom_site_fract_x
_atom_site_fract_y
_atom_site_fract_z
_atom_site_U_iso_or_equiv
_atom_site_adp_type
_atom_site_occupancy
C1     C     0.45832   0.26191   0.48415   0.00000  Uiso   1.00
C2     C     0.49527   0.28210   0.40871   0.00000  Uiso   1.00
C3     C     0.55853   0.27239   0.40128   0.00000  Uiso   1.00
C4     C     0.58361   0.29440   0.32728   0.00000  Uiso   1.00
C5     C     0.64660   0.32114   0.21992   0.00000  Uiso   1.00
C6     C     0.42261   0.36503   0.50002   0.00000  Uiso   1.00
C7     C     0.42476   0.42504   0.56938   0.00000  Uiso   1.00
C8     C     0.38866   0.51687   0.57224   0.00000  Uiso   1.00
C9     C     0.33880   0.67233   0.60667   0.00000  Uiso   1.00
C10    C     0.41052   0.17724   0.46269   0.00000  Uiso   1.00
C11    C     0.40250   0.07936   0.50068   0.00000  Uiso   1.00
C12    C     0.35621   0.01308   0.47212   0.00000  Uiso   1.00
C13    C     0.28759   0.87695   0.44860   0.00000  Uiso   1.00
C14    C     0.39037   0.31827   0.36592   0.00000  Uiso   1.00
C15    C     0.45836   0.31271   0.34449   0.00000  Uiso   1.00
C16    C     0.48335   0.33474   0.27048   0.00000  Uiso   1.00
C17    C     0.54663   0.32507   0.26294   0.00000  Uiso   1.00
C18    C     0.38570   0.39565   0.43581   0.00000  Uiso   1.00
C19    C     0.34958   0.48740   0.43857   0.00000  Uiso   1.00
C20    C     0.35168   0.54754   0.50791   0.00000  Uiso   1.00
C21    C     0.37361   0.20785   0.39848   0.00000  Uiso   1.00
C22    C     0.32733   0.14171   0.36987   0.00000  Uiso   1.00
C23    C     0.31924   0.04375   0.40779   0.00000  Uiso   1.00
H24    H     0.48706   0.23808   0.53414   0.00000  Uiso   1.00
H25    H     0.58708   0.24871   0.45100   0.00000  Uiso   1.00
H26    H     0.45332   0.40133   0.61906   0.00000  Uiso   1.00
H27    H     0.43107   0.05569   0.55037   0.00000  Uiso   1.00
H28    H     0.68170   0.27402   0.33050   0.00000  Uiso   1.00
H29    H     0.39965   0.59582   0.68489   0.00000  Uiso   1.00
H30    H     0.35273   0.86698   0.54004   0.00000  Uiso   1.00
H31    H     0.36164   0.34211   0.31592   0.00000  Uiso   1.00
H32    H     0.45478   0.35843   0.22080   0.00000  Uiso   1.00
H33    H     0.32102   0.51106   0.38887   0.00000  Uiso   1.00
H34    H     0.29877   0.16543   0.32017   0.00000  Uiso   1.00
H35    H     0.57432   0.36309   0.14366   0.00000  Uiso   1.00
H36    H     0.29227   0.68488   0.49806   0.00000  Uiso   1.00
H37    H     0.24535   0.95604   0.35320   0.00000  Uiso   1.00
O38    O     0.69154   0.32745   0.17845   0.00000  Uiso   1.00
O39    O     0.32150   0.74962   0.64340   0.00000  Uiso   1.00
O40    O     0.25994   0.79340   0.45335   0.00000  Uiso   1.00
N41    N     0.64364   0.29272   0.29958   0.00000  Uiso   1.00
N42    N     0.37995   0.59359   0.63091   0.00000  Uiso   1.00
N43    N     0.33607   0.91220   0.49550   0.00000  Uiso   1.00
N44    N     0.58586   0.34064   0.19904   0.00000  Uiso   1.00
N45    N     0.32217   0.64152   0.53037   0.00000  Uiso   1.00
N46    N     0.27829   0.96012   0.39496   0.00000  Uiso   1.00
C47    C     0.53548   0.23147   0.87309   0.00000  Uiso   1.00
C48    C     0.49851   0.20411   0.94727   0.00000  Uiso   1.00
C49    C     0.43502   0.20867   0.95407   0.00000  Uiso   1.00
C50    C     0.40997   0.18046   0.02693   0.00000  Uiso   1.00
C51    C     0.34690   0.14275   0.13241   0.00000  Uiso   1.00
C52    C     0.57381   0.13212   0.85446   0.00000  Uiso   1.00
C53    C     0.57364   0.07616   0.78322   0.00000  Uiso   1.00
C54    C     0.61198   0.98736   0.77795   0.00000  Uiso   1.00
C55    C     0.66586   0.83793   0.73931   0.00000  Uiso   1.00
C56    C     0.58100   0.31826   0.89793   0.00000  Uiso   1.00
C57    C     0.58689   0.41880   0.86324   0.00000  Uiso   1.00
C58    C     0.63130   0.48670   0.89456   0.00000  Uiso   1.00
C59    C     0.69634   0.62627   0.92342   0.00000  Uiso   1.00
C60    C     0.60388   0.17326   0.99039   0.00000  Uiso   1.00
C61    C     0.53566   0.17249   0.01098   0.00000  Uiso   1.00
C62    C     0.51070   0.14427   0.08385   0.00000  Uiso   1.00
C63    C     0.44719   0.14879   0.09076   0.00000  Uiso   1.00
C64    C     0.61096   0.10050   0.91817   0.00000  Uiso   1.00
C65    C     0.64932   0.01177   0.91300   0.00000  Uiso   1.00
C66    C     0.64921   0.95568   0.84178   0.00000  Uiso   1.00
C67    C     0.61815   0.28665   0.96165   0.00000  Uiso   1.00
C68    C     0.66256   0.35440   0.99302   0.00000  Uiso   1.00
C69    C     0.66852   0.45502   0.95838   0.00000  Uiso   1.00
H70    H     0.50656   0.25607   0.82349   0.00000  Uiso   1.00
H71    H     0.40628   0.23313   0.90475   0.00000  Uiso   1.00
H72    H     0.54489   0.10066   0.73393   0.00000  Uiso   1.00
H73    H     0.55813   0.44324   0.81394   0.00000  Uiso   1.00
H74    H     0.31150   0.19372   0.02293   0.00000  Uiso   1.00
H75    H     0.60377   0.91440   0.66273   0.00000  Uiso   1.00
H76    H     0.63169   0.63680   0.83144   0.00000  Uiso   1.00
H77    H     0.63281   0.14864   0.04000   0.00000  Uiso   1.00
H78    H     0.53946   0.11981   0.13315   0.00000  Uiso   1.00
H79    H     0.67807   0.98733   0.96231   0.00000  Uiso   1.00
H80    H     0.69131   0.32991   0.04232   0.00000  Uiso   1.00
H81    H     0.41959   0.10174   0.20831   0.00000  Uiso   1.00
H82    H     0.71186   0.82242   0.84809   0.00000  Uiso   1.00
H83    H     0.73978   0.54482   0.01681   0.00000  Uiso   1.00
O84    O     0.30186   0.13067   0.17298   0.00000  Uiso   1.00
O85    O     0.68531   0.76423   0.70040   0.00000  Uiso   1.00
O86    O     0.72194   0.71200   0.92175   0.00000  Uiso   1.00
N87    N     0.34975   0.17605   0.05378   0.00000  Uiso   1.00
N88    N     0.62299   0.91489   0.71701   0.00000  Uiso   1.00
N89    N     0.64911   0.59027   0.87473   0.00000  Uiso   1.00
N90    N     0.40791   0.12656   0.15353   0.00000  Uiso   1.00
N91    N     0.68116   0.86540   0.81676   0.00000  Uiso   1.00
N92    N     0.70727   0.54077   0.97448   0.00000  Uiso   1.00
C93    C     0.54168   0.73809   0.48415   0.00000  Uiso   1.00
C94    C     0.50473   0.71790   0.40871   0.00000  Uiso   1.00
C95    C     0.44147   0.72761   0.40128   0.00000  Uiso   1.00
C96    C     0.41639   0.70560   0.32728   0.00000  Uiso   1.00
C97    C     0.35340   0.67886   0.21992   0.00000  Uiso   1.00
C98    C     0.57739   0.63497   0.50002   0.00000  Uiso   1.00
C99    C     0.57524   0.57496   0.56938   0.00000  Uiso   1.00
C100   C     0.61134   0.48313   0.57224   0.00000  Uiso   1.00
C101   C     0.66120   0.32767   0.60667   0.00000  Uiso   1.00
C102   C     0.58948   0.82276   0.46269   0.00000  Uiso   1.00
C103   C     0.59750   0.92064   0.50068   0.00000  Uiso   1.00
C104   C     0.64379   0.98692   0.47212   0.00000  Uiso   1.00
C105   C     0.71241   0.12305   0.44860   0.00000  Uiso   1.00
C106   C     0.60963   0.68173   0.36592   0.00000  Uiso   1.00
C107   C     0.54164   0.68729   0.34449   0.00000  Uiso   1.00
C108   C     0.51665   0.66526   0.27048   0.00000  Uiso   1.00
C109   C     0.45337   0.67493   0.26294   0.00000  Uiso   1.00
C110   C     0.61430   0.60435   0.43581   0.00000  Uiso   1.00
C111   C     0.65042   0.51260   0.43857   0.00000  Uiso   1.00
C112   C     0.64832   0.45246   0.50791   0.00000  Uiso   1.00
C113   C     0.62639   0.79215   0.39848   0.00000  Uiso   1.00
C114   C     0.67267   0.85829   0.36987   0.00000  Uiso   1.00
C115   C     0.68076   0.95625   0.40779   0.00000  Uiso   1.00
H116   H     0.51294   0.76192   0.53414   0.00000  Uiso   1.00
H117   H     0.41292   0.75129   0.45100   0.00000  Uiso   1.00
H118   H     0.54668   0.59867   0.61906   0.00000  Uiso   1.00
H119   H     0.56893   0.94431   0.55037   0.00000  Uiso   1.00
H120   H     0.31830   0.72598   0.33050   0.00000  Uiso   1.00
H121   H     0.60035   0.40418   0.68489   0.00000  Uiso   1.00
H122   H     0.64727   0.13302   0.54004   0.00000  Uiso   1.00
H123   H     0.63836   0.65789   0.31592   0.00000  Uiso   1.00
H124   H     0.54522   0.64157   0.22080   0.00000  Uiso   1.00
H125   H     0.67898   0.48894   0.38887   0.00000  Uiso   1.00
H126   H     0.70123   0.83457   0.32017   0.00000  Uiso   1.00
H127   H     0.42568   0.63691   0.14366   0.00000  Uiso   1.00
H128   H     0.70773   0.31512   0.49806   0.00000  Uiso   1.00
H129   H     0.75465   0.04396   0.35320   0.00000  Uiso   1.00
O130   O     0.30846   0.67255   0.17845   0.00000  Uiso   1.00
O131   O     0.67850   0.25038   0.64340   0.00000  Uiso   1.00
O132   O     0.74006   0.20660   0.45335   0.00000  Uiso   1.00
N133   N     0.35636   0.70728   0.29958   0.00000  Uiso   1.00
N134   N     0.62005   0.40641   0.63091   0.00000  Uiso   1.00
N135   N     0.66393   0.08780   0.49550   0.00000  Uiso   1.00
N136   N     0.41414   0.65936   0.19904   0.00000  Uiso   1.00
N137   N     0.67783   0.35848   0.53037   0.00000  Uiso   1.00
N138   N     0.72171   0.03988   0.39496   0.00000  Uiso   1.00
C139   C     0.46452   0.76853   0.87309   0.00000  Uiso   1.00
C140   C     0.50149   0.79589   0.94727   0.00000  Uiso   1.00
C141   C     0.56498   0.79133   0.95407   0.00000  Uiso   1.00
C142   C     0.59003   0.81954   0.02693   0.00000  Uiso   1.00
C143   C     0.65310   0.85725   0.13241   0.00000  Uiso   1.00
C144   C     0.42619   0.86788   0.85446   0.00000  Uiso   1.00
C145   C     0.42636   0.92384   0.78322   0.00000  Uiso   1.00
C146   C     0.38802   0.01264   0.77795   0.00000  Uiso   1.00
C147   C     0.33414   0.16207   0.73931   0.00000  Uiso   1.00
C148   C     0.41900   0.68174   0.89793   0.00000  Uiso   1.00
C149   C     0.41311   0.58120   0.86324   0.00000  Uiso   1.00
C150   C     0.36870   0.51330   0.89456   0.00000  Uiso   1.00
C151   C     0.30366   0.37373   0.92342   0.00000  Uiso   1.00
C152   C     0.39612   0.82674   0.99039   0.00000  Uiso   1.00
C153   C     0.46434   0.82751   0.01098   0.00000  Uiso   1.00
C154   C     0.48930   0.85573   0.08385   0.00000  Uiso   1.00
C155   C     0.55281   0.85121   0.09076   0.00000  Uiso   1.00
C156   C     0.38904   0.89950   0.91817   0.00000  Uiso   1.00
C157   C     0.35068   0.98823   0.91300   0.00000  Uiso   1.00
C158   C     0.35079   0.04432   0.84178   0.00000  Uiso   1.00
C159   C     0.38185   0.71335   0.96165   0.00000  Uiso   1.00
C160   C     0.33744   0.64560   0.99302   0.00000  Uiso   1.00
C161   C     0.33148   0.54498   0.95838   0.00000  Uiso   1.00
H162   H     0.49344   0.74393   0.82349   0.00000  Uiso   1.00
H163   H     0.59372   0.76687   0.90475   0.00000  Uiso   1.00
H164   H     0.45511   0.89934   0.73393   0.00000  Uiso   1.00
H165   H     0.44187   0.55676   0.81394   0.00000  Uiso   1.00
H166   H     0.68850   0.80628   0.02293   0.00000  Uiso   1.00
H167   H     0.39623   0.08560   0.66273   0.00000  Uiso   1.00
H168   H     0.36831   0.36320   0.83144   0.00000  Uiso   1.00
H169   H     0.36719   0.85136   0.04000   0.00000  Uiso   1.00
H170   H     0.46054   0.88019   0.13315   0.00000  Uiso   1.00
H171   H     0.32193   0.01267   0.96231   0.00000  Uiso   1.00
H172   H     0.30869   0.67009   0.04232   0.00000  Uiso   1.00
H173   H     0.58041   0.89826   0.20831   0.00000  Uiso   1.00
H174   H     0.28814   0.17758   0.84809   0.00000  Uiso   1.00
H175   H     0.26022   0.45518   0.01681   0.00000  Uiso   1.00
O176   O     0.69814   0.86933   0.17298   0.00000  Uiso   1.00
O177   O     0.31469   0.23577   0.70040   0.00000  Uiso   1.00
O178   O     0.27806   0.28800   0.92175   0.00000  Uiso   1.00
N179   N     0.65025   0.82395   0.05378   0.00000  Uiso   1.00
N180   N     0.37701   0.08511   0.71701   0.00000  Uiso   1.00
N181   N     0.35089   0.40973   0.87473   0.00000  Uiso   1.00
N182   N     0.59209   0.87344   0.15353   0.00000  Uiso   1.00
N183   N     0.31884   0.13460   0.81676   0.00000  Uiso   1.00
N184   N     0.29273   0.45923   0.97448   0.00000  Uiso   1.00
C185   C     0.04168   0.76191   0.51585   0.00000  Uiso   1.00
C186   C     0.00473   0.78210   0.59129   0.00000  Uiso   1.00
C187   C     0.94147   0.77239   0.59872   0.00000  Uiso   1.00
C188   C     0.91639   0.79440   0.67272   0.00000  Uiso   1.00
C189   C     0.85340   0.82114   0.78008   0.00000  Uiso   1.00
C190   C     0.07739   0.86503   0.49998   0.00000  Uiso   1.00
C191   C     0.07524   0.92504   0.43062   0.00000  Uiso   1.00
C192   C     0.11134   0.01687   0.42776   0.00000  Uiso   1.00
C193   C     0.16120   0.17233   0.39333   0.00000  Uiso   1.00
C194   C     0.08948   0.67724   0.53731   0.00000  Uiso   1.00
C195   C     0.09750   0.57936   0.49932   0.00000  Uiso   1.00
C196   C     0.14379   0.51308   0.52788   0.00000  Uiso   1.00
C197   C     0.21241   0.37695   0.55140   0.00000  Uiso   1.00
C198   C     0.10963   0.81827   0.63408   0.00000  Uiso   1.00
C199   C     0.04164   0.81271   0.65551   0.00000  Uiso   1.00
C200   C     0.01665   0.83474   0.72952   0.00000  Uiso   1.00
C201   C     0.95337   0.82507   0.73706   0.00000  Uiso   1.00
C202   C     0.11430   0.89565   0.56419   0.00000  Uiso   1.00
C203   C     0.15042   0.98740   0.56143   0.00000  Uiso   1.00
C204   C     0.14832   0.04754   0.49209   0.00000  Uiso   1.00
C205   C     0.12639   0.70785   0.60152   0.00000  Uiso   1.00
C206   C     0.17267   0.64171   0.63013   0.00000  Uiso   1.00
C207   C     0.18076   0.54375   0.59221   0.00000  Uiso   1.00
H208   H     0.01294   0.73808   0.46586   0.00000  Uiso   1.00
H209   H     0.91292   0.74871   0.54900   0.00000  Uiso   1.00
H210   H     0.04668   0.90133   0.38094   0.00000  Uiso   1.00
H211   H     0.06893   0.55569   0.44963   0.00000  Uiso   1.00
H212   H     0.81830   0.77402   0.66950   0.00000  Uiso   1.00
H213   H     0.10035   0.09582   0.31511   0.00000  Uiso   1.00
H214   H     0.14727   0.36698   0.45996   0.00000  Uiso   1.00
H215   H     0.13836   0.84211   0.68408   0.00000  Uiso   1.00
H216   H     0.04522   0.85843   0.77920   0.00000  Uiso   1.00
H217   H     0.17898   0.01106   0.61113   0.00000  Uiso   1.00
H218   H     0.20123   0.66543   0.67983   0.00000  Uiso   1.00
H219   H     0.92568   0.86309   0.85634   0.00000  Uiso   1.00
H220   H     0.20773   0.18488   0.50194   0.00000  Uiso   1.00
H221   H     0.25465   0.45604   0.64680   0.00000  Uiso   1.00
O222   O     0.80846   0.82745   0.82155   0.00000  Uiso   1.00
O223   O     0.17850   0.24962   0.35660   0.00000  Uiso   1.00
O224   O     0.24006   0.29340   0.54665   0.00000  Uiso   1.00
N225   N     0.85636   0.79272   0.70042   0.00000  Uiso   1.00
N226   N     0.12005   0.09359   0.36909   0.00000  Uiso   1.00
N227   N     0.16393   0.41220   0.50450   0.00000  Uiso   1.00
N228   N     0.91414   0.84064   0.80096   0.00000  Uiso   1.00
N229   N     0.17783   0.14152   0.46963   0.00000  Uiso   1.00
N230   N     0.22171   0.46012   0.60504   0.00000  Uiso   1.00
C231   C     0.96452   0.73147   0.12691   0.00000  Uiso   1.00
C232   C     0.00149   0.70411   0.05273   0.00000  Uiso   1.00
C233   C     0.06498   0.70867   0.04593   0.00000  Uiso   1.00
C234   C     0.09003   0.68046   0.97307   0.00000  Uiso   1.00
C235   C     0.15310   0.64275   0.86759   0.00000  Uiso   1.00
C236   C     0.92619   0.63212   0.14554   0.00000  Uiso   1.00
C237   C     0.92636   0.57616   0.21678   0.00000  Uiso   1.00
C238   C     0.88802   0.48736   0.22205   0.00000  Uiso   1.00
C239   C     0.83414   0.33793   0.26069   0.00000  Uiso   1.00
C240   C     0.91900   0.81826   0.10207   0.00000  Uiso   1.00
C241   C     0.91311   0.91880   0.13676   0.00000  Uiso   1.00
C242   C     0.86870   0.98670   0.10544   0.00000  Uiso   1.00
C243   C     0.80366   0.12627   0.07658   0.00000  Uiso   1.00
C244   C     0.89612   0.67326   0.00961   0.00000  Uiso   1.00
C245   C     0.96434   0.67249   0.98902   0.00000  Uiso   1.00
C246   C     0.98930   0.64427   0.91615   0.00000  Uiso   1.00
C247   C     0.05281   0.64879   0.90924   0.00000  Uiso   1.00
C248   C     0.88904   0.60050   0.08183   0.00000  Uiso   1.00
C249   C     0.85068   0.51177   0.08700   0.00000  Uiso   1.00
C250   C     0.85079   0.45568   0.15822   0.00000  Uiso   1.00
C251   C     0.88185   0.78665   0.03835   0.00000  Uiso   1.00
C252   C     0.83744   0.85440   0.00698   0.00000  Uiso   1.00
C253   C     0.83148   0.95502   0.04162   0.00000  Uiso   1.00
H254   H     0.99344   0.75607   0.17651   0.00000  Uiso   1.00
H255   H     0.09372   0.73313   0.09525   0.00000  Uiso   1.00
H256   H     0.95511   0.60066   0.26607   0.00000  Uiso   1.00
H257   H     0.94187   0.94324   0.18606   0.00000  Uiso   1.00
H258   H     0.18850   0.69372   0.97707   0.00000  Uiso   1.00
H259   H     0.89623   0.41440   0.33727   0.00000  Uiso   1.00
H260   H     0.86831   0.13680   0.16856   0.00000  Uiso   1.00
H261   H     0.86719   0.64864   0.96000   0.00000  Uiso   1.00
H262   H     0.96054   0.61981   0.86685   0.00000  Uiso   1.00
H263   H     0.82193   0.48733   0.03769   0.00000  Uiso   1.00
H264   H     0.80869   0.82991   0.95768   0.00000  Uiso   1.00
H265   H     0.08041   0.60174   0.79169   0.00000  Uiso   1.00
H266   H     0.78814   0.32242   0.15191   0.00000  Uiso   1.00
H267   H     0.76022   0.04482   0.98319   0.00000  Uiso   1.00
O268   O     0.19814   0.63067   0.82702   0.00000  Uiso   1.00
O269   O     0.81469   0.26423   0.29960   0.00000  Uiso   1.00
O270   O     0.77806   0.21200   0.07825   0.00000  Uiso   1.00
N271   N     0.15025   0.67605   0.94622   0.00000  Uiso   1.00
N272   N     0.87701   0.41489   0.28299   0.00000  Uiso   1.00
N273   N     0.85089   0.09027   0.12527   0.00000  Uiso   1.00
N274   N     0.09209   0.62656   0.84647   0.00000  Uiso   1.00
N275   N     0.81884   0.36540   0.18324   0.00000  Uiso   1.00
N276   N     0.79273   0.04077   0.02552   0.00000  Uiso   1.00
C277   C     0.95832   0.23809   0.51585   0.00000  Uiso   1.00
C278   C     0.99527   0.21790   0.59129   0.00000  Uiso   1.00
C279   C     0.05853   0.22761   0.59872   0.00000  Uiso   1.00
C280   C     0.08361   0.20560   0.67272   0.00000  Uiso   1.00
C281   C     0.14660   0.17886   0.78008   0.00000  Uiso   1.00
C282   C     0.92261   0.13497   0.49998   0.00000  Uiso   1.00
C283   C     0.92476   0.07496   0.43062   0.00000  Uiso   1.00
C284   C     0.88866   0.98313   0.42776   0.00000  Uiso   1.00
C285   C     0.83880   0.82767   0.39333   0.00000  Uiso   1.00
C286   C     0.91052   0.32276   0.53731   0.00000  Uiso   1.00
C287   C     0.90250   0.42064   0.49932   0.00000  Uiso   1.00
C288   C     0.85621   0.48692   0.52788   0.00000  Uiso   1.00
C289   C     0.78759   0.62305   0.55140   0.00000  Uiso   1.00
C290   C     0.89037   0.18173   0.63408   0.00000  Uiso   1.00
C291   C     0.95836   0.18729   0.65551   0.00000  Uiso   1.00
C292   C     0.98335   0.16526   0.72952   0.00000  Uiso   1.00
C293   C     0.04663   0.17493   0.73706   0.00000  Uiso   1.00
C294   C     0.88570   0.10435   0.56419   0.00000  Uiso   1.00
C295   C     0.84958   0.01260   0.56143   0.00000  Uiso   1.00
C296   C     0.85168   0.95246   0.49209   0.00000  Uiso   1.00
C297   C     0.87361   0.29215   0.60152   0.00000  Uiso   1.00
C298   C     0.82733   0.35829   0.63013   0.00000  Uiso   1.00
C299   C     0.81924   0.45625   0.59221   0.00000  Uiso   1.00
H300   H     0.98706   0.26192   0.46586   0.00000  Uiso   1.00
H301   H     0.08708   0.25129   0.54900   0.00000  Uiso   1.00
H302   H     0.95332   0.09867   0.38094   0.00000  Uiso   1.00
H303   H     0.93107   0.44431   0.44963   0.00000  Uiso   1.00
H304   H     0.18170   0.22598   0.66950   0.00000  Uiso   1.00
H305   H     0.89965   0.90418   0.31511   0.00000  Uiso   1.00
H306   H     0.85273   0.63302   0.45996   0.00000  Uiso   1.00
H307   H     0.86164   0.15789   0.68408   0.00000  Uiso   1.00
H308   H     0.95478   0.14157   0.77920   0.00000  Uiso   1.00
H309   H     0.82102   0.98894   0.61113   0.00000  Uiso   1.00
H310   H     0.79877   0.33457   0.67983   0.00000  Uiso   1.00
H311   H     0.07432   0.13691   0.85634   0.00000  Uiso   1.00
H312   H     0.79227   0.81512   0.50194   0.00000  Uiso   1.00
H313   H     0.74535   0.54396   0.64680   0.00000  Uiso   1.00
O314   O     0.19154   0.17255   0.82155   0.00000  Uiso   1.00
O315   O     0.82150   0.75038   0.35660   0.00000  Uiso   1.00
O316   O     0.75994   0.70660   0.54665   0.00000  Uiso   1.00
N317   N     0.14364   0.20728   0.70042   0.00000  Uiso   1.00
N318   N     0.87995   0.90641   0.36909   0.00000  Uiso   1.00
N319   N     0.83607   0.58780   0.50450   0.00000  Uiso   1.00
N320   N     0.08586   0.15936   0.80096   0.00000  Uiso   1.00
N321   N     0.82217   0.85848   0.46963   0.00000  Uiso   1.00
N322   N     0.77829   0.53988   0.60504   0.00000  Uiso   1.00
C323   C     0.03548   0.26853   0.12691   0.00000  Uiso   1.00
C324   C     0.99851   0.29589   0.05273   0.00000  Uiso   1.00
C325   C     0.93502   0.29133   0.04593   0.00000  Uiso   1.00
C326   C     0.90997   0.31954   0.97307   0.00000  Uiso   1.00
C327   C     0.84690   0.35725   0.86759   0.00000  Uiso   1.00
C328   C     0.07381   0.36788   0.14554   0.00000  Uiso   1.00
C329   C     0.07364   0.42384   0.21678   0.00000  Uiso   1.00
C330   C     0.11198   0.51264   0.22205   0.00000  Uiso   1.00
C331   C     0.16586   0.66207   0.26069   0.00000  Uiso   1.00
C332   C     0.08100   0.18174   0.10207   0.00000  Uiso   1.00
C333   C     0.08689   0.08120   0.13676   0.00000  Uiso   1.00
C334   C     0.13130   0.01330   0.10544   0.00000  Uiso   1.00
C335   C     0.19634   0.87373   0.07658   0.00000  Uiso   1.00
C336   C     0.10388   0.32674   0.00961   0.00000  Uiso   1.00
C337   C     0.03566   0.32751   0.98902   0.00000  Uiso   1.00
C338   C     0.01070   0.35573   0.91615   0.00000  Uiso   1.00
C339   C     0.94719   0.35121   0.90924   0.00000  Uiso   1.00
C340   C     0.11096   0.39950   0.08183   0.00000  Uiso   1.00
C341   C     0.14932   0.48823   0.08700   0.00000  Uiso   1.00
C342   C     0.14921   0.54432   0.15822   0.00000  Uiso   1.00
C343   C     0.11815   0.21335   0.03835   0.00000  Uiso   1.00
C344   C     0.16256   0.14560   0.00698   0.00000  Uiso   1.00
C345   C     0.16852   0.04498   0.04162   0.00000  Uiso   1.00
H346   H     0.00656   0.24393   0.17651   0.00000  Uiso   1.00
H347   H     0.90628   0.26687   0.09525   0.00000  Uiso   1.00
H348   H     0.04489   0.39934   0.26607   0.00000  Uiso   1.00
H349   H     0.05813   0.05676   0.18606   0.00000  Uiso   1.00
H350   H     0.81150   0.30628   0.97707   0.00000  Uiso   1.00
H351   H     0.10377   0.58560   0.33727   0.00000  Uiso   1.00
H352   H     0.13169   0.86320   0.16856   0.00000  Uiso   1.00
H353   H     0.13281   0.35136   0.96000   0.00000  Uiso   1.00
H354   H     0.03946   0.38019   0.86685   0.00000  Uiso   1.00
H355   H     0.17807   0.51267   0.03769   0.00000  Uiso   1.00
H356   H     0.19131   0.17009   0.95768   0.00000  Uiso   1.00
H357   H     0.91959   0.39826   0.79169   0.00000  Uiso   1.00
H358   H     0.21186   0.67758   0.15191   0.00000  Uiso   1.00
H359   H     0.23978   0.95518   0.98319   0.00000  Uiso   1.00
O360   O     0.80186   0.36933   0.82702   0.00000  Uiso   1.00
O361   O     0.18531   0.73577   0.29960   0.00000  Uiso   1.00
O362   O     0.22194   0.78800   0.07825   0.00000  Uiso   1.00
N363   N     0.84975   0.32395   0.94622   0.00000  Uiso   1.00
N364   N     0.12299   0.58511   0.28299   0.00000  Uiso   1.00
N365   N     0.14911   0.90973   0.12527   0.00000  Uiso   1.00
N366   N     0.90791   0.37344   0.84647   0.00000  Uiso   1.00
N367   N     0.18116   0.63460   0.18324   0.00000  Uiso   1.00
N368   N     0.20727   0.95923   0.02552   0.00000  Uiso   1.00
