data_job_04189
_audit_creation_date              2018-12-19
_audit_creation_method            'Materials Studio'
_symmetry_space_group_name_H-M    'P1'
_symmetry_Int_Tables_number       1
_symmetry_cell_setting            triclinic
loop_
_symmetry_equiv_pos_as_xyz
  x,y,z
_cell_length_a                    30.4567
_cell_length_b                    23.3545
_cell_length_c                    9.8346
_cell_angle_alpha                 90.0000
_cell_angle_beta                  105.5670
_cell_angle_gamma                 90.0000
loop_
_atom_site_label
_atom_site_type_symbol
_atom_site_fract_x
_atom_site_fract_y
_atom_site_fract_z
_atom_site_U_iso_or_equiv
_atom_site_adp_type
_atom_site_occupancy
C1     C     0.18023   0.44784   0.23773   0.00000  Uiso   1.00
C2     C     0.21109   0.40397   0.28763   0.00000  Uiso   1.00
C3     C     0.19692   0.36005   0.36109   0.00000  Uiso   1.00
C4     C     0.19050   0.27905   0.48628   0.00000  Uiso   1.00
C5     C     0.13676   0.44784   0.26038   0.00000  Uiso   1.00
C6     C     0.12253   0.40398   0.33378   0.00000  Uiso   1.00
C7     C     0.15336   0.36005   0.38378   0.00000  Uiso   1.00
H8     H     0.24473   0.40399   0.27007   0.00000  Uiso   1.00
H9     H     0.25024   0.29754   0.42735   0.00000  Uiso   1.00
H10    H     0.08889   0.40399   0.35129   0.00000  Uiso   1.00
H11    H     0.12375   0.29754   0.49326   0.00000  Uiso   1.00
O12    O     0.19897   0.23437   0.54908   0.00000  Uiso   1.00
N13    N     0.21853   0.31071   0.42404   0.00000  Uiso   1.00
N14    N     0.15046   0.31071   0.45951   0.00000  Uiso   1.00
C15    C     0.68023   0.94784   0.23773   0.00000  Uiso   1.00
C16    C     0.71109   0.90397   0.28763   0.00000  Uiso   1.00
C17    C     0.69692   0.86005   0.36109   0.00000  Uiso   1.00
C18    C     0.69050   0.77905   0.48628   0.00000  Uiso   1.00
C19    C     0.63676   0.94784   0.26038   0.00000  Uiso   1.00
C20    C     0.62253   0.90398   0.33378   0.00000  Uiso   1.00
C21    C     0.65336   0.86005   0.38378   0.00000  Uiso   1.00
H22    H     0.74473   0.90399   0.27007   0.00000  Uiso   1.00
H23    H     0.75024   0.79754   0.42735   0.00000  Uiso   1.00
H24    H     0.58889   0.90399   0.35129   0.00000  Uiso   1.00
H25    H     0.62375   0.79754   0.49326   0.00000  Uiso   1.00
O26    O     0.69897   0.73437   0.54908   0.00000  Uiso   1.00
N27    N     0.71853   0.81071   0.42404   0.00000  Uiso   1.00
N28    N     0.65046   0.81071   0.45951   0.00000  Uiso   1.00
C29    C     0.81977   0.44784   0.76227   0.00000  Uiso   1.00
C30    C     0.78891   0.40397   0.71237   0.00000  Uiso   1.00
C31    C     0.80308   0.36005   0.63891   0.00000  Uiso   1.00
C32    C     0.80950   0.27905   0.51372   0.00000  Uiso   1.00
C33    C     0.86324   0.44784   0.73962   0.00000  Uiso   1.00
C34    C     0.87747   0.40398   0.66622   0.00000  Uiso   1.00
C35    C     0.84664   0.36005   0.61622   0.00000  Uiso   1.00
H36    H     0.75527   0.40399   0.72993   0.00000  Uiso   1.00
H37    H     0.74976   0.29754   0.57265   0.00000  Uiso   1.00
H38    H     0.91111   0.40399   0.64871   0.00000  Uiso   1.00
H39    H     0.87625   0.29754   0.50674   0.00000  Uiso   1.00
O40    O     0.80103   0.23437   0.45092   0.00000  Uiso   1.00
N41    N     0.78147   0.31071   0.57596   0.00000  Uiso   1.00
N42    N     0.84954   0.31071   0.54049   0.00000  Uiso   1.00
C43    C     0.31977   0.94784   0.76227   0.00000  Uiso   1.00
C44    C     0.28891   0.90397   0.71237   0.00000  Uiso   1.00
C45    C     0.30308   0.86005   0.63891   0.00000  Uiso   1.00
C46    C     0.30950   0.77905   0.51372   0.00000  Uiso   1.00
C47    C     0.36324   0.94784   0.73962   0.00000  Uiso   1.00
C48    C     0.37747   0.90398   0.66622   0.00000  Uiso   1.00
C49    C     0.34664   0.86005   0.61622   0.00000  Uiso   1.00
H50    H     0.25527   0.90399   0.72993   0.00000  Uiso   1.00
H51    H     0.24976   0.79754   0.57265   0.00000  Uiso   1.00
H52    H     0.41111   0.90399   0.64871   0.00000  Uiso   1.00
H53    H     0.37625   0.79754   0.50674   0.00000  Uiso   1.00
O54    O     0.30103   0.73437   0.45092   0.00000  Uiso   1.00
N55    N     0.28147   0.81071   0.57596   0.00000  Uiso   1.00
N56    N     0.34954   0.81071   0.54049   0.00000  Uiso   1.00
C57    C     0.81977   0.55216   0.76227   0.00000  Uiso   1.00
C58    C     0.78891   0.59603   0.71237   0.00000  Uiso   1.00
C59    C     0.80308   0.63995   0.63891   0.00000  Uiso   1.00
C60    C     0.80950   0.72095   0.51372   0.00000  Uiso   1.00
C61    C     0.86324   0.55216   0.73962   0.00000  Uiso   1.00
C62    C     0.87747   0.59602   0.66622   0.00000  Uiso   1.00
C63    C     0.84664   0.63995   0.61622   0.00000  Uiso   1.00
H64    H     0.75527   0.59601   0.72993   0.00000  Uiso   1.00
H65    H     0.74976   0.70246   0.57265   0.00000  Uiso   1.00
H66    H     0.91111   0.59601   0.64871   0.00000  Uiso   1.00
H67    H     0.87625   0.70246   0.50674   0.00000  Uiso   1.00
O68    O     0.80103   0.76563   0.45092   0.00000  Uiso   1.00
N69    N     0.78147   0.68929   0.57596   0.00000  Uiso   1.00
N70    N     0.84954   0.68929   0.54049   0.00000  Uiso   1.00
C71    C     0.31977   0.05216   0.76227   0.00000  Uiso   1.00
C72    C     0.28891   0.09603   0.71237   0.00000  Uiso   1.00
C73    C     0.30308   0.13995   0.63891   0.00000  Uiso   1.00
C74    C     0.30950   0.22095   0.51372   0.00000  Uiso   1.00
C75    C     0.36324   0.05216   0.73962   0.00000  Uiso   1.00
C76    C     0.37747   0.09602   0.66622   0.00000  Uiso   1.00
C77    C     0.34664   0.13995   0.61622   0.00000  Uiso   1.00
H78    H     0.25527   0.09601   0.72993   0.00000  Uiso   1.00
H79    H     0.24976   0.20246   0.57265   0.00000  Uiso   1.00
H80    H     0.41111   0.09601   0.64871   0.00000  Uiso   1.00
H81    H     0.37625   0.20246   0.50674   0.00000  Uiso   1.00
O82    O     0.30103   0.26563   0.45092   0.00000  Uiso   1.00
N83    N     0.28147   0.18929   0.57596   0.00000  Uiso   1.00
N84    N     0.34954   0.18929   0.54049   0.00000  Uiso   1.00
C85    C     0.18023   0.55216   0.23773   0.00000  Uiso   1.00
C86    C     0.21109   0.59603   0.28763   0.00000  Uiso   1.00
C87    C     0.19692   0.63995   0.36109   0.00000  Uiso   1.00
C88    C     0.19050   0.72095   0.48628   0.00000  Uiso   1.00
C89    C     0.13676   0.55216   0.26038   0.00000  Uiso   1.00
C90    C     0.12253   0.59602   0.33378   0.00000  Uiso   1.00
C91    C     0.15336   0.63995   0.38378   0.00000  Uiso   1.00
H92    H     0.24473   0.59601   0.27007   0.00000  Uiso   1.00
H93    H     0.25024   0.70246   0.42735   0.00000  Uiso   1.00
H94    H     0.08889   0.59601   0.35129   0.00000  Uiso   1.00
H95    H     0.12375   0.70246   0.49326   0.00000  Uiso   1.00
O96    O     0.19897   0.76563   0.54908   0.00000  Uiso   1.00
N97    N     0.21853   0.68929   0.42404   0.00000  Uiso   1.00
N98    N     0.15046   0.68929   0.45951   0.00000  Uiso   1.00
C99    C     0.68023   0.05216   0.23773   0.00000  Uiso   1.00
C100   C     0.71109   0.09603   0.28763   0.00000  Uiso   1.00
C101   C     0.69692   0.13995   0.36109   0.00000  Uiso   1.00
C102   C     0.69050   0.22095   0.48628   0.00000  Uiso   1.00
C103   C     0.63676   0.05216   0.26038   0.00000  Uiso   1.00
C104   C     0.62253   0.09602   0.33378   0.00000  Uiso   1.00
C105   C     0.65336   0.13995   0.38378   0.00000  Uiso   1.00
H106   H     0.74473   0.09601   0.27007   0.00000  Uiso   1.00
H107   H     0.75024   0.20246   0.42735   0.00000  Uiso   1.00
H108   H     0.58889   0.09601   0.35129   0.00000  Uiso   1.00
H109   H     0.62375   0.20246   0.49326   0.00000  Uiso   1.00
O110   O     0.69897   0.26563   0.54908   0.00000  Uiso   1.00
N111   N     0.71853   0.18929   0.42404   0.00000  Uiso   1.00
N112   N     0.65046   0.18929   0.45951   0.00000  Uiso   1.00
C113   C     0.18862   0.50000   0.15485   0.00000  Uiso   1.00
C114   C     0.15055   0.50000   0.01766   0.00000  Uiso   1.00
C115   C     0.15644   0.50000   0.88255   0.00000  Uiso   1.00
C116   C     0.11728   0.50000   0.77075   0.00000  Uiso   1.00
C117   C     0.06477   0.50000   0.55428   0.00000  Uiso   1.00
C118   C     0.10858   0.50000   0.19656   0.00000  Uiso   1.00
C119   C     0.10707   0.50000   0.04031   0.00000  Uiso   1.00
C120   C     0.06789   0.50000   0.92869   0.00000  Uiso   1.00
C121   C     0.07372   0.50000   0.79345   0.00000  Uiso   1.00
H122   H     0.22247   0.50000   0.13720   0.00000  Uiso   1.00
H123   H     0.19009   0.50000   0.86505   0.00000  Uiso   1.00
H124   H     0.13502   0.50000   0.57331   0.00000  Uiso   1.00
H125   H     0.07473   0.50000   0.21419   0.00000  Uiso   1.00
H126   H     0.03425   0.50000   0.94627   0.00000  Uiso   1.00
H127   H     0.00854   0.50000   0.63923   0.00000  Uiso   1.00
O128   O     0.04782   0.50000   0.42861   0.00000  Uiso   1.00
N129   N     0.11081   0.50000   0.62560   0.00000  Uiso   1.00
N130   N     0.04275   0.50000   0.66107   0.00000  Uiso   1.00
C131   C     0.68862  -0.00000   0.15485   0.00000  Uiso   1.00
C132   C     0.65055   0.00000   0.01766   0.00000  Uiso   1.00
C133   C     0.65644  -0.00000   0.88255   0.00000  Uiso   1.00
C134   C     0.61728  -0.00000   0.77075   0.00000  Uiso   1.00
C135   C     0.56477   0.00000   0.55428   0.00000  Uiso   1.00
C136   C     0.60858   0.00000   0.19656   0.00000  Uiso   1.00
C137   C     0.60707  -0.00000   0.04031   0.00000  Uiso   1.00
C138   C     0.56789   0.00000   0.92869   0.00000  Uiso   1.00
C139   C     0.57372  -0.00000   0.79345   0.00000  Uiso   1.00
H140   H     0.72247  -0.00000   0.13720   0.00000  Uiso   1.00
H141   H     0.69009  -0.00000   0.86505   0.00000  Uiso   1.00
H142   H     0.63502   0.00000   0.57331   0.00000  Uiso   1.00
H143   H     0.57473   0.00000   0.21419   0.00000  Uiso   1.00
H144   H     0.53425   0.00000   0.94627   0.00000  Uiso   1.00
H145   H     0.50854  -0.00000   0.63923   0.00000  Uiso   1.00
O146   O     0.54782  -0.00000   0.42861   0.00000  Uiso   1.00
N147   N     0.61081  -0.00000   0.62560   0.00000  Uiso   1.00
N148   N     0.54275  -0.00000   0.66107   0.00000  Uiso   1.00
C149   C     0.81138   0.50000   0.84515   0.00000  Uiso   1.00
C150   C     0.84945   0.50000   0.98234   0.00000  Uiso   1.00
C151   C     0.84356   0.50000   0.11745   0.00000  Uiso   1.00
C152   C     0.88272   0.50000   0.22925   0.00000  Uiso   1.00
C153   C     0.93523   0.50000   0.44572   0.00000  Uiso   1.00
C154   C     0.89142   0.50000   0.80344   0.00000  Uiso   1.00
C155   C     0.89293   0.50000   0.95969   0.00000  Uiso   1.00
C156   C     0.93211   0.50000   0.07131   0.00000  Uiso   1.00
C157   C     0.92628   0.50000   0.20655   0.00000  Uiso   1.00
H158   H     0.77753   0.50000   0.86280   0.00000  Uiso   1.00
H159   H     0.80991   0.50000   0.13495   0.00000  Uiso   1.00
H160   H     0.86498   0.50000   0.42669   0.00000  Uiso   1.00
H161   H     0.92527   0.50000   0.78581   0.00000  Uiso   1.00
H162   H     0.96575   0.50000   0.05373   0.00000  Uiso   1.00
H163   H     0.99146   0.50000   0.36077   0.00000  Uiso   1.00
O164   O     0.95218   0.50000   0.57139   0.00000  Uiso   1.00
N165   N     0.88919   0.50000   0.37440   0.00000  Uiso   1.00
N166   N     0.95725   0.50000   0.33893   0.00000  Uiso   1.00
C167   C     0.31138   0.00000   0.84515   0.00000  Uiso   1.00
C168   C     0.34945   0.00000   0.98234   0.00000  Uiso   1.00
C169   C     0.34356  -0.00000   0.11745   0.00000  Uiso   1.00
C170   C     0.38272  -0.00000   0.22925   0.00000  Uiso   1.00
C171   C     0.43523  -0.00000   0.44572   0.00000  Uiso   1.00
C172   C     0.39142  -0.00000   0.80344   0.00000  Uiso   1.00
C173   C     0.39293   0.00000   0.95969   0.00000  Uiso   1.00
C174   C     0.43211  -0.00000   0.07131   0.00000  Uiso   1.00
C175   C     0.42628   0.00000   0.20655   0.00000  Uiso   1.00
H176   H     0.27753   0.00000   0.86280   0.00000  Uiso   1.00
H177   H     0.30991  -0.00000   0.13495   0.00000  Uiso   1.00
H178   H     0.36498  -0.00000   0.42669   0.00000  Uiso   1.00
H179   H     0.42527   0.00000   0.78581   0.00000  Uiso   1.00
H180   H     0.46575  -0.00000   0.05373   0.00000  Uiso   1.00
H181   H     0.49146  -0.00000   0.36077   0.00000  Uiso   1.00
O182   O     0.45218   0.00000   0.57139   0.00000  Uiso   1.00
N183   N     0.38919   0.00000   0.37440   0.00000  Uiso   1.00
N184   N     0.45725  -0.00000   0.33893   0.00000  Uiso   1.00
