data_job_05339
_audit_creation_date              2018-12-19
_audit_creation_method            'Materials Studio'
_symmetry_space_group_name_H-M    'P1'
_symmetry_Int_Tables_number       1
_symmetry_cell_setting            triclinic
loop_
_symmetry_equiv_pos_as_xyz
  x,y,z
_cell_length_a                    26.7758
_cell_length_b                    9.4900
_cell_length_c                    21.8216
_cell_angle_alpha                 90.0000
_cell_angle_beta                  125.4920
_cell_angle_gamma                 90.0000
loop_
_atom_site_label
_atom_site_type_symbol
_atom_site_fract_x
_atom_site_fract_y
_atom_site_fract_z
_atom_site_U_iso_or_equiv
_atom_site_adp_type
_atom_site_occupancy
C1     C     0.78279   0.44731   0.80286   0.00000  Uiso   1.00
C2     C     0.75126   0.35533   0.82827   0.00000  Uiso   1.00
C3     C     0.68840   0.34334   0.79202   0.00000  Uiso   1.00
C4     C     0.66867   0.25369   0.82422   0.00000  Uiso   1.00
C5     C     0.61337   0.12232   0.85364   0.00000  Uiso   1.00
C6     C     0.82627   0.54345   0.86918   0.00000  Uiso   1.00
C7     C     0.82647   0.68962   0.86731   0.00000  Uiso   1.00
C8     C     0.86989   0.75831   0.93394   0.00000  Uiso   1.00
C9     C     0.93106   0.91899   0.02685   0.00000  Uiso   1.00
C10    C     0.82345   0.34865   0.79451   0.00000  Uiso   1.00
C11    C     0.82129   0.33105   0.72987   0.00000  Uiso   1.00
C12    C     0.86235   0.23575   0.73365   0.00000  Uiso   1.00
C13    C     0.91914   0.09398   0.71063   0.00000  Uiso   1.00
C14    C     0.85955   0.30940   0.92450   0.00000  Uiso   1.00
C15    C     0.79295   0.28043   0.89434   0.00000  Uiso   1.00
C16    C     0.77332   0.19076   0.92660   0.00000  Uiso   1.00
C17    C     0.71043   0.17864   0.89040   0.00000  Uiso   1.00
C18    C     0.86796   0.46855   0.93524   0.00000  Uiso   1.00
C19    C     0.91139   0.53704   0.00189   0.00000  Uiso   1.00
C20    C     0.91165   0.68327   0.00013   0.00000  Uiso   1.00
C21    C     0.86514   0.27374   0.86058   0.00000  Uiso   1.00
C22    C     0.90621   0.17846   0.86445   0.00000  Uiso   1.00
C23    C     0.90411   0.16072   0.79984   0.00000  Uiso   1.00
H24    H     0.75034   0.50563   0.75143   0.00000  Uiso   1.00
H25    H     0.65615   0.40134   0.74089   0.00000  Uiso   1.00
H26    H     0.79421   0.74755   0.81617   0.00000  Uiso   1.00
H27    H     0.78903   0.38903   0.67876   0.00000  Uiso   1.00
H28    H     0.57011   0.25272   0.75837   0.00000  Uiso   1.00
H29    H     0.86122   0.98273   0.91709   0.00000  Uiso   1.00
H30    H     0.85030   0.22672   0.62732   0.00000  Uiso   1.00
H31    H     0.89200   0.25108   0.97594   0.00000  Uiso   1.00
H32    H     0.80559   0.13281   0.97773   0.00000  Uiso   1.00
H33    H     0.94364   0.47904   0.05301   0.00000  Uiso   1.00
H34    H     0.93846   0.12052   0.91559   0.00000  Uiso   1.00
H35    H     0.69140   0.03478   0.95059   0.00000  Uiso   1.00
H36    H     0.98251   0.76480   0.10931   0.00000  Uiso   1.00
H37    H     0.97158   0.00878   0.81955   0.00000  Uiso   1.00
O38    O     0.57135   0.07058   0.85162   0.00000  Uiso   1.00
O39    O     0.95328   0.02832   0.05985   0.00000  Uiso   1.00
O40    O     0.93895   0.03646   0.67968   0.00000  Uiso   1.00
N41    N     0.61052   0.21763   0.80335   0.00000  Uiso   1.00
N42    N     0.88268   0.90015   0.95175   0.00000  Uiso   1.00
N43    N     0.87248   0.19338   0.68085   0.00000  Uiso   1.00
N44    N     0.67578   0.10036   0.90679   0.00000  Uiso   1.00
N45    N     0.94794   0.78288   0.05519   0.00000  Uiso   1.00
N46    N     0.93774   0.07611   0.78428   0.00000  Uiso   1.00
C47    C     0.28279   0.94731   0.80286   0.00000  Uiso   1.00
C48    C     0.25126   0.85533   0.82827   0.00000  Uiso   1.00
C49    C     0.18840   0.84334   0.79202   0.00000  Uiso   1.00
C50    C     0.16867   0.75369   0.82422   0.00000  Uiso   1.00
C51    C     0.11337   0.62232   0.85364   0.00000  Uiso   1.00
C52    C     0.32627   0.04345   0.86918   0.00000  Uiso   1.00
C53    C     0.32647   0.18962   0.86731   0.00000  Uiso   1.00
C54    C     0.36989   0.25831   0.93394   0.00000  Uiso   1.00
C55    C     0.43106   0.41899   0.02685   0.00000  Uiso   1.00
C56    C     0.32345   0.84865   0.79451   0.00000  Uiso   1.00
C57    C     0.32129   0.83105   0.72987   0.00000  Uiso   1.00
C58    C     0.36235   0.73575   0.73365   0.00000  Uiso   1.00
C59    C     0.41914   0.59398   0.71063   0.00000  Uiso   1.00
C60    C     0.35955   0.80940   0.92450   0.00000  Uiso   1.00
C61    C     0.29295   0.78043   0.89434   0.00000  Uiso   1.00
C62    C     0.27332   0.69076   0.92660   0.00000  Uiso   1.00
C63    C     0.21043   0.67864   0.89040   0.00000  Uiso   1.00
C64    C     0.36796   0.96855   0.93524   0.00000  Uiso   1.00
C65    C     0.41139   0.03704   0.00189   0.00000  Uiso   1.00
C66    C     0.41165   0.18327   0.00013   0.00000  Uiso   1.00
C67    C     0.36514   0.77374   0.86058   0.00000  Uiso   1.00
C68    C     0.40621   0.67846   0.86445   0.00000  Uiso   1.00
C69    C     0.40411   0.66072   0.79984   0.00000  Uiso   1.00
H70    H     0.25034   0.00563   0.75143   0.00000  Uiso   1.00
H71    H     0.15615   0.90134   0.74089   0.00000  Uiso   1.00
H72    H     0.29421   0.24755   0.81617   0.00000  Uiso   1.00
H73    H     0.28903   0.88903   0.67876   0.00000  Uiso   1.00
H74    H     0.07011   0.75272   0.75837   0.00000  Uiso   1.00
H75    H     0.36122   0.48273   0.91709   0.00000  Uiso   1.00
H76    H     0.35030   0.72672   0.62732   0.00000  Uiso   1.00
H77    H     0.39200   0.75108   0.97594   0.00000  Uiso   1.00
H78    H     0.30559   0.63281   0.97773   0.00000  Uiso   1.00
H79    H     0.44364   0.97904   0.05301   0.00000  Uiso   1.00
H80    H     0.43846   0.62052   0.91559   0.00000  Uiso   1.00
H81    H     0.19140   0.53478   0.95059   0.00000  Uiso   1.00
H82    H     0.48251   0.26480   0.10931   0.00000  Uiso   1.00
H83    H     0.47158   0.50878   0.81955   0.00000  Uiso   1.00
O84    O     0.07135   0.57058   0.85162   0.00000  Uiso   1.00
O85    O     0.45328   0.52832   0.05985   0.00000  Uiso   1.00
O86    O     0.43895   0.53646   0.67968   0.00000  Uiso   1.00
N87    N     0.11052   0.71763   0.80335   0.00000  Uiso   1.00
N88    N     0.38268   0.40015   0.95175   0.00000  Uiso   1.00
N89    N     0.37248   0.69338   0.68085   0.00000  Uiso   1.00
N90    N     0.17578   0.60036   0.90679   0.00000  Uiso   1.00
N91    N     0.44794   0.28288   0.05519   0.00000  Uiso   1.00
N92    N     0.43774   0.57611   0.78428   0.00000  Uiso   1.00
C93    C     0.21721   0.44731   0.69714   0.00000  Uiso   1.00
C94    C     0.24874   0.35533   0.67173   0.00000  Uiso   1.00
C95    C     0.31160   0.34334   0.70798   0.00000  Uiso   1.00
C96    C     0.33133   0.25369   0.67578   0.00000  Uiso   1.00
C97    C     0.38663   0.12232   0.64636   0.00000  Uiso   1.00
C98    C     0.17373   0.54345   0.63082   0.00000  Uiso   1.00
C99    C     0.17353   0.68962   0.63269   0.00000  Uiso   1.00
C100   C     0.13011   0.75831   0.56606   0.00000  Uiso   1.00
C101   C     0.06894   0.91899   0.47315   0.00000  Uiso   1.00
C102   C     0.17655   0.34865   0.70549   0.00000  Uiso   1.00
C103   C     0.17871   0.33105   0.77013   0.00000  Uiso   1.00
C104   C     0.13765   0.23575   0.76635   0.00000  Uiso   1.00
C105   C     0.08086   0.09398   0.78937   0.00000  Uiso   1.00
C106   C     0.14045   0.30940   0.57550   0.00000  Uiso   1.00
C107   C     0.20705   0.28043   0.60566   0.00000  Uiso   1.00
C108   C     0.22668   0.19076   0.57340   0.00000  Uiso   1.00
C109   C     0.28957   0.17864   0.60960   0.00000  Uiso   1.00
C110   C     0.13204   0.46855   0.56476   0.00000  Uiso   1.00
C111   C     0.08861   0.53704   0.49811   0.00000  Uiso   1.00
C112   C     0.08835   0.68327   0.49987   0.00000  Uiso   1.00
C113   C     0.13486   0.27374   0.63942   0.00000  Uiso   1.00
C114   C     0.09379   0.17846   0.63555   0.00000  Uiso   1.00
C115   C     0.09589   0.16072   0.70016   0.00000  Uiso   1.00
H116   H     0.24966   0.50563   0.74857   0.00000  Uiso   1.00
H117   H     0.34385   0.40134   0.75911   0.00000  Uiso   1.00
H118   H     0.20579   0.74755   0.68383   0.00000  Uiso   1.00
H119   H     0.21097   0.38903   0.82124   0.00000  Uiso   1.00
H120   H     0.42989   0.25272   0.74163   0.00000  Uiso   1.00
H121   H     0.13878   0.98273   0.58291   0.00000  Uiso   1.00
H122   H     0.14970   0.22672   0.87268   0.00000  Uiso   1.00
H123   H     0.10800   0.25108   0.52406   0.00000  Uiso   1.00
H124   H     0.19441   0.13281   0.52227   0.00000  Uiso   1.00
H125   H     0.05636   0.47904   0.44699   0.00000  Uiso   1.00
H126   H     0.06154   0.12052   0.58441   0.00000  Uiso   1.00
H127   H     0.30860   0.03478   0.54941   0.00000  Uiso   1.00
H128   H     0.01749   0.76480   0.39069   0.00000  Uiso   1.00
H129   H     0.02842   0.00878   0.68045   0.00000  Uiso   1.00
O130   O     0.42865   0.07058   0.64838   0.00000  Uiso   1.00
O131   O     0.04672   0.02832   0.44015   0.00000  Uiso   1.00
O132   O     0.06105   0.03646   0.82032   0.00000  Uiso   1.00
N133   N     0.38948   0.21763   0.69665   0.00000  Uiso   1.00
N134   N     0.11732   0.90015   0.54825   0.00000  Uiso   1.00
N135   N     0.12752   0.19338   0.81915   0.00000  Uiso   1.00
N136   N     0.32422   0.10036   0.59321   0.00000  Uiso   1.00
N137   N     0.05206   0.78288   0.44481   0.00000  Uiso   1.00
N138   N     0.06226   0.07611   0.71572   0.00000  Uiso   1.00
C139   C     0.71721   0.94731   0.69714   0.00000  Uiso   1.00
C140   C     0.74874   0.85533   0.67173   0.00000  Uiso   1.00
C141   C     0.81160   0.84334   0.70798   0.00000  Uiso   1.00
C142   C     0.83133   0.75369   0.67578   0.00000  Uiso   1.00
C143   C     0.88663   0.62232   0.64636   0.00000  Uiso   1.00
C144   C     0.67373   0.04345   0.63082   0.00000  Uiso   1.00
C145   C     0.67353   0.18962   0.63269   0.00000  Uiso   1.00
C146   C     0.63011   0.25831   0.56606   0.00000  Uiso   1.00
C147   C     0.56894   0.41899   0.47315   0.00000  Uiso   1.00
C148   C     0.67655   0.84865   0.70549   0.00000  Uiso   1.00
C149   C     0.67871   0.83105   0.77013   0.00000  Uiso   1.00
C150   C     0.63765   0.73575   0.76635   0.00000  Uiso   1.00
C151   C     0.58086   0.59398   0.78937   0.00000  Uiso   1.00
C152   C     0.64045   0.80940   0.57550   0.00000  Uiso   1.00
C153   C     0.70705   0.78043   0.60566   0.00000  Uiso   1.00
C154   C     0.72668   0.69076   0.57340   0.00000  Uiso   1.00
C155   C     0.78957   0.67864   0.60960   0.00000  Uiso   1.00
C156   C     0.63204   0.96855   0.56476   0.00000  Uiso   1.00
C157   C     0.58861   0.03704   0.49811   0.00000  Uiso   1.00
C158   C     0.58835   0.18327   0.49987   0.00000  Uiso   1.00
C159   C     0.63486   0.77374   0.63942   0.00000  Uiso   1.00
C160   C     0.59379   0.67846   0.63555   0.00000  Uiso   1.00
C161   C     0.59589   0.66072   0.70016   0.00000  Uiso   1.00
H162   H     0.74966   0.00563   0.74857   0.00000  Uiso   1.00
H163   H     0.84385   0.90134   0.75911   0.00000  Uiso   1.00
H164   H     0.70579   0.24755   0.68383   0.00000  Uiso   1.00
H165   H     0.71097   0.88903   0.82124   0.00000  Uiso   1.00
H166   H     0.92989   0.75272   0.74163   0.00000  Uiso   1.00
H167   H     0.63878   0.48273   0.58291   0.00000  Uiso   1.00
H168   H     0.64970   0.72672   0.87268   0.00000  Uiso   1.00
H169   H     0.60800   0.75108   0.52406   0.00000  Uiso   1.00
H170   H     0.69441   0.63281   0.52227   0.00000  Uiso   1.00
H171   H     0.55636   0.97904   0.44699   0.00000  Uiso   1.00
H172   H     0.56154   0.62052   0.58441   0.00000  Uiso   1.00
H173   H     0.80860   0.53478   0.54941   0.00000  Uiso   1.00
H174   H     0.51749   0.26480   0.39069   0.00000  Uiso   1.00
H175   H     0.52842   0.50878   0.68045   0.00000  Uiso   1.00
O176   O     0.92865   0.57058   0.64838   0.00000  Uiso   1.00
O177   O     0.54672   0.52832   0.44015   0.00000  Uiso   1.00
O178   O     0.56105   0.53646   0.82032   0.00000  Uiso   1.00
N179   N     0.88948   0.71763   0.69665   0.00000  Uiso   1.00
N180   N     0.61732   0.40015   0.54825   0.00000  Uiso   1.00
N181   N     0.62752   0.69338   0.81915   0.00000  Uiso   1.00
N182   N     0.82422   0.60036   0.59321   0.00000  Uiso   1.00
N183   N     0.55206   0.28288   0.44481   0.00000  Uiso   1.00
N184   N     0.56226   0.57611   0.71572   0.00000  Uiso   1.00
C185   C     0.21721   0.55269   0.19714   0.00000  Uiso   1.00
C186   C     0.24874   0.64467   0.17173   0.00000  Uiso   1.00
C187   C     0.31160   0.65666   0.20798   0.00000  Uiso   1.00
C188   C     0.33133   0.74631   0.17578   0.00000  Uiso   1.00
C189   C     0.38663   0.87768   0.14636   0.00000  Uiso   1.00
C190   C     0.17373   0.45655   0.13082   0.00000  Uiso   1.00
C191   C     0.17353   0.31038   0.13269   0.00000  Uiso   1.00
C192   C     0.13011   0.24169   0.06606   0.00000  Uiso   1.00
C193   C     0.06894   0.08101   0.97315   0.00000  Uiso   1.00
C194   C     0.17655   0.65135   0.20549   0.00000  Uiso   1.00
C195   C     0.17871   0.66895   0.27013   0.00000  Uiso   1.00
C196   C     0.13765   0.76425   0.26635   0.00000  Uiso   1.00
C197   C     0.08086   0.90602   0.28937   0.00000  Uiso   1.00
C198   C     0.14045   0.69060   0.07550   0.00000  Uiso   1.00
C199   C     0.20705   0.71957   0.10566   0.00000  Uiso   1.00
C200   C     0.22668   0.80924   0.07340   0.00000  Uiso   1.00
C201   C     0.28957   0.82136   0.10960   0.00000  Uiso   1.00
C202   C     0.13204   0.53145   0.06476   0.00000  Uiso   1.00
C203   C     0.08861   0.46296   0.99811   0.00000  Uiso   1.00
C204   C     0.08835   0.31673   0.99987   0.00000  Uiso   1.00
C205   C     0.13486   0.72626   0.13942   0.00000  Uiso   1.00
C206   C     0.09379   0.82154   0.13555   0.00000  Uiso   1.00
C207   C     0.09589   0.83928   0.20016   0.00000  Uiso   1.00
H208   H     0.24966   0.49437   0.24857   0.00000  Uiso   1.00
H209   H     0.34385   0.59866   0.25911   0.00000  Uiso   1.00
H210   H     0.20579   0.25245   0.18383   0.00000  Uiso   1.00
H211   H     0.21097   0.61097   0.32124   0.00000  Uiso   1.00
H212   H     0.42989   0.74728   0.24163   0.00000  Uiso   1.00
H213   H     0.13878   0.01727   0.08291   0.00000  Uiso   1.00
H214   H     0.14970   0.77328   0.37268   0.00000  Uiso   1.00
H215   H     0.10800   0.74892   0.02406   0.00000  Uiso   1.00
H216   H     0.19441   0.86719   0.02227   0.00000  Uiso   1.00
H217   H     0.05636   0.52096   0.94699   0.00000  Uiso   1.00
H218   H     0.06154   0.87948   0.08441   0.00000  Uiso   1.00
H219   H     0.30860   0.96522   0.04941   0.00000  Uiso   1.00
H220   H     0.01749   0.23520   0.89069   0.00000  Uiso   1.00
H221   H     0.02842   0.99122   0.18045   0.00000  Uiso   1.00
O222   O     0.42865   0.92942   0.14838   0.00000  Uiso   1.00
O223   O     0.04672   0.97168   0.94015   0.00000  Uiso   1.00
O224   O     0.06105   0.96354   0.32032   0.00000  Uiso   1.00
N225   N     0.38948   0.78237   0.19665   0.00000  Uiso   1.00
N226   N     0.11732   0.09985   0.04825   0.00000  Uiso   1.00
N227   N     0.12752   0.80662   0.31915   0.00000  Uiso   1.00
N228   N     0.32422   0.89964   0.09321   0.00000  Uiso   1.00
N229   N     0.05206   0.21712   0.94481   0.00000  Uiso   1.00
N230   N     0.06226   0.92389   0.21572   0.00000  Uiso   1.00
C231   C     0.71721   0.05269   0.19714   0.00000  Uiso   1.00
C232   C     0.74874   0.14467   0.17173   0.00000  Uiso   1.00
C233   C     0.81160   0.15666   0.20798   0.00000  Uiso   1.00
C234   C     0.83133   0.24631   0.17578   0.00000  Uiso   1.00
C235   C     0.88663   0.37768   0.14636   0.00000  Uiso   1.00
C236   C     0.67373   0.95655   0.13082   0.00000  Uiso   1.00
C237   C     0.67353   0.81038   0.13269   0.00000  Uiso   1.00
C238   C     0.63011   0.74169   0.06606   0.00000  Uiso   1.00
C239   C     0.56894   0.58101   0.97315   0.00000  Uiso   1.00
C240   C     0.67655   0.15135   0.20549   0.00000  Uiso   1.00
C241   C     0.67871   0.16895   0.27013   0.00000  Uiso   1.00
C242   C     0.63765   0.26425   0.26635   0.00000  Uiso   1.00
C243   C     0.58086   0.40602   0.28937   0.00000  Uiso   1.00
C244   C     0.64045   0.19060   0.07550   0.00000  Uiso   1.00
C245   C     0.70705   0.21957   0.10566   0.00000  Uiso   1.00
C246   C     0.72668   0.30924   0.07340   0.00000  Uiso   1.00
C247   C     0.78957   0.32136   0.10960   0.00000  Uiso   1.00
C248   C     0.63204   0.03145   0.06476   0.00000  Uiso   1.00
C249   C     0.58861   0.96296   0.99811   0.00000  Uiso   1.00
C250   C     0.58835   0.81673   0.99987   0.00000  Uiso   1.00
C251   C     0.63486   0.22626   0.13942   0.00000  Uiso   1.00
C252   C     0.59379   0.32154   0.13555   0.00000  Uiso   1.00
C253   C     0.59589   0.33928   0.20016   0.00000  Uiso   1.00
H254   H     0.74966   0.99437   0.24857   0.00000  Uiso   1.00
H255   H     0.84385   0.09866   0.25911   0.00000  Uiso   1.00
H256   H     0.70579   0.75245   0.18383   0.00000  Uiso   1.00
H257   H     0.71097   0.11097   0.32124   0.00000  Uiso   1.00
H258   H     0.92989   0.24728   0.24163   0.00000  Uiso   1.00
H259   H     0.63878   0.51727   0.08291   0.00000  Uiso   1.00
H260   H     0.64970   0.27328   0.37268   0.00000  Uiso   1.00
H261   H     0.60800   0.24892   0.02406   0.00000  Uiso   1.00
H262   H     0.69441   0.36719   0.02227   0.00000  Uiso   1.00
H263   H     0.55636   0.02096   0.94699   0.00000  Uiso   1.00
H264   H     0.56154   0.37948   0.08441   0.00000  Uiso   1.00
H265   H     0.80860   0.46522   0.04941   0.00000  Uiso   1.00
H266   H     0.51749   0.73520   0.89069   0.00000  Uiso   1.00
H267   H     0.52842   0.49122   0.18045   0.00000  Uiso   1.00
O268   O     0.92865   0.42942   0.14838   0.00000  Uiso   1.00
O269   O     0.54672   0.47168   0.94015   0.00000  Uiso   1.00
O270   O     0.56105   0.46354   0.32032   0.00000  Uiso   1.00
N271   N     0.88948   0.28237   0.19665   0.00000  Uiso   1.00
N272   N     0.61732   0.59985   0.04825   0.00000  Uiso   1.00
N273   N     0.62752   0.30662   0.31915   0.00000  Uiso   1.00
N274   N     0.82422   0.39964   0.09321   0.00000  Uiso   1.00
N275   N     0.55206   0.71712   0.94481   0.00000  Uiso   1.00
N276   N     0.56226   0.42389   0.21572   0.00000  Uiso   1.00
C277   C     0.78279   0.55269   0.30286   0.00000  Uiso   1.00
C278   C     0.75126   0.64467   0.32827   0.00000  Uiso   1.00
C279   C     0.68840   0.65666   0.29202   0.00000  Uiso   1.00
C280   C     0.66867   0.74631   0.32422   0.00000  Uiso   1.00
C281   C     0.61337   0.87768   0.35364   0.00000  Uiso   1.00
C282   C     0.82627   0.45655   0.36918   0.00000  Uiso   1.00
C283   C     0.82647   0.31038   0.36731   0.00000  Uiso   1.00
C284   C     0.86989   0.24169   0.43394   0.00000  Uiso   1.00
C285   C     0.93106   0.08101   0.52685   0.00000  Uiso   1.00
C286   C     0.82345   0.65135   0.29451   0.00000  Uiso   1.00
C287   C     0.82129   0.66895   0.22987   0.00000  Uiso   1.00
C288   C     0.86235   0.76425   0.23365   0.00000  Uiso   1.00
C289   C     0.91914   0.90602   0.21063   0.00000  Uiso   1.00
C290   C     0.85955   0.69060   0.42450   0.00000  Uiso   1.00
C291   C     0.79295   0.71957   0.39434   0.00000  Uiso   1.00
C292   C     0.77332   0.80924   0.42660   0.00000  Uiso   1.00
C293   C     0.71043   0.82136   0.39040   0.00000  Uiso   1.00
C294   C     0.86796   0.53145   0.43524   0.00000  Uiso   1.00
C295   C     0.91139   0.46296   0.50189   0.00000  Uiso   1.00
C296   C     0.91165   0.31673   0.50013   0.00000  Uiso   1.00
C297   C     0.86514   0.72626   0.36058   0.00000  Uiso   1.00
C298   C     0.90621   0.82154   0.36445   0.00000  Uiso   1.00
C299   C     0.90411   0.83928   0.29984   0.00000  Uiso   1.00
H300   H     0.75034   0.49437   0.25143   0.00000  Uiso   1.00
H301   H     0.65615   0.59866   0.24089   0.00000  Uiso   1.00
H302   H     0.79421   0.25245   0.31617   0.00000  Uiso   1.00
H303   H     0.78903   0.61097   0.17876   0.00000  Uiso   1.00
H304   H     0.57011   0.74728   0.25837   0.00000  Uiso   1.00
H305   H     0.86122   0.01727   0.41709   0.00000  Uiso   1.00
H306   H     0.85030   0.77328   0.12732   0.00000  Uiso   1.00
H307   H     0.89200   0.74892   0.47594   0.00000  Uiso   1.00
H308   H     0.80559   0.86719   0.47773   0.00000  Uiso   1.00
H309   H     0.94364   0.52096   0.55301   0.00000  Uiso   1.00
H310   H     0.93846   0.87948   0.41559   0.00000  Uiso   1.00
H311   H     0.69140   0.96522   0.45059   0.00000  Uiso   1.00
H312   H     0.98251   0.23520   0.60931   0.00000  Uiso   1.00
H313   H     0.97158   0.99122   0.31955   0.00000  Uiso   1.00
O314   O     0.57135   0.92942   0.35162   0.00000  Uiso   1.00
O315   O     0.95328   0.97168   0.55985   0.00000  Uiso   1.00
O316   O     0.93895   0.96354   0.17968   0.00000  Uiso   1.00
N317   N     0.61052   0.78237   0.30335   0.00000  Uiso   1.00
N318   N     0.88268   0.09985   0.45175   0.00000  Uiso   1.00
N319   N     0.87248   0.80662   0.18085   0.00000  Uiso   1.00
N320   N     0.67578   0.89964   0.40679   0.00000  Uiso   1.00
N321   N     0.94794   0.21712   0.55519   0.00000  Uiso   1.00
N322   N     0.93774   0.92389   0.28428   0.00000  Uiso   1.00
C323   C     0.28279   0.05269   0.30286   0.00000  Uiso   1.00
C324   C     0.25126   0.14467   0.32827   0.00000  Uiso   1.00
C325   C     0.18840   0.15666   0.29202   0.00000  Uiso   1.00
C326   C     0.16867   0.24631   0.32422   0.00000  Uiso   1.00
C327   C     0.11337   0.37768   0.35364   0.00000  Uiso   1.00
C328   C     0.32627   0.95655   0.36918   0.00000  Uiso   1.00
C329   C     0.32647   0.81038   0.36731   0.00000  Uiso   1.00
C330   C     0.36989   0.74169   0.43394   0.00000  Uiso   1.00
C331   C     0.43106   0.58101   0.52685   0.00000  Uiso   1.00
C332   C     0.32345   0.15135   0.29451   0.00000  Uiso   1.00
C333   C     0.32129   0.16895   0.22987   0.00000  Uiso   1.00
C334   C     0.36235   0.26425   0.23365   0.00000  Uiso   1.00
C335   C     0.41914   0.40602   0.21063   0.00000  Uiso   1.00
C336   C     0.35955   0.19060   0.42450   0.00000  Uiso   1.00
C337   C     0.29295   0.21957   0.39434   0.00000  Uiso   1.00
C338   C     0.27332   0.30924   0.42660   0.00000  Uiso   1.00
C339   C     0.21043   0.32136   0.39040   0.00000  Uiso   1.00
C340   C     0.36796   0.03145   0.43524   0.00000  Uiso   1.00
C341   C     0.41139   0.96296   0.50189   0.00000  Uiso   1.00
C342   C     0.41165   0.81673   0.50013   0.00000  Uiso   1.00
C343   C     0.36514   0.22626   0.36058   0.00000  Uiso   1.00
C344   C     0.40621   0.32154   0.36445   0.00000  Uiso   1.00
C345   C     0.40411   0.33928   0.29984   0.00000  Uiso   1.00
H346   H     0.25034   0.99437   0.25143   0.00000  Uiso   1.00
H347   H     0.15615   0.09866   0.24089   0.00000  Uiso   1.00
H348   H     0.29421   0.75245   0.31617   0.00000  Uiso   1.00
H349   H     0.28903   0.11097   0.17876   0.00000  Uiso   1.00
H350   H     0.07011   0.24728   0.25837   0.00000  Uiso   1.00
H351   H     0.36122   0.51727   0.41709   0.00000  Uiso   1.00
H352   H     0.35030   0.27328   0.12732   0.00000  Uiso   1.00
H353   H     0.39200   0.24892   0.47594   0.00000  Uiso   1.00
H354   H     0.30559   0.36719   0.47773   0.00000  Uiso   1.00
H355   H     0.44364   0.02096   0.55301   0.00000  Uiso   1.00
H356   H     0.43846   0.37948   0.41559   0.00000  Uiso   1.00
H357   H     0.19140   0.46522   0.45059   0.00000  Uiso   1.00
H358   H     0.48251   0.73520   0.60931   0.00000  Uiso   1.00
H359   H     0.47158   0.49122   0.31955   0.00000  Uiso   1.00
O360   O     0.07135   0.42942   0.35162   0.00000  Uiso   1.00
O361   O     0.45328   0.47168   0.55985   0.00000  Uiso   1.00
O362   O     0.43895   0.46354   0.17968   0.00000  Uiso   1.00
N363   N     0.11052   0.28237   0.30335   0.00000  Uiso   1.00
N364   N     0.38268   0.59985   0.45175   0.00000  Uiso   1.00
N365   N     0.37248   0.30662   0.18085   0.00000  Uiso   1.00
N366   N     0.17578   0.39964   0.40679   0.00000  Uiso   1.00
N367   N     0.44794   0.71712   0.55519   0.00000  Uiso   1.00
N368   N     0.43774   0.42389   0.28428   0.00000  Uiso   1.00
