data_job_04720
_audit_creation_date              2018-12-19
_audit_creation_method            'Materials Studio'
_symmetry_space_group_name_H-M    'P1'
_symmetry_Int_Tables_number       1
_symmetry_cell_setting            triclinic
loop_
_symmetry_equiv_pos_as_xyz
  x,y,z
_cell_length_a                    18.8643
_cell_length_b                    18.8643
_cell_length_c                    12.3963
_cell_angle_alpha                 90.0000
_cell_angle_beta                  90.0000
_cell_angle_gamma                 120.0000
loop_
_atom_site_label
_atom_site_type_symbol
_atom_site_fract_x
_atom_site_fract_y
_atom_site_fract_z
_atom_site_U_iso_or_equiv
_atom_site_adp_type
_atom_site_occupancy
C1     C     0.76286   0.17151   0.55970   0.00000  Uiso   1.00
C2     C     0.80787   0.15137   0.47366   0.00000  Uiso   1.00
C3     C     0.83296   0.18925   0.37389   0.00000  Uiso   1.00
C4     C     0.87323   0.16200   0.30659   0.00000  Uiso   1.00
C5     C     0.94086   0.14026   0.16820   0.00000  Uiso   1.00
C6     C     0.68426   0.09153   0.58357   0.00000  Uiso   1.00
C7     C     0.60543   0.07910   0.57622   0.00000  Uiso   1.00
C8     C     0.54165   0.00148   0.60146   0.00000  Uiso   1.00
C9     C     0.41738   0.88685   0.63378   0.00000  Uiso   1.00
C10    C     0.81488   0.19232   0.66153   0.00000  Uiso   1.00
C11    C     0.84585   0.26462   0.71976   0.00000  Uiso   1.00
C12    C     0.89201   0.27186   0.81065   0.00000  Uiso   1.00
C13    C     0.97054   0.31372   0.96402   0.00000  Uiso   1.00
C14    C     0.78976   0.05577   0.61759   0.00000  Uiso   1.00
C15    C     0.82248   0.08850   0.50511   0.00000  Uiso   1.00
C16    C     0.86272   0.06119   0.43795   0.00000  Uiso   1.00
C17    C     0.88787   0.09902   0.33810   0.00000  Uiso   1.00
C18    C     0.69887   0.02866   0.61501   0.00000  Uiso   1.00
C19    C     0.63519   0.95104   0.64028   0.00000  Uiso   1.00
C20    C     0.55628   0.93850   0.63296   0.00000  Uiso   1.00
C21    C     0.82949   0.12945   0.69298   0.00000  Uiso   1.00
C22    C     0.87561   0.13657   0.78381   0.00000  Uiso   1.00
C23    C     0.90665   0.20887   0.84216   0.00000  Uiso   1.00
H24    H     0.75148   0.22045   0.53522   0.00000  Uiso   1.00
H25    H     0.82164   0.23789   0.34958   0.00000  Uiso   1.00
H26    H     0.59415   0.12776   0.55190   0.00000  Uiso   1.00
H27    H     0.83453   0.31326   0.69540   0.00000  Uiso   1.00
H28    H     0.90584   0.22948   0.15763   0.00000  Uiso   1.00
H29    H     0.42616   0.99728   0.58425   0.00000  Uiso   1.00
H30    H     0.93304   0.38843   0.88686   0.00000  Uiso   1.00
H31    H     0.80113   0.00682   0.64207   0.00000  Uiso   1.00
H32    H     0.87402   0.01254   0.46230   0.00000  Uiso   1.00
H33    H     0.64652   0.90241   0.66461   0.00000  Uiso   1.00
H34    H     0.88690   0.08791   0.80812   0.00000  Uiso   1.00
H35    H     0.94835   0.04657   0.24911   0.00000  Uiso   1.00
H36    H     0.46866   0.81437   0.67574   0.00000  Uiso   1.00
H37    H     0.97555   0.20553   0.97835   0.00000  Uiso   1.00
O38    O     0.97412   0.14562   0.08317   0.00000  Uiso   1.00
O39    O     0.34480   0.84099   0.64290   0.00000  Uiso   1.00
O40    O     0.00982   0.35418   0.03991   0.00000  Uiso   1.00
N41    N     0.90585   0.18566   0.20384   0.00000  Uiso   1.00
N42    N     0.45738   0.96856   0.60269   0.00000  Uiso   1.00
N43    N     0.93126   0.33425   0.88562   0.00000  Uiso   1.00
N44    N     0.92873   0.08724   0.25307   0.00000  Uiso   1.00
N45    N     0.48025   0.87014   0.65191   0.00000  Uiso   1.00
N46    N     0.95413   0.23583   0.93485   0.00000  Uiso   1.00
C47    C     0.82849   0.59135   0.55970   0.00000  Uiso   1.00
C48    C     0.84863   0.65650   0.47366   0.00000  Uiso   1.00
C49    C     0.81075   0.64372   0.37389   0.00000  Uiso   1.00
C50    C     0.83800   0.71123   0.30659   0.00000  Uiso   1.00
C51    C     0.85974   0.80060   0.16820   0.00000  Uiso   1.00
C52    C     0.90847   0.59274   0.58357   0.00000  Uiso   1.00
C53    C     0.92090   0.52633   0.57622   0.00000  Uiso   1.00
C54    C     0.99852   0.54017   0.60146   0.00000  Uiso   1.00
C55    C     0.11315   0.53053   0.63378   0.00000  Uiso   1.00
C56    C     0.80768   0.62256   0.66153   0.00000  Uiso   1.00
C57    C     0.73538   0.58122   0.71976   0.00000  Uiso   1.00
C58    C     0.72814   0.62016   0.81065   0.00000  Uiso   1.00
C59    C     0.68628   0.65682   0.96402   0.00000  Uiso   1.00
C60    C     0.94423   0.73399   0.61759   0.00000  Uiso   1.00
C61    C     0.91150   0.73398   0.50511   0.00000  Uiso   1.00
C62    C     0.93881   0.80153   0.43795   0.00000  Uiso   1.00
C63    C     0.90098   0.78885   0.33810   0.00000  Uiso   1.00
C64    C     0.97134   0.67021   0.61501   0.00000  Uiso   1.00
C65    C     0.04896   0.68415   0.64028   0.00000  Uiso   1.00
C66    C     0.06150   0.61778   0.63296   0.00000  Uiso   1.00
C67    C     0.87055   0.70004   0.69298   0.00000  Uiso   1.00
C68    C     0.86343   0.73904   0.78381   0.00000  Uiso   1.00
C69    C     0.79113   0.69777   0.84216   0.00000  Uiso   1.00
H70    H     0.77955   0.53103   0.53522   0.00000  Uiso   1.00
H71    H     0.76211   0.58375   0.34958   0.00000  Uiso   1.00
H72    H     0.87224   0.46638   0.55190   0.00000  Uiso   1.00
H73    H     0.68674   0.52127   0.69540   0.00000  Uiso   1.00
H74    H     0.77052   0.67636   0.15763   0.00000  Uiso   1.00
H75    H     0.00272   0.42888   0.58425   0.00000  Uiso   1.00
H76    H     0.61157   0.54461   0.88686   0.00000  Uiso   1.00
H77    H     0.99318   0.79431   0.64207   0.00000  Uiso   1.00
H78    H     0.98746   0.86148   0.46230   0.00000  Uiso   1.00
H79    H     0.09759   0.74411   0.66461   0.00000  Uiso   1.00
H80    H     0.91209   0.79900   0.80812   0.00000  Uiso   1.00
H81    H     0.95343   0.90177   0.24911   0.00000  Uiso   1.00
H82    H     0.18563   0.65429   0.67574   0.00000  Uiso   1.00
H83    H     0.79447   0.77003   0.97835   0.00000  Uiso   1.00
O84    O     0.85438   0.82849   0.08317   0.00000  Uiso   1.00
O85    O     0.15901   0.50381   0.64290   0.00000  Uiso   1.00
O86    O     0.64582   0.65565   0.03991   0.00000  Uiso   1.00
N87    N     0.81434   0.72019   0.20384   0.00000  Uiso   1.00
N88    N     0.03144   0.48882   0.60269   0.00000  Uiso   1.00
N89    N     0.66575   0.59701   0.88562   0.00000  Uiso   1.00
N90    N     0.91276   0.84149   0.25307   0.00000  Uiso   1.00
N91    N     0.12986   0.61011   0.65191   0.00000  Uiso   1.00
N92    N     0.76417   0.71830   0.93485   0.00000  Uiso   1.00
C93    C     0.40865   0.23714   0.55970   0.00000  Uiso   1.00
C94    C     0.34350   0.19213   0.47366   0.00000  Uiso   1.00
C95    C     0.35628   0.16704   0.37389   0.00000  Uiso   1.00
C96    C     0.28877   0.12677   0.30659   0.00000  Uiso   1.00
C97    C     0.19940   0.05914   0.16820   0.00000  Uiso   1.00
C98    C     0.40726   0.31574   0.58357   0.00000  Uiso   1.00
C99    C     0.47367   0.39457   0.57622   0.00000  Uiso   1.00
C100   C     0.45983   0.45835   0.60146   0.00000  Uiso   1.00
C101   C     0.46947   0.58262   0.63378   0.00000  Uiso   1.00
C102   C     0.37744   0.18512   0.66153   0.00000  Uiso   1.00
C103   C     0.41878   0.15415   0.71976   0.00000  Uiso   1.00
C104   C     0.37984   0.10799   0.81065   0.00000  Uiso   1.00
C105   C     0.34318   0.02946   0.96402   0.00000  Uiso   1.00
C106   C     0.26601   0.21024   0.61759   0.00000  Uiso   1.00
C107   C     0.26602   0.17752   0.50511   0.00000  Uiso   1.00
C108   C     0.19847   0.13728   0.43795   0.00000  Uiso   1.00
C109   C     0.21115   0.11213   0.33810   0.00000  Uiso   1.00
C110   C     0.32979   0.30113   0.61501   0.00000  Uiso   1.00
C111   C     0.31585   0.36481   0.64028   0.00000  Uiso   1.00
C112   C     0.38222   0.44372   0.63296   0.00000  Uiso   1.00
C113   C     0.29996   0.17051   0.69298   0.00000  Uiso   1.00
C114   C     0.26096   0.12439   0.78381   0.00000  Uiso   1.00
C115   C     0.30223   0.09335   0.84216   0.00000  Uiso   1.00
H116   H     0.46897   0.24852   0.53522   0.00000  Uiso   1.00
H117   H     0.41625   0.17836   0.34958   0.00000  Uiso   1.00
H118   H     0.53362   0.40585   0.55190   0.00000  Uiso   1.00
H119   H     0.47873   0.16547   0.69540   0.00000  Uiso   1.00
H120   H     0.32364   0.09416   0.15763   0.00000  Uiso   1.00
H121   H     0.57112   0.57384   0.58425   0.00000  Uiso   1.00
H122   H     0.45539   0.06696   0.88686   0.00000  Uiso   1.00
H123   H     0.20569   0.19887   0.64207   0.00000  Uiso   1.00
H124   H     0.13852   0.12598   0.46230   0.00000  Uiso   1.00
H125   H     0.25589   0.35348   0.66461   0.00000  Uiso   1.00
H126   H     0.20100   0.11310   0.80812   0.00000  Uiso   1.00
H127   H     0.09823   0.05165   0.24911   0.00000  Uiso   1.00
H128   H     0.34571   0.53134   0.67574   0.00000  Uiso   1.00
H129   H     0.22997   0.02445   0.97835   0.00000  Uiso   1.00
O130   O     0.17151   0.02588   0.08317   0.00000  Uiso   1.00
O131   O     0.49619   0.65520   0.64290   0.00000  Uiso   1.00
O132   O     0.34435   0.99018   0.03991   0.00000  Uiso   1.00
N133   N     0.27981   0.09415   0.20384   0.00000  Uiso   1.00
N134   N     0.51118   0.54262   0.60269   0.00000  Uiso   1.00
N135   N     0.40299   0.06874   0.88562   0.00000  Uiso   1.00
N136   N     0.15851   0.07127   0.25307   0.00000  Uiso   1.00
N137   N     0.38989   0.51975   0.65191   0.00000  Uiso   1.00
N138   N     0.28170   0.04587   0.93485   0.00000  Uiso   1.00
C139   C     0.17151   0.76286   0.05970   0.00000  Uiso   1.00
C140   C     0.15137   0.80787   0.97366   0.00000  Uiso   1.00
C141   C     0.18925   0.83296   0.87389   0.00000  Uiso   1.00
C142   C     0.16200   0.87323   0.80659   0.00000  Uiso   1.00
C143   C     0.14026   0.94086   0.66820   0.00000  Uiso   1.00
C144   C     0.09153   0.68426   0.08357   0.00000  Uiso   1.00
C145   C     0.07910   0.60543   0.07622   0.00000  Uiso   1.00
C146   C     0.00148   0.54165   0.10146   0.00000  Uiso   1.00
C147   C     0.88685   0.41738   0.13378   0.00000  Uiso   1.00
C148   C     0.19232   0.81488   0.16153   0.00000  Uiso   1.00
C149   C     0.26462   0.84585   0.21976   0.00000  Uiso   1.00
C150   C     0.27186   0.89201   0.31065   0.00000  Uiso   1.00
C151   C     0.31372   0.97054   0.46402   0.00000  Uiso   1.00
C152   C     0.05577   0.78976   0.11759   0.00000  Uiso   1.00
C153   C     0.08850   0.82248   0.00511   0.00000  Uiso   1.00
C154   C     0.06119   0.86272   0.93795   0.00000  Uiso   1.00
C155   C     0.09902   0.88787   0.83810   0.00000  Uiso   1.00
C156   C     0.02866   0.69887   0.11501   0.00000  Uiso   1.00
C157   C     0.95104   0.63519   0.14028   0.00000  Uiso   1.00
C158   C     0.93850   0.55628   0.13296   0.00000  Uiso   1.00
C159   C     0.12945   0.82949   0.19298   0.00000  Uiso   1.00
C160   C     0.13657   0.87561   0.28381   0.00000  Uiso   1.00
C161   C     0.20887   0.90665   0.34216   0.00000  Uiso   1.00
H162   H     0.22045   0.75148   0.03522   0.00000  Uiso   1.00
H163   H     0.23789   0.82164   0.84958   0.00000  Uiso   1.00
H164   H     0.12776   0.59415   0.05190   0.00000  Uiso   1.00
H165   H     0.31326   0.83453   0.19540   0.00000  Uiso   1.00
H166   H     0.22948   0.90584   0.65763   0.00000  Uiso   1.00
H167   H     0.99728   0.42616   0.08425   0.00000  Uiso   1.00
H168   H     0.38843   0.93304   0.38686   0.00000  Uiso   1.00
H169   H     0.00682   0.80113   0.14207   0.00000  Uiso   1.00
H170   H     0.01254   0.87402   0.96230   0.00000  Uiso   1.00
H171   H     0.90241   0.64652   0.16461   0.00000  Uiso   1.00
H172   H     0.08791   0.88690   0.30812   0.00000  Uiso   1.00
H173   H     0.04657   0.94835   0.74911   0.00000  Uiso   1.00
H174   H     0.81437   0.46866   0.17574   0.00000  Uiso   1.00
H175   H     0.20553   0.97555   0.47835   0.00000  Uiso   1.00
O176   O     0.14562   0.97412   0.58317   0.00000  Uiso   1.00
O177   O     0.84099   0.34480   0.14290   0.00000  Uiso   1.00
O178   O     0.35418   0.00982   0.53991   0.00000  Uiso   1.00
N179   N     0.18566   0.90585   0.70384   0.00000  Uiso   1.00
N180   N     0.96856   0.45738   0.10269   0.00000  Uiso   1.00
N181   N     0.33425   0.93126   0.38562   0.00000  Uiso   1.00
N182   N     0.08724   0.92873   0.75307   0.00000  Uiso   1.00
N183   N     0.87014   0.48025   0.15191   0.00000  Uiso   1.00
N184   N     0.23583   0.95413   0.43485   0.00000  Uiso   1.00
C185   C     0.59135   0.82849   0.05970   0.00000  Uiso   1.00
C186   C     0.65650   0.84863   0.97366   0.00000  Uiso   1.00
C187   C     0.64372   0.81075   0.87389   0.00000  Uiso   1.00
C188   C     0.71123   0.83800   0.80659   0.00000  Uiso   1.00
C189   C     0.80060   0.85974   0.66820   0.00000  Uiso   1.00
C190   C     0.59274   0.90847   0.08357   0.00000  Uiso   1.00
C191   C     0.52633   0.92090   0.07622   0.00000  Uiso   1.00
C192   C     0.54017   0.99852   0.10146   0.00000  Uiso   1.00
C193   C     0.53053   0.11315   0.13378   0.00000  Uiso   1.00
C194   C     0.62256   0.80768   0.16153   0.00000  Uiso   1.00
C195   C     0.58122   0.73538   0.21976   0.00000  Uiso   1.00
C196   C     0.62016   0.72814   0.31065   0.00000  Uiso   1.00
C197   C     0.65682   0.68628   0.46402   0.00000  Uiso   1.00
C198   C     0.73399   0.94423   0.11759   0.00000  Uiso   1.00
C199   C     0.73398   0.91150   0.00511   0.00000  Uiso   1.00
C200   C     0.80153   0.93881   0.93795   0.00000  Uiso   1.00
C201   C     0.78885   0.90098   0.83810   0.00000  Uiso   1.00
C202   C     0.67021   0.97134   0.11501   0.00000  Uiso   1.00
C203   C     0.68415   0.04896   0.14028   0.00000  Uiso   1.00
C204   C     0.61778   0.06150   0.13296   0.00000  Uiso   1.00
C205   C     0.70004   0.87055   0.19298   0.00000  Uiso   1.00
C206   C     0.73904   0.86343   0.28381   0.00000  Uiso   1.00
C207   C     0.69777   0.79113   0.34216   0.00000  Uiso   1.00
H208   H     0.53103   0.77955   0.03522   0.00000  Uiso   1.00
H209   H     0.58375   0.76211   0.84958   0.00000  Uiso   1.00
H210   H     0.46638   0.87224   0.05190   0.00000  Uiso   1.00
H211   H     0.52127   0.68674   0.19540   0.00000  Uiso   1.00
H212   H     0.67636   0.77052   0.65763   0.00000  Uiso   1.00
H213   H     0.42888   0.00272   0.08425   0.00000  Uiso   1.00
H214   H     0.54461   0.61157   0.38686   0.00000  Uiso   1.00
H215   H     0.79431   0.99318   0.14207   0.00000  Uiso   1.00
H216   H     0.86148   0.98746   0.96230   0.00000  Uiso   1.00
H217   H     0.74411   0.09759   0.16461   0.00000  Uiso   1.00
H218   H     0.79900   0.91209   0.30812   0.00000  Uiso   1.00
H219   H     0.90177   0.95343   0.74911   0.00000  Uiso   1.00
H220   H     0.65429   0.18563   0.17574   0.00000  Uiso   1.00
H221   H     0.77003   0.79447   0.47835   0.00000  Uiso   1.00
O222   O     0.82849   0.85438   0.58317   0.00000  Uiso   1.00
O223   O     0.50381   0.15901   0.14290   0.00000  Uiso   1.00
O224   O     0.65565   0.64582   0.53991   0.00000  Uiso   1.00
N225   N     0.72019   0.81434   0.70384   0.00000  Uiso   1.00
N226   N     0.48882   0.03144   0.10269   0.00000  Uiso   1.00
N227   N     0.59701   0.66575   0.38562   0.00000  Uiso   1.00
N228   N     0.84149   0.91276   0.75307   0.00000  Uiso   1.00
N229   N     0.61011   0.12986   0.15191   0.00000  Uiso   1.00
N230   N     0.71830   0.76417   0.43485   0.00000  Uiso   1.00
C231   C     0.23714   0.40865   0.05970   0.00000  Uiso   1.00
C232   C     0.19213   0.34350   0.97366   0.00000  Uiso   1.00
C233   C     0.16704   0.35628   0.87389   0.00000  Uiso   1.00
C234   C     0.12677   0.28877   0.80659   0.00000  Uiso   1.00
C235   C     0.05914   0.19940   0.66820   0.00000  Uiso   1.00
C236   C     0.31574   0.40726   0.08357   0.00000  Uiso   1.00
C237   C     0.39457   0.47367   0.07622   0.00000  Uiso   1.00
C238   C     0.45835   0.45983   0.10146   0.00000  Uiso   1.00
C239   C     0.58262   0.46947   0.13378   0.00000  Uiso   1.00
C240   C     0.18512   0.37744   0.16153   0.00000  Uiso   1.00
C241   C     0.15415   0.41878   0.21976   0.00000  Uiso   1.00
C242   C     0.10799   0.37984   0.31065   0.00000  Uiso   1.00
C243   C     0.02946   0.34318   0.46402   0.00000  Uiso   1.00
C244   C     0.21024   0.26601   0.11759   0.00000  Uiso   1.00
C245   C     0.17752   0.26602   0.00511   0.00000  Uiso   1.00
C246   C     0.13728   0.19847   0.93795   0.00000  Uiso   1.00
C247   C     0.11213   0.21115   0.83810   0.00000  Uiso   1.00
C248   C     0.30113   0.32979   0.11501   0.00000  Uiso   1.00
C249   C     0.36481   0.31585   0.14028   0.00000  Uiso   1.00
C250   C     0.44372   0.38222   0.13296   0.00000  Uiso   1.00
C251   C     0.17051   0.29996   0.19298   0.00000  Uiso   1.00
C252   C     0.12439   0.26096   0.28381   0.00000  Uiso   1.00
C253   C     0.09335   0.30223   0.34216   0.00000  Uiso   1.00
H254   H     0.24852   0.46897   0.03522   0.00000  Uiso   1.00
H255   H     0.17836   0.41625   0.84958   0.00000  Uiso   1.00
H256   H     0.40585   0.53362   0.05190   0.00000  Uiso   1.00
H257   H     0.16547   0.47873   0.19540   0.00000  Uiso   1.00
H258   H     0.09416   0.32364   0.65763   0.00000  Uiso   1.00
H259   H     0.57384   0.57112   0.08425   0.00000  Uiso   1.00
H260   H     0.06696   0.45539   0.38686   0.00000  Uiso   1.00
H261   H     0.19887   0.20569   0.14207   0.00000  Uiso   1.00
H262   H     0.12598   0.13852   0.96230   0.00000  Uiso   1.00
H263   H     0.35348   0.25589   0.16461   0.00000  Uiso   1.00
H264   H     0.11310   0.20100   0.30812   0.00000  Uiso   1.00
H265   H     0.05165   0.09823   0.74911   0.00000  Uiso   1.00
H266   H     0.53134   0.34571   0.17574   0.00000  Uiso   1.00
H267   H     0.02445   0.22997   0.47835   0.00000  Uiso   1.00
O268   O     0.02588   0.17151   0.58317   0.00000  Uiso   1.00
O269   O     0.65520   0.49619   0.14290   0.00000  Uiso   1.00
O270   O     0.99018   0.34435   0.53991   0.00000  Uiso   1.00
N271   N     0.09415   0.27981   0.70384   0.00000  Uiso   1.00
N272   N     0.54262   0.51118   0.10269   0.00000  Uiso   1.00
N273   N     0.06874   0.40299   0.38562   0.00000  Uiso   1.00
N274   N     0.07127   0.15851   0.75307   0.00000  Uiso   1.00
N275   N     0.51975   0.38989   0.15191   0.00000  Uiso   1.00
N276   N     0.04587   0.28170   0.43485   0.00000  Uiso   1.00
