data_job_05030
_audit_creation_date              2018-12-19
_audit_creation_method            'Materials Studio'
_symmetry_space_group_name_H-M    'P1'
_symmetry_Int_Tables_number       1
_symmetry_cell_setting            triclinic
loop_
_symmetry_equiv_pos_as_xyz
  x,y,z
_cell_length_a                    7.1568
_cell_length_b                    23.1533
_cell_length_c                    30.4413
_cell_angle_alpha                 74.6952
_cell_angle_beta                  90.1208
_cell_angle_gamma                 90.0058
loop_
_atom_site_label
_atom_site_type_symbol
_atom_site_fract_x
_atom_site_fract_y
_atom_site_fract_z
_atom_site_U_iso_or_equiv
_atom_site_adp_type
_atom_site_occupancy
C1     C     0.56915   0.21459   0.10900   0.00000  Uiso   1.00
C2     C     0.65248   0.16861   0.08683   0.00000  Uiso   1.00
C3     C     0.55209   0.13155   0.06626   0.00000  Uiso   1.00
C4     C     0.65420   0.09253   0.04797   0.00000  Uiso   1.00
C5     C     0.75385   0.02140   0.01323   0.00000  Uiso   1.00
C6     C     0.64274   0.19846   0.15777   0.00000  Uiso   1.00
C7     C     0.53415   0.18651   0.19686   0.00000  Uiso   1.00
C8     C     0.62807   0.17263   0.23828   0.00000  Uiso   1.00
C9     C     0.71260   0.14789   0.31368   0.00000  Uiso   1.00
C10    C     0.65883   0.27437   0.08519   0.00000  Uiso   1.00
C11    C     0.56379   0.32624   0.06325   0.00000  Uiso   1.00
C12    C     0.67125   0.37628   0.04358   0.00000  Uiso   1.00
C13    C     0.78077   0.46939   0.00628   0.00000  Uiso   1.00
C14    C     0.92900   0.21121   0.11307   0.00000  Uiso   1.00
C15    C     0.84794   0.16677   0.08904   0.00000  Uiso   1.00
C16    C     0.95022   0.12781   0.07077   0.00000  Uiso   1.00
C17    C     0.85000   0.09070   0.05018   0.00000  Uiso   1.00
C18    C     0.83819   0.19662   0.15999   0.00000  Uiso   1.00
C19    C     0.93228   0.18277   0.20136   0.00000  Uiso   1.00
C20    C     0.82388   0.17079   0.24050   0.00000  Uiso   1.00
C21    C     0.85429   0.27253   0.08740   0.00000  Uiso   1.00
C22    C     0.96192   0.32250   0.06776   0.00000  Uiso   1.00
C23    C     0.86706   0.37444   0.04579   0.00000  Uiso   1.00
H24    H     0.41698   0.21602   0.10728   0.00000  Uiso   1.00
H25    H     0.40083   0.13298   0.06456   0.00000  Uiso   1.00
H26    H     0.38290   0.18794   0.19514   0.00000  Uiso   1.00
H27    H     0.41253   0.32765   0.06155   0.00000  Uiso   1.00
H28    H     0.46912   0.04009   0.01819   0.00000  Uiso   1.00
H29    H     0.43131   0.15599   0.29351   0.00000  Uiso   1.00
H30    H     0.49379   0.45060   0.01182   0.00000  Uiso   1.00
H31    H     0.08118   0.20978   0.11479   0.00000  Uiso   1.00
H32    H     0.10148   0.12640   0.07249   0.00000  Uiso   1.00
H33    H     0.08354   0.18135   0.20306   0.00000  Uiso   1.00
H34    H     0.11317   0.32106   0.06947   0.00000  Uiso   1.00
H35    H     0.03779   0.03475   0.02463   0.00000  Uiso   1.00
H36    H     0.99998   0.15065   0.29995   0.00000  Uiso   1.00
H37    H     0.06246   0.44526   0.01826   0.00000  Uiso   1.00
O38    O     0.75482   0.98267   0.99346   0.00000  Uiso   1.00
O39    O     0.70522   0.13474   0.35466   0.00000  Uiso   1.00
O40    O     0.78719   0.52125   0.98509   0.00000  Uiso   1.00
N41    N     0.60017   0.05029   0.02551   0.00000  Uiso   1.00
N42    N     0.56482   0.15864   0.28291   0.00000  Uiso   1.00
N43    N     0.62323   0.43407   0.01957   0.00000  Uiso   1.00
N44    N     0.90617   0.04741   0.02897   0.00000  Uiso   1.00
N45    N     0.87082   0.15576   0.28637   0.00000  Uiso   1.00
N46    N     0.92923   0.43120   0.02303   0.00000  Uiso   1.00
C47    C     0.01481   0.26157   0.40366   0.00000  Uiso   1.00
C48    C     0.09592   0.30606   0.42763   0.00000  Uiso   1.00
C49    C     0.99367   0.34504   0.44590   0.00000  Uiso   1.00
C50    C     0.09391   0.38221   0.46642   0.00000  Uiso   1.00
C51    C     0.19013   0.45159   0.50329   0.00000  Uiso   1.00
C52    C     0.10541   0.27611   0.35672   0.00000  Uiso   1.00
C53    C     0.01112   0.28990   0.31537   0.00000  Uiso   1.00
C54    C     0.11936   0.30185   0.27621   0.00000  Uiso   1.00
C55    C     0.23031   0.32468   0.20299   0.00000  Uiso   1.00
C56    C     0.08971   0.20028   0.42935   0.00000  Uiso   1.00
C57    C     0.98223   0.15029   0.44906   0.00000  Uiso   1.00
C58    C     0.07725   0.09839   0.47103   0.00000  Uiso   1.00
C59    C     0.16381   0.00349   0.51058   0.00000  Uiso   1.00
C60    C     0.37468   0.25827   0.40764   0.00000  Uiso   1.00
C61    C     0.29139   0.30427   0.42979   0.00000  Uiso   1.00
C62    C     0.39182   0.34139   0.45029   0.00000  Uiso   1.00
C63    C     0.28973   0.38041   0.46858   0.00000  Uiso   1.00
C64    C     0.30087   0.27432   0.35888   0.00000  Uiso   1.00
C65    C     0.40928   0.28625   0.31977   0.00000  Uiso   1.00
C66    C     0.31518   0.30005   0.27837   0.00000  Uiso   1.00
C67    C     0.28518   0.19848   0.43151   0.00000  Uiso   1.00
C68    C     0.38038   0.14665   0.45345   0.00000  Uiso   1.00
C69    C     0.27307   0.09660   0.47319   0.00000  Uiso   1.00
H70    H     0.86263   0.26296   0.40198   0.00000  Uiso   1.00
H71    H     0.84240   0.34642   0.44422   0.00000  Uiso   1.00
H72    H     0.85986   0.29127   0.31372   0.00000  Uiso   1.00
H73    H     0.83097   0.15170   0.44738   0.00000  Uiso   1.00
H74    H     0.90617   0.43816   0.49198   0.00000  Uiso   1.00
H75    H     0.94298   0.32187   0.21681   0.00000  Uiso   1.00
H76    H     0.88206   0.02755   0.49867   0.00000  Uiso   1.00
H77    H     0.52687   0.25687   0.40931   0.00000  Uiso   1.00
H78    H     0.54308   0.33999   0.45195   0.00000  Uiso   1.00
H79    H     0.56054   0.28485   0.32145   0.00000  Uiso   1.00
H80    H     0.53165   0.14528   0.45512   0.00000  Uiso   1.00
H81    H     0.47487   0.43295   0.49826   0.00000  Uiso   1.00
H82    H     0.51168   0.31666   0.22309   0.00000  Uiso   1.00
H83    H     0.45076   0.02234   0.50495   0.00000  Uiso   1.00
O84    O     0.18920   0.49036   0.52302   0.00000  Uiso   1.00
O85    O     0.23750   0.33778   0.16201   0.00000  Uiso   1.00
O86    O     0.15757   0.95164   0.53181   0.00000  Uiso   1.00
N87    N     0.03779   0.42552   0.48761   0.00000  Uiso   1.00
N88    N     0.07220   0.31681   0.23035   0.00000  Uiso   1.00
N89    N     0.01524   0.04163   0.49385   0.00000  Uiso   1.00
N90    N     0.34380   0.42272   0.49099   0.00000  Uiso   1.00
N91    N     0.37822   0.31400   0.23372   0.00000  Uiso   1.00
N92    N     0.32126   0.03883   0.49723   0.00000  Uiso   1.00
C93    C     0.42473   0.79393   0.87644   0.00000  Uiso   1.00
C94    C     0.34461   0.83633   0.90236   0.00000  Uiso   1.00
C95    C     0.44762   0.87375   0.92205   0.00000  Uiso   1.00
C96    C     0.34823   0.90912   0.94425   0.00000  Uiso   1.00
C97    C     0.25355   0.97528   0.98410   0.00000  Uiso   1.00
C98    C     0.33220   0.81108   0.82962   0.00000  Uiso   1.00
C99    C     0.42478   0.82725   0.78816   0.00000  Uiso   1.00
C100   C     0.31493   0.84136   0.74912   0.00000  Uiso   1.00
C101   C     0.20097   0.86827   0.67605   0.00000  Uiso   1.00
C102   C     0.35088   0.73184   0.90037   0.00000  Uiso   1.00
C103   C     0.45917   0.68139   0.91839   0.00000  Uiso   1.00
C104   C     0.36505   0.62878   0.93891   0.00000  Uiso   1.00
C105   C     0.28010   0.53267   0.97569   0.00000  Uiso   1.00
C106   C     0.06503   0.79021   0.88084   0.00000  Uiso   1.00
C107   C     0.14924   0.83431   0.90474   0.00000  Uiso   1.00
C108   C     0.04966   0.86963   0.92692   0.00000  Uiso   1.00
C109   C     0.15251   0.90709   0.94665   0.00000  Uiso   1.00
C110   C     0.13683   0.80905   0.83201   0.00000  Uiso   1.00
C111   C     0.02682   0.82313   0.79303   0.00000  Uiso   1.00
C112   C     0.11920   0.83933   0.75152   0.00000  Uiso   1.00
C113   C     0.15551   0.72982   0.90276   0.00000  Uiso   1.00
C114   C     0.06120   0.67727   0.92326   0.00000  Uiso   1.00
C115   C     0.16932   0.62675   0.94131   0.00000  Uiso   1.00
H116   H     0.57683   0.79551   0.87458   0.00000  Uiso   1.00
H117   H     0.59882   0.87531   0.92019   0.00000  Uiso   1.00
H118   H     0.57597   0.82881   0.78632   0.00000  Uiso   1.00
H119   H     0.61035   0.68298   0.91653   0.00000  Uiso   1.00
H120   H     0.53703   0.96290   0.97180   0.00000  Uiso   1.00
H121   H     0.48886   0.86484   0.68952   0.00000  Uiso   1.00
H122   H     0.56136   0.55732   0.96410   0.00000  Uiso   1.00
H123   H     0.91292   0.78863   0.88270   0.00000  Uiso   1.00
H124   H     0.89847   0.86805   0.92877   0.00000  Uiso   1.00
H125   H     0.87563   0.82155   0.79489   0.00000  Uiso   1.00
H126   H     0.91001   0.67572   0.92510   0.00000  Uiso   1.00
H127   H     0.96860   0.95702   0.97876   0.00000  Uiso   1.00
H128   H     0.92043   0.85895   0.69648   0.00000  Uiso   1.00
H129   H     0.99293   0.55143   0.97105   0.00000  Uiso   1.00
O130   O     0.25529   0.01234   0.00542   0.00000  Uiso   1.00
O131   O     0.19209   0.88368   0.63508   0.00000  Uiso   1.00
O132   O     0.28722   0.48022   0.99532   0.00000  Uiso   1.00
N133   N     0.40524   0.95061   0.96712   0.00000  Uiso   1.00
N134   N     0.36020   0.85894   0.70321   0.00000  Uiso   1.00
N135   N     0.42798   0.57142   0.95991   0.00000  Uiso   1.00
N136   N     0.09937   0.94744   0.97087   0.00000  Uiso   1.00
N137   N     0.05433   0.85577   0.70695   0.00000  Uiso   1.00
N138   N     0.12212   0.56825   0.96365   0.00000  Uiso   1.00
C139   C     0.87947   0.68261   0.63583   0.00000  Uiso   1.00
C140   C     0.79522   0.63855   0.61190   0.00000  Uiso   1.00
C141   C     0.89476   0.60326   0.58969   0.00000  Uiso   1.00
C142   C     0.79189   0.56583   0.56994   0.00000  Uiso   1.00
C143   C     0.69080   0.49770   0.53243   0.00000  Uiso   1.00
C144   C     0.80770   0.66371   0.68467   0.00000  Uiso   1.00
C145   C     0.91774   0.64958   0.72365   0.00000  Uiso   1.00
C146   C     0.82538   0.63334   0.76516   0.00000  Uiso   1.00
C147   C     0.74366   0.60432   0.84063   0.00000  Uiso   1.00
C148   C     0.78899   0.74301   0.61396   0.00000  Uiso   1.00
C149   C     0.88330   0.79557   0.59349   0.00000  Uiso   1.00
C150   C     0.77518   0.84610   0.57547   0.00000  Uiso   1.00
C151   C     0.66442   0.94020   0.54116   0.00000  Uiso   1.00
C152   C     0.51977   0.67888   0.64025   0.00000  Uiso   1.00
C153   C     0.59985   0.63652   0.61430   0.00000  Uiso   1.00
C154   C     0.49680   0.59914   0.59458   0.00000  Uiso   1.00
C155   C     0.59617   0.56380   0.57234   0.00000  Uiso   1.00
C156   C     0.61234   0.66168   0.68707   0.00000  Uiso   1.00
C157   C     0.51978   0.64546   0.72854   0.00000  Uiso   1.00
C158   C     0.62965   0.63131   0.76756   0.00000  Uiso   1.00
C159   C     0.59362   0.74099   0.61636   0.00000  Uiso   1.00
C160   C     0.48534   0.79145   0.59838   0.00000  Uiso   1.00
C161   C     0.57946   0.84407   0.57788   0.00000  Uiso   1.00
H162   H     0.03157   0.68418   0.63397   0.00000  Uiso   1.00
H163   H     0.04596   0.60483   0.58784   0.00000  Uiso   1.00
H164   H     0.06893   0.65116   0.72178   0.00000  Uiso   1.00
H165   H     0.03449   0.79712   0.59164   0.00000  Uiso   1.00
H166   H     0.97574   0.51596   0.53778   0.00000  Uiso   1.00
H167   H     0.02419   0.61365   0.82019   0.00000  Uiso   1.00
H168   H     0.95157   0.92144   0.54577   0.00000  Uiso   1.00
H169   H     0.36766   0.67731   0.64212   0.00000  Uiso   1.00
H170   H     0.34561   0.59758   0.59644   0.00000  Uiso   1.00
H171   H     0.36859   0.64391   0.73038   0.00000  Uiso   1.00
H172   H     0.33415   0.78986   0.60024   0.00000  Uiso   1.00
H173   H     0.40732   0.51007   0.54476   0.00000  Uiso   1.00
H174   H     0.45577   0.60777   0.82717   0.00000  Uiso   1.00
H175   H     0.38314   0.91555   0.55275   0.00000  Uiso   1.00
O176   O     0.68901   0.46068   0.51108   0.00000  Uiso   1.00
O177   O     0.75257   0.58886   0.88160   0.00000  Uiso   1.00
O178   O     0.65729   0.99266   0.52156   0.00000  Uiso   1.00
N179   N     0.84499   0.52552   0.54568   0.00000  Uiso   1.00
N180   N     0.89029   0.61685   0.80972   0.00000  Uiso   1.00
N181   N     0.82239   0.90461   0.55317   0.00000  Uiso   1.00
N182   N     0.53912   0.52235   0.54944   0.00000  Uiso   1.00
N183   N     0.58442   0.61368   0.81348   0.00000  Uiso   1.00
N184   N     0.51653   0.90144   0.55692   0.00000  Uiso   1.00
