data_job_02416
_audit_creation_date              2018-12-19
_audit_creation_method            'Materials Studio'
_symmetry_space_group_name_H-M    'P1'
_symmetry_Int_Tables_number       1
_symmetry_cell_setting            triclinic
loop_
_symmetry_equiv_pos_as_xyz
  x,y,z
_cell_length_a                    20.0314
_cell_length_b                    16.0450
_cell_length_c                    20.6576
_cell_angle_alpha                 90.0000
_cell_angle_beta                  90.0000
_cell_angle_gamma                 90.0000
loop_
_atom_site_label
_atom_site_type_symbol
_atom_site_fract_x
_atom_site_fract_y
_atom_site_fract_z
_atom_site_U_iso_or_equiv
_atom_site_adp_type
_atom_site_occupancy
C1     C     0.45994   0.99864   0.32503   0.00000  Uiso   1.00
C2     C     0.39335   0.97267   0.35458   0.00000  Uiso   1.00
C3     C     0.37867   0.89485   0.38022   0.00000  Uiso   1.00
C4     C     0.31486   0.88347   0.40493   0.00000  Uiso   1.00
C5     C     0.21867   0.83336   0.45092   0.00000  Uiso   1.00
C6     C     0.44419   0.02882   0.25672   0.00000  Uiso   1.00
C7     C     0.47225   0.99823   0.20008   0.00000  Uiso   1.00
C8     C     0.45125   0.03413   0.14242   0.00000  Uiso   1.00
C9     C     0.43401   0.07124   0.03648   0.00000  Uiso   1.00
C10    C     0.48252   0.07542   0.36263   0.00000  Uiso   1.00
C11    C     0.54282   0.08401   0.39503   0.00000  Uiso   1.00
C12    C     0.55409   0.15915   0.42652   0.00000  Uiso   1.00
C13    C     0.59636   0.26861   0.48503   0.00000  Uiso   1.00
C14    C     0.37274   0.11681   0.32334   0.00000  Uiso   1.00
C15    C     0.34599   0.03685   0.35366   0.00000  Uiso   1.00
C16    C     0.28219   0.02559   0.37835   0.00000  Uiso   1.00
C17    C     0.26741   0.94777   0.40402   0.00000  Uiso   1.00
C18    C     0.39682   0.09300   0.25580   0.00000  Uiso   1.00
C19    C     0.37577   0.12897   0.19821   0.00000  Uiso   1.00
C20    C     0.40379   0.09843   0.14150   0.00000  Uiso   1.00
C21    C     0.43515   0.13960   0.36172   0.00000  Uiso   1.00
C22    C     0.44633   0.21475   0.39316   0.00000  Uiso   1.00
C23    C     0.50664   0.22345   0.42560   0.00000  Uiso   1.00
H24    H     0.49682   0.94867   0.32574   0.00000  Uiso   1.00
H25    H     0.41534   0.84519   0.38091   0.00000  Uiso   1.00
H26    H     0.50891   0.94856   0.20081   0.00000  Uiso   1.00
H27    H     0.57946   0.03433   0.39573   0.00000  Uiso   1.00
H28    H     0.30411   0.75876   0.44165   0.00000  Uiso   1.00
H29    H     0.50143   0.97674   0.06189   0.00000  Uiso   1.00
H30    H     0.65020   0.15759   0.47292   0.00000  Uiso   1.00
H31    H     0.33586   0.16679   0.32263   0.00000  Uiso   1.00
H32    H     0.24554   0.07527   0.37763   0.00000  Uiso   1.00
H33    H     0.33912   0.17864   0.19752   0.00000  Uiso   1.00
H34    H     0.40967   0.26440   0.39244   0.00000  Uiso   1.00
H35    H     0.16629   0.94550   0.43898   0.00000  Uiso   1.00
H36    H     0.36362   0.16348   0.05922   0.00000  Uiso   1.00
H37    H     0.51239   0.34433   0.47025   0.00000  Uiso   1.00
O38    O     0.17869   0.78798   0.47654   0.00000  Uiso   1.00
O39    O     0.43758   0.07397   0.97831   0.00000  Uiso   1.00
O40    O     0.63276   0.31125   0.51756   0.00000  Uiso   1.00
N41    N     0.28407   0.81527   0.43349   0.00000  Uiso   1.00
N42    N     0.46855   0.01906   0.07843   0.00000  Uiso   1.00
N43    N     0.60765   0.18815   0.46269   0.00000  Uiso   1.00
N44    N     0.20992   0.91575   0.43205   0.00000  Uiso   1.00
N45    N     0.39439   0.11954   0.07700   0.00000  Uiso   1.00
N46    N     0.53349   0.28864   0.46126   0.00000  Uiso   1.00
C47    C     0.04006   0.00136   0.82503   0.00000  Uiso   1.00
C48    C     0.10665   0.02733   0.85458   0.00000  Uiso   1.00
C49    C     0.12133   0.10515   0.88022   0.00000  Uiso   1.00
C50    C     0.18514   0.11653   0.90493   0.00000  Uiso   1.00
C51    C     0.28133   0.16664   0.95092   0.00000  Uiso   1.00
C52    C     0.05581   0.97118   0.75672   0.00000  Uiso   1.00
C53    C     0.02775   0.00177   0.70008   0.00000  Uiso   1.00
C54    C     0.04875   0.96587   0.64242   0.00000  Uiso   1.00
C55    C     0.06599   0.92876   0.53648   0.00000  Uiso   1.00
C56    C     0.01748   0.92458   0.86263   0.00000  Uiso   1.00
C57    C     0.95718   0.91599   0.89503   0.00000  Uiso   1.00
C58    C     0.94591   0.84085   0.92652   0.00000  Uiso   1.00
C59    C     0.90364   0.73139   0.98503   0.00000  Uiso   1.00
C60    C     0.12726   0.88319   0.82334   0.00000  Uiso   1.00
C61    C     0.15401   0.96315   0.85366   0.00000  Uiso   1.00
C62    C     0.21781   0.97441   0.87835   0.00000  Uiso   1.00
C63    C     0.23259   0.05223   0.90402   0.00000  Uiso   1.00
C64    C     0.10318   0.90700   0.75580   0.00000  Uiso   1.00
C65    C     0.12423   0.87103   0.69821   0.00000  Uiso   1.00
C66    C     0.09621   0.90157   0.64150   0.00000  Uiso   1.00
C67    C     0.06485   0.86040   0.86172   0.00000  Uiso   1.00
C68    C     0.05367   0.78525   0.89316   0.00000  Uiso   1.00
C69    C     0.99336   0.77655   0.92560   0.00000  Uiso   1.00
H70    H     0.00318   0.05133   0.82574   0.00000  Uiso   1.00
H71    H     0.08466   0.15481   0.88091   0.00000  Uiso   1.00
H72    H     0.99109   0.05144   0.70081   0.00000  Uiso   1.00
H73    H     0.92054   0.96567   0.89573   0.00000  Uiso   1.00
H74    H     0.19589   0.24124   0.94165   0.00000  Uiso   1.00
H75    H     0.99857   0.02326   0.56189   0.00000  Uiso   1.00
H76    H     0.84980   0.84241   0.97292   0.00000  Uiso   1.00
H77    H     0.16414   0.83321   0.82263   0.00000  Uiso   1.00
H78    H     0.25446   0.92473   0.87763   0.00000  Uiso   1.00
H79    H     0.16088   0.82136   0.69752   0.00000  Uiso   1.00
H80    H     0.09033   0.73560   0.89244   0.00000  Uiso   1.00
H81    H     0.33371   0.05450   0.93898   0.00000  Uiso   1.00
H82    H     0.13638   0.83652   0.55922   0.00000  Uiso   1.00
H83    H     0.98761   0.65567   0.97025   0.00000  Uiso   1.00
O84    O     0.32131   0.21202   0.97654   0.00000  Uiso   1.00
O85    O     0.06242   0.92603   0.47831   0.00000  Uiso   1.00
O86    O     0.86724   0.68875   0.01756   0.00000  Uiso   1.00
N87    N     0.21593   0.18473   0.93349   0.00000  Uiso   1.00
N88    N     0.03145   0.98094   0.57843   0.00000  Uiso   1.00
N89    N     0.89235   0.81185   0.96269   0.00000  Uiso   1.00
N90    N     0.29008   0.08425   0.93205   0.00000  Uiso   1.00
N91    N     0.10561   0.88046   0.57700   0.00000  Uiso   1.00
N92    N     0.96651   0.71136   0.96126   0.00000  Uiso   1.00
C93    C     0.54006   0.49864   0.17497   0.00000  Uiso   1.00
C94    C     0.60665   0.47267   0.14542   0.00000  Uiso   1.00
C95    C     0.62133   0.39485   0.11978   0.00000  Uiso   1.00
C96    C     0.68514   0.38347   0.09507   0.00000  Uiso   1.00
C97    C     0.78133   0.33336   0.04908   0.00000  Uiso   1.00
C98    C     0.55581   0.52882   0.24328   0.00000  Uiso   1.00
C99    C     0.52775   0.49823   0.29992   0.00000  Uiso   1.00
C100   C     0.54875   0.53413   0.35758   0.00000  Uiso   1.00
C101   C     0.56599   0.57124   0.46352   0.00000  Uiso   1.00
C102   C     0.51748   0.57542   0.13737   0.00000  Uiso   1.00
C103   C     0.45718   0.58401   0.10497   0.00000  Uiso   1.00
C104   C     0.44591   0.65915   0.07348   0.00000  Uiso   1.00
C105   C     0.40364   0.76861   0.01497   0.00000  Uiso   1.00
C106   C     0.62726   0.61681   0.17666   0.00000  Uiso   1.00
C107   C     0.65401   0.53685   0.14634   0.00000  Uiso   1.00
C108   C     0.71781   0.52559   0.12165   0.00000  Uiso   1.00
C109   C     0.73259   0.44777   0.09598   0.00000  Uiso   1.00
C110   C     0.60318   0.59300   0.24420   0.00000  Uiso   1.00
C111   C     0.62423   0.62897   0.30179   0.00000  Uiso   1.00
C112   C     0.59621   0.59843   0.35850   0.00000  Uiso   1.00
C113   C     0.56485   0.63960   0.13828   0.00000  Uiso   1.00
C114   C     0.55367   0.71475   0.10684   0.00000  Uiso   1.00
C115   C     0.49336   0.72345   0.07440   0.00000  Uiso   1.00
H116   H     0.50318   0.44867   0.17426   0.00000  Uiso   1.00
H117   H     0.58466   0.34519   0.11909   0.00000  Uiso   1.00
H118   H     0.49109   0.44856   0.29919   0.00000  Uiso   1.00
H119   H     0.42054   0.53433   0.10427   0.00000  Uiso   1.00
H120   H     0.69589   0.25876   0.05835   0.00000  Uiso   1.00
H121   H     0.49857   0.47674   0.43811   0.00000  Uiso   1.00
H122   H     0.34980   0.65759   0.02708   0.00000  Uiso   1.00
H123   H     0.66414   0.66679   0.17737   0.00000  Uiso   1.00
H124   H     0.75446   0.57527   0.12237   0.00000  Uiso   1.00
H125   H     0.66088   0.67864   0.30248   0.00000  Uiso   1.00
H126   H     0.59033   0.76440   0.10756   0.00000  Uiso   1.00
H127   H     0.83371   0.44550   0.06102   0.00000  Uiso   1.00
H128   H     0.63638   0.66348   0.44078   0.00000  Uiso   1.00
H129   H     0.48761   0.84433   0.02975   0.00000  Uiso   1.00
O130   O     0.82131   0.28798   0.02346   0.00000  Uiso   1.00
O131   O     0.56242   0.57397   0.52169   0.00000  Uiso   1.00
O132   O     0.36724   0.81125   0.98244   0.00000  Uiso   1.00
N133   N     0.71593   0.31527   0.06651   0.00000  Uiso   1.00
N134   N     0.53145   0.51906   0.42157   0.00000  Uiso   1.00
N135   N     0.39235   0.68815   0.03731   0.00000  Uiso   1.00
N136   N     0.79008   0.41575   0.06795   0.00000  Uiso   1.00
N137   N     0.60561   0.61954   0.42300   0.00000  Uiso   1.00
N138   N     0.46651   0.78864   0.03874   0.00000  Uiso   1.00
C139   C     0.95994   0.50136   0.67497   0.00000  Uiso   1.00
C140   C     0.89335   0.52733   0.64542   0.00000  Uiso   1.00
C141   C     0.87867   0.60515   0.61978   0.00000  Uiso   1.00
C142   C     0.81486   0.61653   0.59507   0.00000  Uiso   1.00
C143   C     0.71867   0.66664   0.54908   0.00000  Uiso   1.00
C144   C     0.94419   0.47118   0.74328   0.00000  Uiso   1.00
C145   C     0.97225   0.50177   0.79992   0.00000  Uiso   1.00
C146   C     0.95125   0.46587   0.85758   0.00000  Uiso   1.00
C147   C     0.93401   0.42876   0.96352   0.00000  Uiso   1.00
C148   C     0.98252   0.42458   0.63737   0.00000  Uiso   1.00
C149   C     0.04282   0.41599   0.60497   0.00000  Uiso   1.00
C150   C     0.05409   0.34085   0.57348   0.00000  Uiso   1.00
C151   C     0.09636   0.23139   0.51497   0.00000  Uiso   1.00
C152   C     0.87274   0.38319   0.67666   0.00000  Uiso   1.00
C153   C     0.84599   0.46315   0.64634   0.00000  Uiso   1.00
C154   C     0.78219   0.47441   0.62165   0.00000  Uiso   1.00
C155   C     0.76741   0.55223   0.59598   0.00000  Uiso   1.00
C156   C     0.89682   0.40700   0.74420   0.00000  Uiso   1.00
C157   C     0.87577   0.37103   0.80179   0.00000  Uiso   1.00
C158   C     0.90379   0.40157   0.85850   0.00000  Uiso   1.00
C159   C     0.93515   0.36040   0.63828   0.00000  Uiso   1.00
C160   C     0.94633   0.28525   0.60684   0.00000  Uiso   1.00
C161   C     0.00664   0.27655   0.57440   0.00000  Uiso   1.00
H162   H     0.99682   0.55133   0.67426   0.00000  Uiso   1.00
H163   H     0.91534   0.65481   0.61909   0.00000  Uiso   1.00
H164   H     0.00891   0.55144   0.79919   0.00000  Uiso   1.00
H165   H     0.07946   0.46567   0.60427   0.00000  Uiso   1.00
H166   H     0.80411   0.74124   0.55835   0.00000  Uiso   1.00
H167   H     0.00143   0.52326   0.93811   0.00000  Uiso   1.00
H168   H     0.15020   0.34241   0.52708   0.00000  Uiso   1.00
H169   H     0.83586   0.33321   0.67737   0.00000  Uiso   1.00
H170   H     0.74554   0.42473   0.62237   0.00000  Uiso   1.00
H171   H     0.83912   0.32136   0.80248   0.00000  Uiso   1.00
H172   H     0.90967   0.23560   0.60756   0.00000  Uiso   1.00
H173   H     0.66629   0.55450   0.56102   0.00000  Uiso   1.00
H174   H     0.86362   0.33652   0.94078   0.00000  Uiso   1.00
H175   H     0.01239   0.15567   0.52975   0.00000  Uiso   1.00
O176   O     0.67869   0.71202   0.52346   0.00000  Uiso   1.00
O177   O     0.93758   0.42603   0.02169   0.00000  Uiso   1.00
O178   O     0.13276   0.18875   0.48244   0.00000  Uiso   1.00
N179   N     0.78407   0.68473   0.56651   0.00000  Uiso   1.00
N180   N     0.96855   0.48094   0.92157   0.00000  Uiso   1.00
N181   N     0.10765   0.31185   0.53731   0.00000  Uiso   1.00
N182   N     0.70992   0.58425   0.56795   0.00000  Uiso   1.00
N183   N     0.89439   0.38046   0.92300   0.00000  Uiso   1.00
N184   N     0.03349   0.21136   0.53874   0.00000  Uiso   1.00
C185   C     0.54006   0.00136   0.67497   0.00000  Uiso   1.00
C186   C     0.60665   0.02733   0.64542   0.00000  Uiso   1.00
C187   C     0.62133   0.10515   0.61978   0.00000  Uiso   1.00
C188   C     0.68514   0.11653   0.59507   0.00000  Uiso   1.00
C189   C     0.78133   0.16664   0.54908   0.00000  Uiso   1.00
C190   C     0.55581   0.97118   0.74328   0.00000  Uiso   1.00
C191   C     0.52775   0.00177   0.79992   0.00000  Uiso   1.00
C192   C     0.54875   0.96587   0.85758   0.00000  Uiso   1.00
C193   C     0.56599   0.92876   0.96352   0.00000  Uiso   1.00
C194   C     0.51748   0.92458   0.63737   0.00000  Uiso   1.00
C195   C     0.45718   0.91599   0.60497   0.00000  Uiso   1.00
C196   C     0.44591   0.84085   0.57348   0.00000  Uiso   1.00
C197   C     0.40364   0.73139   0.51497   0.00000  Uiso   1.00
C198   C     0.62726   0.88319   0.67666   0.00000  Uiso   1.00
C199   C     0.65401   0.96315   0.64634   0.00000  Uiso   1.00
C200   C     0.71781   0.97441   0.62165   0.00000  Uiso   1.00
C201   C     0.73259   0.05223   0.59598   0.00000  Uiso   1.00
C202   C     0.60318   0.90700   0.74420   0.00000  Uiso   1.00
C203   C     0.62423   0.87103   0.80179   0.00000  Uiso   1.00
C204   C     0.59621   0.90157   0.85850   0.00000  Uiso   1.00
C205   C     0.56485   0.86040   0.63828   0.00000  Uiso   1.00
C206   C     0.55367   0.78525   0.60684   0.00000  Uiso   1.00
C207   C     0.49336   0.77655   0.57440   0.00000  Uiso   1.00
H208   H     0.50318   0.05133   0.67426   0.00000  Uiso   1.00
H209   H     0.58466   0.15481   0.61909   0.00000  Uiso   1.00
H210   H     0.49109   0.05144   0.79919   0.00000  Uiso   1.00
H211   H     0.42054   0.96567   0.60427   0.00000  Uiso   1.00
H212   H     0.69589   0.24124   0.55835   0.00000  Uiso   1.00
H213   H     0.49857   0.02326   0.93811   0.00000  Uiso   1.00
H214   H     0.34980   0.84241   0.52708   0.00000  Uiso   1.00
H215   H     0.66414   0.83321   0.67737   0.00000  Uiso   1.00
H216   H     0.75446   0.92473   0.62237   0.00000  Uiso   1.00
H217   H     0.66088   0.82136   0.80248   0.00000  Uiso   1.00
H218   H     0.59033   0.73560   0.60756   0.00000  Uiso   1.00
H219   H     0.83371   0.05450   0.56102   0.00000  Uiso   1.00
H220   H     0.63638   0.83652   0.94078   0.00000  Uiso   1.00
H221   H     0.48761   0.65567   0.52975   0.00000  Uiso   1.00
O222   O     0.82131   0.21202   0.52346   0.00000  Uiso   1.00
O223   O     0.56242   0.92603   0.02169   0.00000  Uiso   1.00
O224   O     0.36724   0.68875   0.48244   0.00000  Uiso   1.00
N225   N     0.71593   0.18473   0.56651   0.00000  Uiso   1.00
N226   N     0.53145   0.98094   0.92157   0.00000  Uiso   1.00
N227   N     0.39235   0.81185   0.53731   0.00000  Uiso   1.00
N228   N     0.79008   0.08425   0.56795   0.00000  Uiso   1.00
N229   N     0.60561   0.88046   0.92300   0.00000  Uiso   1.00
N230   N     0.46651   0.71136   0.53874   0.00000  Uiso   1.00
C231   C     0.95994   0.99864   0.17497   0.00000  Uiso   1.00
C232   C     0.89335   0.97267   0.14542   0.00000  Uiso   1.00
C233   C     0.87867   0.89485   0.11978   0.00000  Uiso   1.00
C234   C     0.81486   0.88347   0.09507   0.00000  Uiso   1.00
C235   C     0.71867   0.83336   0.04908   0.00000  Uiso   1.00
C236   C     0.94419   0.02882   0.24328   0.00000  Uiso   1.00
C237   C     0.97225   0.99823   0.29992   0.00000  Uiso   1.00
C238   C     0.95125   0.03413   0.35758   0.00000  Uiso   1.00
C239   C     0.93401   0.07124   0.46352   0.00000  Uiso   1.00
C240   C     0.98252   0.07542   0.13737   0.00000  Uiso   1.00
C241   C     0.04282   0.08401   0.10497   0.00000  Uiso   1.00
C242   C     0.05409   0.15915   0.07348   0.00000  Uiso   1.00
C243   C     0.09636   0.26861   0.01497   0.00000  Uiso   1.00
C244   C     0.87274   0.11681   0.17666   0.00000  Uiso   1.00
C245   C     0.84599   0.03685   0.14634   0.00000  Uiso   1.00
C246   C     0.78219   0.02559   0.12165   0.00000  Uiso   1.00
C247   C     0.76741   0.94777   0.09598   0.00000  Uiso   1.00
C248   C     0.89682   0.09300   0.24420   0.00000  Uiso   1.00
C249   C     0.87577   0.12897   0.30179   0.00000  Uiso   1.00
C250   C     0.90379   0.09843   0.35850   0.00000  Uiso   1.00
C251   C     0.93515   0.13960   0.13828   0.00000  Uiso   1.00
C252   C     0.94633   0.21475   0.10684   0.00000  Uiso   1.00
C253   C     0.00664   0.22345   0.07440   0.00000  Uiso   1.00
H254   H     0.99682   0.94867   0.17426   0.00000  Uiso   1.00
H255   H     0.91534   0.84519   0.11909   0.00000  Uiso   1.00
H256   H     0.00891   0.94856   0.29919   0.00000  Uiso   1.00
H257   H     0.07946   0.03433   0.10427   0.00000  Uiso   1.00
H258   H     0.80411   0.75876   0.05835   0.00000  Uiso   1.00
H259   H     0.00143   0.97674   0.43811   0.00000  Uiso   1.00
H260   H     0.15020   0.15759   0.02708   0.00000  Uiso   1.00
H261   H     0.83586   0.16679   0.17737   0.00000  Uiso   1.00
H262   H     0.74554   0.07527   0.12237   0.00000  Uiso   1.00
H263   H     0.83912   0.17864   0.30248   0.00000  Uiso   1.00
H264   H     0.90967   0.26440   0.10756   0.00000  Uiso   1.00
H265   H     0.66629   0.94550   0.06102   0.00000  Uiso   1.00
H266   H     0.86362   0.16348   0.44078   0.00000  Uiso   1.00
H267   H     0.01239   0.34433   0.02975   0.00000  Uiso   1.00
O268   O     0.67869   0.78798   0.02346   0.00000  Uiso   1.00
O269   O     0.93758   0.07397   0.52169   0.00000  Uiso   1.00
O270   O     0.13276   0.31125   0.98244   0.00000  Uiso   1.00
N271   N     0.78407   0.81527   0.06651   0.00000  Uiso   1.00
N272   N     0.96855   0.01906   0.42157   0.00000  Uiso   1.00
N273   N     0.10765   0.18815   0.03731   0.00000  Uiso   1.00
N274   N     0.70992   0.91575   0.06795   0.00000  Uiso   1.00
N275   N     0.89439   0.11954   0.42300   0.00000  Uiso   1.00
N276   N     0.03349   0.28864   0.03874   0.00000  Uiso   1.00
C277   C     0.45994   0.50136   0.82503   0.00000  Uiso   1.00
C278   C     0.39335   0.52733   0.85458   0.00000  Uiso   1.00
C279   C     0.37867   0.60515   0.88022   0.00000  Uiso   1.00
C280   C     0.31486   0.61653   0.90493   0.00000  Uiso   1.00
C281   C     0.21867   0.66664   0.95092   0.00000  Uiso   1.00
C282   C     0.44419   0.47118   0.75672   0.00000  Uiso   1.00
C283   C     0.47225   0.50177   0.70008   0.00000  Uiso   1.00
C284   C     0.45125   0.46587   0.64242   0.00000  Uiso   1.00
C285   C     0.43401   0.42876   0.53648   0.00000  Uiso   1.00
C286   C     0.48252   0.42458   0.86263   0.00000  Uiso   1.00
C287   C     0.54282   0.41599   0.89503   0.00000  Uiso   1.00
C288   C     0.55409   0.34085   0.92652   0.00000  Uiso   1.00
C289   C     0.59636   0.23139   0.98503   0.00000  Uiso   1.00
C290   C     0.37274   0.38319   0.82334   0.00000  Uiso   1.00
C291   C     0.34599   0.46315   0.85366   0.00000  Uiso   1.00
C292   C     0.28219   0.47441   0.87835   0.00000  Uiso   1.00
C293   C     0.26741   0.55223   0.90402   0.00000  Uiso   1.00
C294   C     0.39682   0.40700   0.75580   0.00000  Uiso   1.00
C295   C     0.37577   0.37103   0.69821   0.00000  Uiso   1.00
C296   C     0.40379   0.40157   0.64150   0.00000  Uiso   1.00
C297   C     0.43515   0.36040   0.86172   0.00000  Uiso   1.00
C298   C     0.44633   0.28525   0.89316   0.00000  Uiso   1.00
C299   C     0.50664   0.27655   0.92560   0.00000  Uiso   1.00
H300   H     0.49682   0.55133   0.82574   0.00000  Uiso   1.00
H301   H     0.41534   0.65481   0.88091   0.00000  Uiso   1.00
H302   H     0.50891   0.55144   0.70081   0.00000  Uiso   1.00
H303   H     0.57946   0.46567   0.89573   0.00000  Uiso   1.00
H304   H     0.30411   0.74124   0.94165   0.00000  Uiso   1.00
H305   H     0.50143   0.52326   0.56189   0.00000  Uiso   1.00
H306   H     0.65020   0.34241   0.97292   0.00000  Uiso   1.00
H307   H     0.33586   0.33321   0.82263   0.00000  Uiso   1.00
H308   H     0.24554   0.42473   0.87763   0.00000  Uiso   1.00
H309   H     0.33912   0.32136   0.69752   0.00000  Uiso   1.00
H310   H     0.40967   0.23560   0.89244   0.00000  Uiso   1.00
H311   H     0.16629   0.55450   0.93898   0.00000  Uiso   1.00
H312   H     0.36362   0.33652   0.55922   0.00000  Uiso   1.00
H313   H     0.51239   0.15567   0.97025   0.00000  Uiso   1.00
O314   O     0.17869   0.71202   0.97654   0.00000  Uiso   1.00
O315   O     0.43758   0.42603   0.47831   0.00000  Uiso   1.00
O316   O     0.63276   0.18875   0.01756   0.00000  Uiso   1.00
N317   N     0.28407   0.68473   0.93349   0.00000  Uiso   1.00
N318   N     0.46855   0.48094   0.57843   0.00000  Uiso   1.00
N319   N     0.60765   0.31185   0.96269   0.00000  Uiso   1.00
N320   N     0.20992   0.58425   0.93205   0.00000  Uiso   1.00
N321   N     0.39439   0.38046   0.57700   0.00000  Uiso   1.00
N322   N     0.53349   0.21136   0.96126   0.00000  Uiso   1.00
C323   C     0.04006   0.49864   0.32503   0.00000  Uiso   1.00
C324   C     0.10665   0.47267   0.35458   0.00000  Uiso   1.00
C325   C     0.12133   0.39485   0.38022   0.00000  Uiso   1.00
C326   C     0.18514   0.38347   0.40493   0.00000  Uiso   1.00
C327   C     0.28133   0.33336   0.45092   0.00000  Uiso   1.00
C328   C     0.05581   0.52882   0.25672   0.00000  Uiso   1.00
C329   C     0.02775   0.49823   0.20008   0.00000  Uiso   1.00
C330   C     0.04875   0.53413   0.14242   0.00000  Uiso   1.00
C331   C     0.06599   0.57124   0.03648   0.00000  Uiso   1.00
C332   C     0.01748   0.57542   0.36263   0.00000  Uiso   1.00
C333   C     0.95718   0.58401   0.39503   0.00000  Uiso   1.00
C334   C     0.94591   0.65915   0.42652   0.00000  Uiso   1.00
C335   C     0.90364   0.76861   0.48503   0.00000  Uiso   1.00
C336   C     0.12726   0.61681   0.32334   0.00000  Uiso   1.00
C337   C     0.15401   0.53685   0.35366   0.00000  Uiso   1.00
C338   C     0.21781   0.52559   0.37835   0.00000  Uiso   1.00
C339   C     0.23259   0.44777   0.40402   0.00000  Uiso   1.00
C340   C     0.10318   0.59300   0.25580   0.00000  Uiso   1.00
C341   C     0.12423   0.62897   0.19821   0.00000  Uiso   1.00
C342   C     0.09621   0.59843   0.14150   0.00000  Uiso   1.00
C343   C     0.06485   0.63960   0.36172   0.00000  Uiso   1.00
C344   C     0.05367   0.71475   0.39316   0.00000  Uiso   1.00
C345   C     0.99336   0.72345   0.42560   0.00000  Uiso   1.00
H346   H     0.00318   0.44867   0.32574   0.00000  Uiso   1.00
H347   H     0.08466   0.34519   0.38091   0.00000  Uiso   1.00
H348   H     0.99109   0.44856   0.20081   0.00000  Uiso   1.00
H349   H     0.92054   0.53433   0.39573   0.00000  Uiso   1.00
H350   H     0.19589   0.25876   0.44165   0.00000  Uiso   1.00
H351   H     0.99857   0.47674   0.06189   0.00000  Uiso   1.00
H352   H     0.84980   0.65759   0.47292   0.00000  Uiso   1.00
H353   H     0.16414   0.66679   0.32263   0.00000  Uiso   1.00
H354   H     0.25446   0.57527   0.37763   0.00000  Uiso   1.00
H355   H     0.16088   0.67864   0.19752   0.00000  Uiso   1.00
H356   H     0.09033   0.76440   0.39244   0.00000  Uiso   1.00
H357   H     0.33371   0.44550   0.43898   0.00000  Uiso   1.00
H358   H     0.13638   0.66348   0.05922   0.00000  Uiso   1.00
H359   H     0.98761   0.84433   0.47025   0.00000  Uiso   1.00
O360   O     0.32131   0.28798   0.47654   0.00000  Uiso   1.00
O361   O     0.06242   0.57397   0.97831   0.00000  Uiso   1.00
O362   O     0.86724   0.81125   0.51756   0.00000  Uiso   1.00
N363   N     0.21593   0.31527   0.43349   0.00000  Uiso   1.00
N364   N     0.03145   0.51906   0.07843   0.00000  Uiso   1.00
N365   N     0.89235   0.68815   0.46269   0.00000  Uiso   1.00
N366   N     0.29008   0.41575   0.43205   0.00000  Uiso   1.00
N367   N     0.10561   0.61954   0.07700   0.00000  Uiso   1.00
N368   N     0.96651   0.78864   0.46126   0.00000  Uiso   1.00
