data_job_00863
_audit_creation_date              2018-12-19
_audit_creation_method            'Materials Studio'
_symmetry_space_group_name_H-M    'P1'
_symmetry_Int_Tables_number       1
_symmetry_cell_setting            triclinic
loop_
_symmetry_equiv_pos_as_xyz
  x,y,z
_cell_length_a                    21.3302
_cell_length_b                    12.3596
_cell_length_c                    18.5492
_cell_angle_alpha                 90.0000
_cell_angle_beta                  150.4570
_cell_angle_gamma                 90.0000
loop_
_atom_site_label
_atom_site_type_symbol
_atom_site_fract_x
_atom_site_fract_y
_atom_site_fract_z
_atom_site_U_iso_or_equiv
_atom_site_adp_type
_atom_site_occupancy
C1     C     0.33641   0.29669   0.17298   0.00000  Uiso   1.00
C2     C     0.22399   0.29275   0.00866   0.00000  Uiso   1.00
C3     C     0.22806   0.31750   0.93979   0.00000  Uiso   1.00
C4     C     0.11493   0.30894   0.78846   0.00000  Uiso   1.00
C5     C     0.95756   0.30777   0.54539   0.00000  Uiso   1.00
C6     C     0.29703   0.37252   0.19447   0.00000  Uiso   1.00
C7     C     0.36252   0.46432   0.28184   0.00000  Uiso   1.00
C8     C     0.31088   0.52291   0.28694   0.00000  Uiso   1.00
C9     C     0.26696   0.64553   0.33244   0.00000  Uiso   1.00
C10    C     0.34557   0.18424   0.21557   0.00000  Uiso   1.00
C11    C     0.45188   0.11775   0.32071   0.00000  Uiso   1.00
C12    C     0.44112   0.01782   0.34359   0.00000  Uiso   1.00
C13    C     0.47256   0.84812   0.42184   0.00000  Uiso   1.00
C14    C     0.12828   0.23749   0.02671   0.00000  Uiso   1.00
C15    C     0.11095   0.26060   0.92922   0.00000  Uiso   1.00
C16    C     0.99778   0.25199   0.77795   0.00000  Uiso   1.00
C17    C     0.00168   0.27672   0.70887   0.00000  Uiso   1.00
C18    C     0.18399   0.34037   0.11503   0.00000  Uiso   1.00
C19    C     0.13225   0.39882   0.12001   0.00000  Uiso   1.00
C20    C     0.19763   0.49069   0.20736   0.00000  Uiso   1.00
C21    C     0.23252   0.15208   0.13612   0.00000  Uiso   1.00
C22    C     0.22160   0.05225   0.15886   0.00000  Uiso   1.00
C23    C     0.32787   0.98561   0.26401   0.00000  Uiso   1.00
H24    H     0.42442   0.32173   0.23484   0.00000  Uiso   1.00
H25    H     0.31556   0.34239   0.00131   0.00000  Uiso   1.00
H26    H     0.45001   0.48918   0.34332   0.00000  Uiso   1.00
H27    H     0.53935   0.14266   0.38216   0.00000  Uiso   1.00
H28    H     0.14500   0.35115   0.70735   0.00000  Uiso   1.00
H29    H     0.42852   0.66065   0.42855   0.00000  Uiso   1.00
H30    H     0.61691   0.92994   0.51047   0.00000  Uiso   1.00
H31    H     0.04026   0.21245   0.96486   0.00000  Uiso   1.00
H32    H     0.91031   0.22711   0.71650   0.00000  Uiso   1.00
H33    H     0.04477   0.37391   0.05852   0.00000  Uiso   1.00
H34    H     0.13410   0.02739   0.09736   0.00000  Uiso   1.00
H35    H     0.81608   0.25759   0.47620   0.00000  Uiso   1.00
H36    H     0.09961   0.56709   0.19740   0.00000  Uiso   1.00
H37    H     0.28799   0.83638   0.27931   0.00000  Uiso   1.00
O38    O     0.90198   0.31602   0.43327   0.00000  Uiso   1.00
O39    O     0.27396   0.72206   0.37947   0.00000  Uiso   1.00
O40    O     0.52112   0.76339   0.48694   0.00000  Uiso   1.00
N41    N     0.08543   0.32710   0.68704   0.00000  Uiso   1.00
N42    N     0.35049   0.61648   0.36129   0.00000  Uiso   1.00
N43    N     0.52663   0.93333   0.43791   0.00000  Uiso   1.00
N44    N     0.90844   0.27675   0.56265   0.00000  Uiso   1.00
N45    N     0.17350   0.56613   0.23691   0.00000  Uiso   1.00
N46    N     0.34965   0.88299   0.31352   0.00000  Uiso   1.00
C47    C     0.66359   0.79669   0.32702   0.00000  Uiso   1.00
C48    C     0.77601   0.79275   0.49134   0.00000  Uiso   1.00
C49    C     0.77194   0.81750   0.56021   0.00000  Uiso   1.00
C50    C     0.88507   0.80894   0.71154   0.00000  Uiso   1.00
C51    C     0.04244   0.80777   0.95461   0.00000  Uiso   1.00
C52    C     0.70297   0.87252   0.30553   0.00000  Uiso   1.00
C53    C     0.63748   0.96432   0.21816   0.00000  Uiso   1.00
C54    C     0.68912   0.02291   0.21306   0.00000  Uiso   1.00
C55    C     0.73304   0.14553   0.16756   0.00000  Uiso   1.00
C56    C     0.65443   0.68424   0.28443   0.00000  Uiso   1.00
C57    C     0.54812   0.61775   0.17929   0.00000  Uiso   1.00
C58    C     0.55888   0.51782   0.15641   0.00000  Uiso   1.00
C59    C     0.52744   0.34812   0.07816   0.00000  Uiso   1.00
C60    C     0.87172   0.73749   0.47329   0.00000  Uiso   1.00
C61    C     0.88905   0.76060   0.57078   0.00000  Uiso   1.00
C62    C     0.00222   0.75199   0.72205   0.00000  Uiso   1.00
C63    C     0.99832   0.77672   0.79113   0.00000  Uiso   1.00
C64    C     0.81601   0.84037   0.38497   0.00000  Uiso   1.00
C65    C     0.86775   0.89882   0.37999   0.00000  Uiso   1.00
C66    C     0.80237   0.99069   0.29264   0.00000  Uiso   1.00
C67    C     0.76748   0.65208   0.36388   0.00000  Uiso   1.00
C68    C     0.77840   0.55225   0.34114   0.00000  Uiso   1.00
C69    C     0.67213   0.48561   0.23599   0.00000  Uiso   1.00
H70    H     0.57558   0.82173   0.26516   0.00000  Uiso   1.00
H71    H     0.68444   0.84239   0.49869   0.00000  Uiso   1.00
H72    H     0.54999   0.98918   0.15668   0.00000  Uiso   1.00
H73    H     0.46065   0.64266   0.11784   0.00000  Uiso   1.00
H74    H     0.85500   0.85115   0.79265   0.00000  Uiso   1.00
H75    H     0.57148   0.16065   0.07145   0.00000  Uiso   1.00
H76    H     0.38309   0.42994   0.98953   0.00000  Uiso   1.00
H77    H     0.95974   0.71245   0.53514   0.00000  Uiso   1.00
H78    H     0.08969   0.72711   0.78350   0.00000  Uiso   1.00
H79    H     0.95523   0.87391   0.44148   0.00000  Uiso   1.00
H80    H     0.86590   0.52739   0.40264   0.00000  Uiso   1.00
H81    H     0.18392   0.75759   0.02380   0.00000  Uiso   1.00
H82    H     0.90039   0.06709   0.30260   0.00000  Uiso   1.00
H83    H     0.71201   0.33638   0.22069   0.00000  Uiso   1.00
O84    O     0.09802   0.81602   0.06673   0.00000  Uiso   1.00
O85    O     0.72604   0.22206   0.12053   0.00000  Uiso   1.00
O86    O     0.47888   0.26339   0.01306   0.00000  Uiso   1.00
N87    N     0.91457   0.82710   0.81296   0.00000  Uiso   1.00
N88    N     0.64951   0.11648   0.13871   0.00000  Uiso   1.00
N89    N     0.47337   0.43333   0.06209   0.00000  Uiso   1.00
N90    N     0.09156   0.77675   0.93735   0.00000  Uiso   1.00
N91    N     0.82650   0.06613   0.26309   0.00000  Uiso   1.00
N92    N     0.65035   0.38299   0.18648   0.00000  Uiso   1.00
C93    C     0.66359   0.70331   0.82702   0.00000  Uiso   1.00
C94    C     0.77601   0.70725   0.99134   0.00000  Uiso   1.00
C95    C     0.77194   0.68250   0.06021   0.00000  Uiso   1.00
C96    C     0.88507   0.69106   0.21154   0.00000  Uiso   1.00
C97    C     0.04244   0.69223   0.45461   0.00000  Uiso   1.00
C98    C     0.70297   0.62748   0.80553   0.00000  Uiso   1.00
C99    C     0.63748   0.53568   0.71816   0.00000  Uiso   1.00
C100   C     0.68912   0.47709   0.71306   0.00000  Uiso   1.00
C101   C     0.73304   0.35447   0.66756   0.00000  Uiso   1.00
C102   C     0.65443   0.81576   0.78443   0.00000  Uiso   1.00
C103   C     0.54812   0.88225   0.67929   0.00000  Uiso   1.00
C104   C     0.55888   0.98218   0.65641   0.00000  Uiso   1.00
C105   C     0.52744   0.15188   0.57816   0.00000  Uiso   1.00
C106   C     0.87172   0.76251   0.97329   0.00000  Uiso   1.00
C107   C     0.88905   0.73940   0.07078   0.00000  Uiso   1.00
C108   C     0.00222   0.74801   0.22205   0.00000  Uiso   1.00
C109   C     0.99832   0.72328   0.29113   0.00000  Uiso   1.00
C110   C     0.81601   0.65963   0.88497   0.00000  Uiso   1.00
C111   C     0.86775   0.60118   0.87999   0.00000  Uiso   1.00
C112   C     0.80237   0.50931   0.79264   0.00000  Uiso   1.00
C113   C     0.76748   0.84792   0.86388   0.00000  Uiso   1.00
C114   C     0.77840   0.94775   0.84114   0.00000  Uiso   1.00
C115   C     0.67213   0.01439   0.73599   0.00000  Uiso   1.00
H116   H     0.57558   0.67827   0.76516   0.00000  Uiso   1.00
H117   H     0.68444   0.65761   0.99869   0.00000  Uiso   1.00
H118   H     0.54999   0.51082   0.65668   0.00000  Uiso   1.00
H119   H     0.46065   0.85734   0.61784   0.00000  Uiso   1.00
H120   H     0.85500   0.64885   0.29265   0.00000  Uiso   1.00
H121   H     0.57148   0.33935   0.57145   0.00000  Uiso   1.00
H122   H     0.38309   0.07006   0.48953   0.00000  Uiso   1.00
H123   H     0.95974   0.78755   0.03514   0.00000  Uiso   1.00
H124   H     0.08969   0.77289   0.28350   0.00000  Uiso   1.00
H125   H     0.95523   0.62609   0.94148   0.00000  Uiso   1.00
H126   H     0.86590   0.97261   0.90264   0.00000  Uiso   1.00
H127   H     0.18392   0.74241   0.52380   0.00000  Uiso   1.00
H128   H     0.90039   0.43291   0.80260   0.00000  Uiso   1.00
H129   H     0.71201   0.16362   0.72069   0.00000  Uiso   1.00
O130   O     0.09802   0.68398   0.56673   0.00000  Uiso   1.00
O131   O     0.72604   0.27794   0.62053   0.00000  Uiso   1.00
O132   O     0.47888   0.23661   0.51306   0.00000  Uiso   1.00
N133   N     0.91457   0.67290   0.31296   0.00000  Uiso   1.00
N134   N     0.64951   0.38352   0.63871   0.00000  Uiso   1.00
N135   N     0.47337   0.06667   0.56209   0.00000  Uiso   1.00
N136   N     0.09156   0.72325   0.43735   0.00000  Uiso   1.00
N137   N     0.82650   0.43387   0.76309   0.00000  Uiso   1.00
N138   N     0.65035   0.11701   0.68648   0.00000  Uiso   1.00
C139   C     0.33641   0.20331   0.67298   0.00000  Uiso   1.00
C140   C     0.22399   0.20725   0.50866   0.00000  Uiso   1.00
C141   C     0.22806   0.18250   0.43979   0.00000  Uiso   1.00
C142   C     0.11493   0.19106   0.28846   0.00000  Uiso   1.00
C143   C     0.95756   0.19223   0.04539   0.00000  Uiso   1.00
C144   C     0.29703   0.12748   0.69447   0.00000  Uiso   1.00
C145   C     0.36252   0.03568   0.78184   0.00000  Uiso   1.00
C146   C     0.31088   0.97709   0.78694   0.00000  Uiso   1.00
C147   C     0.26696   0.85447   0.83244   0.00000  Uiso   1.00
C148   C     0.34557   0.31576   0.71557   0.00000  Uiso   1.00
C149   C     0.45188   0.38225   0.82071   0.00000  Uiso   1.00
C150   C     0.44112   0.48218   0.84359   0.00000  Uiso   1.00
C151   C     0.47256   0.65188   0.92184   0.00000  Uiso   1.00
C152   C     0.12828   0.26251   0.52671   0.00000  Uiso   1.00
C153   C     0.11095   0.23940   0.42922   0.00000  Uiso   1.00
C154   C     0.99778   0.24801   0.27795   0.00000  Uiso   1.00
C155   C     0.00168   0.22328   0.20887   0.00000  Uiso   1.00
C156   C     0.18399   0.15963   0.61503   0.00000  Uiso   1.00
C157   C     0.13225   0.10118   0.62001   0.00000  Uiso   1.00
C158   C     0.19763   0.00931   0.70736   0.00000  Uiso   1.00
C159   C     0.23252   0.34792   0.63612   0.00000  Uiso   1.00
C160   C     0.22160   0.44775   0.65886   0.00000  Uiso   1.00
C161   C     0.32787   0.51439   0.76401   0.00000  Uiso   1.00
H162   H     0.42442   0.17827   0.73484   0.00000  Uiso   1.00
H163   H     0.31556   0.15761   0.50131   0.00000  Uiso   1.00
H164   H     0.45001   0.01082   0.84332   0.00000  Uiso   1.00
H165   H     0.53935   0.35734   0.88216   0.00000  Uiso   1.00
H166   H     0.14500   0.14885   0.20735   0.00000  Uiso   1.00
H167   H     0.42852   0.83935   0.92855   0.00000  Uiso   1.00
H168   H     0.61691   0.57006   0.01047   0.00000  Uiso   1.00
H169   H     0.04026   0.28755   0.46486   0.00000  Uiso   1.00
H170   H     0.91031   0.27289   0.21650   0.00000  Uiso   1.00
H171   H     0.04477   0.12609   0.55852   0.00000  Uiso   1.00
H172   H     0.13410   0.47261   0.59736   0.00000  Uiso   1.00
H173   H     0.81608   0.24241   0.97620   0.00000  Uiso   1.00
H174   H     0.09961   0.93291   0.69740   0.00000  Uiso   1.00
H175   H     0.28799   0.66362   0.77931   0.00000  Uiso   1.00
O176   O     0.90198   0.18398   0.93327   0.00000  Uiso   1.00
O177   O     0.27396   0.77794   0.87947   0.00000  Uiso   1.00
O178   O     0.52112   0.73661   0.98694   0.00000  Uiso   1.00
N179   N     0.08543   0.17290   0.18704   0.00000  Uiso   1.00
N180   N     0.35049   0.88352   0.86129   0.00000  Uiso   1.00
N181   N     0.52663   0.56667   0.93791   0.00000  Uiso   1.00
N182   N     0.90844   0.22325   0.06265   0.00000  Uiso   1.00
N183   N     0.17350   0.93387   0.73691   0.00000  Uiso   1.00
N184   N     0.34965   0.61701   0.81352   0.00000  Uiso   1.00
