data_job_04457
_audit_creation_date              2018-12-19
_audit_creation_method            'Materials Studio'
_symmetry_space_group_name_H-M    'P1'
_symmetry_Int_Tables_number       1
_symmetry_cell_setting            triclinic
loop_
_symmetry_equiv_pos_as_xyz
  x,y,z
_cell_length_a                    20.4181
_cell_length_b                    18.4179
_cell_length_c                    38.1166
_cell_angle_alpha                 90.0000
_cell_angle_beta                  158.9859
_cell_angle_gamma                 90.0000
loop_
_atom_site_label
_atom_site_type_symbol
_atom_site_fract_x
_atom_site_fract_y
_atom_site_fract_z
_atom_site_U_iso_or_equiv
_atom_site_adp_type
_atom_site_occupancy
C1     C     0.82392   0.24951   0.63143   0.00000  Uiso   1.00
C2     C     0.90311   0.31589   0.65258   0.00000  Uiso   1.00
C3     C     0.80290   0.37119   0.58695   0.00000  Uiso   1.00
C4     C     0.90084   0.42716   0.62038   0.00000  Uiso   1.00
C5     C     0.99471   0.53011   0.63865   0.00000  Uiso   1.00
C6     C     0.90558   0.18361   0.65382   0.00000  Uiso   1.00
C7     C     0.80745   0.12770   0.58924   0.00000  Uiso   1.00
C8     C     0.90748   0.07231   0.62372   0.00000  Uiso   1.00
C9     C     0.00519   0.96989   0.64393   0.00000  Uiso   1.00
C10    C     0.90437   0.24975   0.70856   0.00000  Uiso   1.00
C11    C     0.80522   0.24943   0.69002   0.00000  Uiso   1.00
C12    C     0.90423   0.24970   0.77059   0.00000  Uiso   1.00
C13    C     0.00006   0.24996   0.87581   0.00000  Uiso   1.00
C14    C     0.17605   0.25055   0.80751   0.00000  Uiso   1.00
C15    C     0.09437   0.31645   0.74822   0.00000  Uiso   1.00
C16    C     0.19249   0.37234   0.78176   0.00000  Uiso   1.00
C17    C     0.09245   0.42773   0.71619   0.00000  Uiso   1.00
C18    C     0.09684   0.18417   0.74945   0.00000  Uiso   1.00
C19    C     0.19704   0.12885   0.78404   0.00000  Uiso   1.00
C20    C     0.09908   0.07288   0.71953   0.00000  Uiso   1.00
C21    C     0.09563   0.25031   0.80420   0.00000  Uiso   1.00
C22    C     0.19481   0.25058   0.88482   0.00000  Uiso   1.00
C23    C     0.09584   0.25026   0.86640   0.00000  Uiso   1.00
H24    H     0.67502   0.24907   0.55698   0.00000  Uiso   1.00
H25    H     0.65489   0.37074   0.51294   0.00000  Uiso   1.00
H26    H     0.65944   0.12728   0.51523   0.00000  Uiso   1.00
H27    H     0.65722   0.24899   0.61600   0.00000  Uiso   1.00
H28    H     0.71692   0.50586   0.50629   0.00000  Uiso   1.00
H29    H     0.72652   0.99251   0.51113   0.00000  Uiso   1.00
H30    H     0.72182   0.24915   0.72361   0.00000  Uiso   1.00
H31    H     0.32496   0.25099   0.88197   0.00000  Uiso   1.00
H32    H     0.34050   0.37276   0.85577   0.00000  Uiso   1.00
H33    H     0.34504   0.12930   0.85806   0.00000  Uiso   1.00
H34    H     0.34282   0.25101   0.95882   0.00000  Uiso   1.00
H35    H     0.27339   0.50750   0.78454   0.00000  Uiso   1.00
H36    H     0.28298   0.99414   0.78938   0.00000  Uiso   1.00
H37    H     0.27829   0.25079   0.00186   0.00000  Uiso   1.00
O38    O     0.99365   0.58674   0.62230   0.00000  Uiso   1.00
O39    O     0.00623   0.91324   0.62866   0.00000  Uiso   1.00
O40    O     0.00008   0.24995   0.90742   0.00000  Uiso   1.00
N41    N     0.84576   0.48954   0.57538   0.00000  Uiso   1.00
N42    N     0.85472   0.00959   0.57989   0.00000  Uiso   1.00
N43    N     0.85034   0.24952   0.77855   0.00000  Uiso   1.00
N44    N     0.14519   0.49043   0.72510   0.00000  Uiso   1.00
N45    N     0.15415   0.01048   0.72962   0.00000  Uiso   1.00
N46    N     0.14976   0.25040   0.92827   0.00000  Uiso   1.00
C47    C     0.32392   0.62205   0.13104   0.00000  Uiso   1.00
C48    C     0.40438   0.68824   0.15287   0.00000  Uiso   1.00
C49    C     0.30524   0.74389   0.08781   0.00000  Uiso   1.00
C50    C     0.40424   0.79961   0.12182   0.00000  Uiso   1.00
C51    C     0.50008   0.90237   0.14114   0.00000  Uiso   1.00
C52    C     0.40437   0.55596   0.15278   0.00000  Uiso   1.00
C53    C     0.30521   0.50039   0.08764   0.00000  Uiso   1.00
C54    C     0.40422   0.44475   0.12158   0.00000  Uiso   1.00
C55    C     0.50005   0.34212   0.14079   0.00000  Uiso   1.00
C56    C     0.40432   0.62194   0.20815   0.00000  Uiso   1.00
C57    C     0.30513   0.62182   0.18957   0.00000  Uiso   1.00
C58    C     0.40409   0.62171   0.27014   0.00000  Uiso   1.00
C59    C     0.49984   0.62151   0.37532   0.00000  Uiso   1.00
C60    C     0.67606   0.62204   0.30714   0.00000  Uiso   1.00
C61    C     0.59565   0.68823   0.24852   0.00000  Uiso   1.00
C62    C     0.69483   0.74388   0.28264   0.00000  Uiso   1.00
C63    C     0.59585   0.79961   0.21764   0.00000  Uiso   1.00
C64    C     0.59563   0.55596   0.24842   0.00000  Uiso   1.00
C65    C     0.69481   0.50038   0.28247   0.00000  Uiso   1.00
C66    C     0.59583   0.44475   0.21740   0.00000  Uiso   1.00
C67    C     0.59559   0.62193   0.30380   0.00000  Uiso   1.00
C68    C     0.69473   0.62182   0.38441   0.00000  Uiso   1.00
C69    C     0.59571   0.62170   0.36596   0.00000  Uiso   1.00
H70    H     0.17501   0.62205   0.05658   0.00000  Uiso   1.00
H71    H     0.15721   0.74387   0.01379   0.00000  Uiso   1.00
H72    H     0.15720   0.50041   0.01363   0.00000  Uiso   1.00
H73    H     0.15712   0.62182   0.11555   0.00000  Uiso   1.00
H74    H     0.22184   0.87892   0.00852   0.00000  Uiso   1.00
H75    H     0.22180   0.36555   0.00820   0.00000  Uiso   1.00
H76    H     0.22162   0.62157   0.22311   0.00000  Uiso   1.00
H77    H     0.82497   0.62204   0.38161   0.00000  Uiso   1.00
H78    H     0.84285   0.74386   0.35666   0.00000  Uiso   1.00
H79    H     0.84282   0.50040   0.35650   0.00000  Uiso   1.00
H80    H     0.84274   0.62181   0.45841   0.00000  Uiso   1.00
H81    H     0.77832   0.87891   0.28681   0.00000  Uiso   1.00
H82    H     0.77828   0.36554   0.28648   0.00000  Uiso   1.00
H83    H     0.77810   0.62156   0.50139   0.00000  Uiso   1.00
O84    O     0.50011   0.95904   0.12538   0.00000  Uiso   1.00
O85    O     0.50006   0.28552   0.12495   0.00000  Uiso   1.00
O86    O     0.49982   0.62142   0.40691   0.00000  Uiso   1.00
N87    N     0.35035   0.86220   0.07745   0.00000  Uiso   1.00
N88    N     0.35032   0.38224   0.07714   0.00000  Uiso   1.00
N89    N     0.35015   0.62158   0.27806   0.00000  Uiso   1.00
N90    N     0.64979   0.86220   0.22719   0.00000  Uiso   1.00
N91    N     0.64976   0.38224   0.22688   0.00000  Uiso   1.00
N92    N     0.64959   0.62158   0.42780   0.00000  Uiso   1.00
C93    C     0.17608   0.74951   0.86857   0.00000  Uiso   1.00
C94    C     0.09689   0.81589   0.84742   0.00000  Uiso   1.00
C95    C     0.19710   0.87119   0.91305   0.00000  Uiso   1.00
C96    C     0.09916   0.92716   0.87962   0.00000  Uiso   1.00
C97    C     0.00529   0.03011   0.86135   0.00000  Uiso   1.00
C98    C     0.09442   0.68361   0.84618   0.00000  Uiso   1.00
C99    C     0.19255   0.62770   0.91076   0.00000  Uiso   1.00
C100   C     0.09252   0.57231   0.87628   0.00000  Uiso   1.00
C101   C     0.99481   0.46989   0.85607   0.00000  Uiso   1.00
C102   C     0.09563   0.74975   0.79144   0.00000  Uiso   1.00
C103   C     0.19478   0.74943   0.80998   0.00000  Uiso   1.00
C104   C     0.09577   0.74970   0.72941   0.00000  Uiso   1.00
C105   C     0.99994   0.74996   0.62419   0.00000  Uiso   1.00
C106   C     0.82395   0.75055   0.69249   0.00000  Uiso   1.00
C107   C     0.90563   0.81645   0.75178   0.00000  Uiso   1.00
C108   C     0.80751   0.87234   0.71824   0.00000  Uiso   1.00
C109   C     0.90755   0.92773   0.78381   0.00000  Uiso   1.00
C110   C     0.90316   0.68417   0.75055   0.00000  Uiso   1.00
C111   C     0.80296   0.62885   0.71596   0.00000  Uiso   1.00
C112   C     0.90092   0.57288   0.78047   0.00000  Uiso   1.00
C113   C     0.90437   0.75031   0.69580   0.00000  Uiso   1.00
C114   C     0.80519   0.75058   0.61518   0.00000  Uiso   1.00
C115   C     0.90416   0.75026   0.63360   0.00000  Uiso   1.00
H116   H     0.32498   0.74907   0.94302   0.00000  Uiso   1.00
H117   H     0.34511   0.87074   0.98706   0.00000  Uiso   1.00
H118   H     0.34056   0.62728   0.98477   0.00000  Uiso   1.00
H119   H     0.34278   0.74899   0.88400   0.00000  Uiso   1.00
H120   H     0.28308   0.00586   0.99371   0.00000  Uiso   1.00
H121   H     0.27348   0.49251   0.98887   0.00000  Uiso   1.00
H122   H     0.27818   0.74915   0.77639   0.00000  Uiso   1.00
H123   H     0.67504   0.75099   0.61803   0.00000  Uiso   1.00
H124   H     0.65950   0.87276   0.64423   0.00000  Uiso   1.00
H125   H     0.65496   0.62930   0.64194   0.00000  Uiso   1.00
H126   H     0.65718   0.75101   0.54118   0.00000  Uiso   1.00
H127   H     0.72661   0.00750   0.71546   0.00000  Uiso   1.00
H128   H     0.71702   0.49414   0.71062   0.00000  Uiso   1.00
H129   H     0.72171   0.75079   0.49814   0.00000  Uiso   1.00
O130   O     0.00635   0.08674   0.87770   0.00000  Uiso   1.00
O131   O     0.99377   0.41324   0.87134   0.00000  Uiso   1.00
O132   O     0.99992   0.74995   0.59258   0.00000  Uiso   1.00
N133   N     0.15424   0.98954   0.92462   0.00000  Uiso   1.00
N134   N     0.14528   0.50959   0.92011   0.00000  Uiso   1.00
N135   N     0.14966   0.74952   0.72145   0.00000  Uiso   1.00
N136   N     0.85481   0.99043   0.77490   0.00000  Uiso   1.00
N137   N     0.84585   0.51048   0.77038   0.00000  Uiso   1.00
N138   N     0.85024   0.75040   0.57173   0.00000  Uiso   1.00
C139   C     0.67608   0.12205   0.36896   0.00000  Uiso   1.00
C140   C     0.59562   0.18824   0.34713   0.00000  Uiso   1.00
C141   C     0.69476   0.24389   0.41219   0.00000  Uiso   1.00
C142   C     0.59576   0.29961   0.37818   0.00000  Uiso   1.00
C143   C     0.49992   0.40237   0.35886   0.00000  Uiso   1.00
C144   C     0.59563   0.05596   0.34722   0.00000  Uiso   1.00
C145   C     0.69479   0.00039   0.41236   0.00000  Uiso   1.00
C146   C     0.59578   0.94475   0.37842   0.00000  Uiso   1.00
C147   C     0.49995   0.84212   0.35921   0.00000  Uiso   1.00
C148   C     0.59568   0.12194   0.29185   0.00000  Uiso   1.00
C149   C     0.69487   0.12182   0.31043   0.00000  Uiso   1.00
C150   C     0.59591   0.12171   0.22986   0.00000  Uiso   1.00
C151   C     0.50016   0.12151   0.12468   0.00000  Uiso   1.00
C152   C     0.32394   0.12204   0.19286   0.00000  Uiso   1.00
C153   C     0.40435   0.18823   0.25148   0.00000  Uiso   1.00
C154   C     0.30517   0.24388   0.21736   0.00000  Uiso   1.00
C155   C     0.40415   0.29961   0.28236   0.00000  Uiso   1.00
C156   C     0.40437   0.05596   0.25158   0.00000  Uiso   1.00
C157   C     0.30519   0.00038   0.21753   0.00000  Uiso   1.00
C158   C     0.40417   0.94475   0.28260   0.00000  Uiso   1.00
C159   C     0.40441   0.12193   0.19620   0.00000  Uiso   1.00
C160   C     0.30527   0.12182   0.11559   0.00000  Uiso   1.00
C161   C     0.40429   0.12170   0.13404   0.00000  Uiso   1.00
H162   H     0.82499   0.12205   0.44342   0.00000  Uiso   1.00
H163   H     0.84279   0.24387   0.48621   0.00000  Uiso   1.00
H164   H     0.84280   0.00041   0.48637   0.00000  Uiso   1.00
H165   H     0.84288   0.12182   0.38445   0.00000  Uiso   1.00
H166   H     0.77816   0.37892   0.49148   0.00000  Uiso   1.00
H167   H     0.77820   0.86555   0.49180   0.00000  Uiso   1.00
H168   H     0.77838   0.12157   0.27689   0.00000  Uiso   1.00
H169   H     0.17503   0.12204   0.11839   0.00000  Uiso   1.00
H170   H     0.15715   0.24386   0.14334   0.00000  Uiso   1.00
H171   H     0.15718   0.00040   0.14350   0.00000  Uiso   1.00
H172   H     0.15726   0.12181   0.04159   0.00000  Uiso   1.00
H173   H     0.22168   0.37891   0.21319   0.00000  Uiso   1.00
H174   H     0.22172   0.86554   0.21352   0.00000  Uiso   1.00
H175   H     0.22190   0.12156   0.99861   0.00000  Uiso   1.00
O176   O     0.49989   0.45904   0.37462   0.00000  Uiso   1.00
O177   O     0.49994   0.78552   0.37505   0.00000  Uiso   1.00
O178   O     0.50018   0.12142   0.09309   0.00000  Uiso   1.00
N179   N     0.64965   0.36220   0.42255   0.00000  Uiso   1.00
N180   N     0.64968   0.88224   0.42286   0.00000  Uiso   1.00
N181   N     0.64985   0.12158   0.22194   0.00000  Uiso   1.00
N182   N     0.35021   0.36220   0.27281   0.00000  Uiso   1.00
N183   N     0.35024   0.88224   0.27312   0.00000  Uiso   1.00
N184   N     0.35041   0.12158   0.07220   0.00000  Uiso   1.00
C185   C     0.17608   0.75049   0.36857   0.00000  Uiso   1.00
C186   C     0.09689   0.68411   0.34742   0.00000  Uiso   1.00
C187   C     0.19710   0.62881   0.41305   0.00000  Uiso   1.00
C188   C     0.09916   0.57284   0.37962   0.00000  Uiso   1.00
C189   C     0.00529   0.46989   0.36135   0.00000  Uiso   1.00
C190   C     0.09442   0.81639   0.34618   0.00000  Uiso   1.00
C191   C     0.19255   0.87230   0.41076   0.00000  Uiso   1.00
C192   C     0.09252   0.92769   0.37628   0.00000  Uiso   1.00
C193   C     0.99481   0.03011   0.35607   0.00000  Uiso   1.00
C194   C     0.09563   0.75025   0.29144   0.00000  Uiso   1.00
C195   C     0.19478   0.75057   0.30998   0.00000  Uiso   1.00
C196   C     0.09577   0.75030   0.22941   0.00000  Uiso   1.00
C197   C     0.99994   0.75004   0.12419   0.00000  Uiso   1.00
C198   C     0.82395   0.74945   0.19249   0.00000  Uiso   1.00
C199   C     0.90563   0.68355   0.25178   0.00000  Uiso   1.00
C200   C     0.80751   0.62766   0.21824   0.00000  Uiso   1.00
C201   C     0.90755   0.57227   0.28381   0.00000  Uiso   1.00
C202   C     0.90316   0.81583   0.25055   0.00000  Uiso   1.00
C203   C     0.80296   0.87115   0.21596   0.00000  Uiso   1.00
C204   C     0.90092   0.92712   0.28047   0.00000  Uiso   1.00
C205   C     0.90437   0.74969   0.19580   0.00000  Uiso   1.00
C206   C     0.80519   0.74942   0.11518   0.00000  Uiso   1.00
C207   C     0.90416   0.74974   0.13360   0.00000  Uiso   1.00
H208   H     0.32498   0.75093   0.44302   0.00000  Uiso   1.00
H209   H     0.34511   0.62926   0.48706   0.00000  Uiso   1.00
H210   H     0.34056   0.87272   0.48477   0.00000  Uiso   1.00
H211   H     0.34278   0.75101   0.38400   0.00000  Uiso   1.00
H212   H     0.28308   0.49414   0.49371   0.00000  Uiso   1.00
H213   H     0.27348   0.00749   0.48887   0.00000  Uiso   1.00
H214   H     0.27818   0.75085   0.27639   0.00000  Uiso   1.00
H215   H     0.67504   0.74901   0.11803   0.00000  Uiso   1.00
H216   H     0.65950   0.62724   0.14423   0.00000  Uiso   1.00
H217   H     0.65496   0.87070   0.14194   0.00000  Uiso   1.00
H218   H     0.65718   0.74899   0.04118   0.00000  Uiso   1.00
H219   H     0.72661   0.49250   0.21546   0.00000  Uiso   1.00
H220   H     0.71702   0.00586   0.21062   0.00000  Uiso   1.00
H221   H     0.72171   0.74921   0.99814   0.00000  Uiso   1.00
O222   O     0.00635   0.41326   0.37770   0.00000  Uiso   1.00
O223   O     0.99377   0.08676   0.37134   0.00000  Uiso   1.00
O224   O     0.99992   0.75005   0.09258   0.00000  Uiso   1.00
N225   N     0.15424   0.51046   0.42462   0.00000  Uiso   1.00
N226   N     0.14528   0.99041   0.42011   0.00000  Uiso   1.00
N227   N     0.14966   0.75048   0.22145   0.00000  Uiso   1.00
N228   N     0.85481   0.50957   0.27490   0.00000  Uiso   1.00
N229   N     0.84585   0.98952   0.27038   0.00000  Uiso   1.00
N230   N     0.85024   0.74960   0.07173   0.00000  Uiso   1.00
C231   C     0.67608   0.37795   0.86896   0.00000  Uiso   1.00
C232   C     0.59562   0.31176   0.84713   0.00000  Uiso   1.00
C233   C     0.69476   0.25611   0.91219   0.00000  Uiso   1.00
C234   C     0.59576   0.20039   0.87818   0.00000  Uiso   1.00
C235   C     0.49992   0.09763   0.85886   0.00000  Uiso   1.00
C236   C     0.59563   0.44404   0.84722   0.00000  Uiso   1.00
C237   C     0.69479   0.49961   0.91236   0.00000  Uiso   1.00
C238   C     0.59578   0.55525   0.87842   0.00000  Uiso   1.00
C239   C     0.49995   0.65788   0.85921   0.00000  Uiso   1.00
C240   C     0.59568   0.37806   0.79185   0.00000  Uiso   1.00
C241   C     0.69487   0.37818   0.81043   0.00000  Uiso   1.00
C242   C     0.59591   0.37829   0.72986   0.00000  Uiso   1.00
C243   C     0.50016   0.37849   0.62468   0.00000  Uiso   1.00
C244   C     0.32394   0.37796   0.69286   0.00000  Uiso   1.00
C245   C     0.40435   0.31177   0.75148   0.00000  Uiso   1.00
C246   C     0.30517   0.25612   0.71736   0.00000  Uiso   1.00
C247   C     0.40415   0.20039   0.78236   0.00000  Uiso   1.00
C248   C     0.40437   0.44404   0.75158   0.00000  Uiso   1.00
C249   C     0.30519   0.49962   0.71753   0.00000  Uiso   1.00
C250   C     0.40417   0.55525   0.78260   0.00000  Uiso   1.00
C251   C     0.40441   0.37807   0.69620   0.00000  Uiso   1.00
C252   C     0.30527   0.37818   0.61559   0.00000  Uiso   1.00
C253   C     0.40429   0.37830   0.63404   0.00000  Uiso   1.00
H254   H     0.82499   0.37795   0.94342   0.00000  Uiso   1.00
H255   H     0.84279   0.25613   0.98621   0.00000  Uiso   1.00
H256   H     0.84280   0.49959   0.98637   0.00000  Uiso   1.00
H257   H     0.84288   0.37818   0.88445   0.00000  Uiso   1.00
H258   H     0.77816   0.12108   0.99148   0.00000  Uiso   1.00
H259   H     0.77820   0.63445   0.99180   0.00000  Uiso   1.00
H260   H     0.77838   0.37843   0.77689   0.00000  Uiso   1.00
H261   H     0.17503   0.37796   0.61839   0.00000  Uiso   1.00
H262   H     0.15715   0.25614   0.64334   0.00000  Uiso   1.00
H263   H     0.15718   0.49960   0.64350   0.00000  Uiso   1.00
H264   H     0.15726   0.37819   0.54159   0.00000  Uiso   1.00
H265   H     0.22168   0.12109   0.71319   0.00000  Uiso   1.00
H266   H     0.22172   0.63446   0.71352   0.00000  Uiso   1.00
H267   H     0.22190   0.37844   0.49861   0.00000  Uiso   1.00
O268   O     0.49989   0.04096   0.87462   0.00000  Uiso   1.00
O269   O     0.49994   0.71448   0.87505   0.00000  Uiso   1.00
O270   O     0.50018   0.37858   0.59309   0.00000  Uiso   1.00
N271   N     0.64965   0.13780   0.92255   0.00000  Uiso   1.00
N272   N     0.64968   0.61776   0.92286   0.00000  Uiso   1.00
N273   N     0.64985   0.37842   0.72194   0.00000  Uiso   1.00
N274   N     0.35021   0.13780   0.77281   0.00000  Uiso   1.00
N275   N     0.35024   0.61776   0.77312   0.00000  Uiso   1.00
N276   N     0.35041   0.37842   0.57220   0.00000  Uiso   1.00
C277   C     0.82392   0.25049   0.13143   0.00000  Uiso   1.00
C278   C     0.90311   0.18411   0.15258   0.00000  Uiso   1.00
C279   C     0.80290   0.12881   0.08695   0.00000  Uiso   1.00
C280   C     0.90084   0.07284   0.12038   0.00000  Uiso   1.00
C281   C     0.99471   0.96989   0.13865   0.00000  Uiso   1.00
C282   C     0.90558   0.31639   0.15382   0.00000  Uiso   1.00
C283   C     0.80745   0.37230   0.08924   0.00000  Uiso   1.00
C284   C     0.90748   0.42769   0.12372   0.00000  Uiso   1.00
C285   C     0.00519   0.53011   0.14393   0.00000  Uiso   1.00
C286   C     0.90437   0.25025   0.20856   0.00000  Uiso   1.00
C287   C     0.80522   0.25057   0.19002   0.00000  Uiso   1.00
C288   C     0.90423   0.25030   0.27059   0.00000  Uiso   1.00
C289   C     0.00006   0.25004   0.37581   0.00000  Uiso   1.00
C290   C     0.17605   0.24945   0.30751   0.00000  Uiso   1.00
C291   C     0.09437   0.18355   0.24822   0.00000  Uiso   1.00
C292   C     0.19249   0.12766   0.28176   0.00000  Uiso   1.00
C293   C     0.09245   0.07227   0.21619   0.00000  Uiso   1.00
C294   C     0.09684   0.31583   0.24945   0.00000  Uiso   1.00
C295   C     0.19704   0.37115   0.28404   0.00000  Uiso   1.00
C296   C     0.09908   0.42712   0.21953   0.00000  Uiso   1.00
C297   C     0.09563   0.24969   0.30420   0.00000  Uiso   1.00
C298   C     0.19481   0.24942   0.38482   0.00000  Uiso   1.00
C299   C     0.09584   0.24974   0.36640   0.00000  Uiso   1.00
H300   H     0.67502   0.25093   0.05698   0.00000  Uiso   1.00
H301   H     0.65489   0.12926   0.01294   0.00000  Uiso   1.00
H302   H     0.65944   0.37272   0.01523   0.00000  Uiso   1.00
H303   H     0.65722   0.25101   0.11600   0.00000  Uiso   1.00
H304   H     0.71692   0.99414   0.00629   0.00000  Uiso   1.00
H305   H     0.72652   0.50749   0.01113   0.00000  Uiso   1.00
H306   H     0.72182   0.25085   0.22361   0.00000  Uiso   1.00
H307   H     0.32496   0.24901   0.38197   0.00000  Uiso   1.00
H308   H     0.34050   0.12724   0.35577   0.00000  Uiso   1.00
H309   H     0.34504   0.37070   0.35806   0.00000  Uiso   1.00
H310   H     0.34282   0.24899   0.45882   0.00000  Uiso   1.00
H311   H     0.27339   0.99250   0.28454   0.00000  Uiso   1.00
H312   H     0.28298   0.50586   0.28938   0.00000  Uiso   1.00
H313   H     0.27829   0.24921   0.50186   0.00000  Uiso   1.00
O314   O     0.99365   0.91326   0.12230   0.00000  Uiso   1.00
O315   O     0.00623   0.58676   0.12866   0.00000  Uiso   1.00
O316   O     0.00008   0.25005   0.40742   0.00000  Uiso   1.00
N317   N     0.84576   0.01046   0.07538   0.00000  Uiso   1.00
N318   N     0.85472   0.49041   0.07989   0.00000  Uiso   1.00
N319   N     0.85034   0.25048   0.27855   0.00000  Uiso   1.00
N320   N     0.14519   0.00957   0.22510   0.00000  Uiso   1.00
N321   N     0.15415   0.48952   0.22962   0.00000  Uiso   1.00
N322   N     0.14976   0.24960   0.42827   0.00000  Uiso   1.00
C323   C     0.32392   0.87795   0.63104   0.00000  Uiso   1.00
C324   C     0.40438   0.81176   0.65287   0.00000  Uiso   1.00
C325   C     0.30524   0.75611   0.58781   0.00000  Uiso   1.00
C326   C     0.40424   0.70039   0.62182   0.00000  Uiso   1.00
C327   C     0.50008   0.59763   0.64114   0.00000  Uiso   1.00
C328   C     0.40437   0.94404   0.65278   0.00000  Uiso   1.00
C329   C     0.30521   0.99961   0.58764   0.00000  Uiso   1.00
C330   C     0.40422   0.05525   0.62158   0.00000  Uiso   1.00
C331   C     0.50005   0.15788   0.64079   0.00000  Uiso   1.00
C332   C     0.40432   0.87806   0.70815   0.00000  Uiso   1.00
C333   C     0.30513   0.87818   0.68957   0.00000  Uiso   1.00
C334   C     0.40409   0.87829   0.77014   0.00000  Uiso   1.00
C335   C     0.49984   0.87849   0.87532   0.00000  Uiso   1.00
C336   C     0.67606   0.87796   0.80714   0.00000  Uiso   1.00
C337   C     0.59565   0.81177   0.74852   0.00000  Uiso   1.00
C338   C     0.69483   0.75612   0.78264   0.00000  Uiso   1.00
C339   C     0.59585   0.70039   0.71764   0.00000  Uiso   1.00
C340   C     0.59563   0.94404   0.74842   0.00000  Uiso   1.00
C341   C     0.69481   0.99962   0.78247   0.00000  Uiso   1.00
C342   C     0.59583   0.05525   0.71740   0.00000  Uiso   1.00
C343   C     0.59559   0.87807   0.80380   0.00000  Uiso   1.00
C344   C     0.69473   0.87818   0.88441   0.00000  Uiso   1.00
C345   C     0.59571   0.87830   0.86596   0.00000  Uiso   1.00
H346   H     0.17501   0.87795   0.55658   0.00000  Uiso   1.00
H347   H     0.15721   0.75613   0.51379   0.00000  Uiso   1.00
H348   H     0.15720   0.99959   0.51363   0.00000  Uiso   1.00
H349   H     0.15712   0.87818   0.61555   0.00000  Uiso   1.00
H350   H     0.22184   0.62108   0.50852   0.00000  Uiso   1.00
H351   H     0.22180   0.13445   0.50820   0.00000  Uiso   1.00
H352   H     0.22162   0.87843   0.72311   0.00000  Uiso   1.00
H353   H     0.82497   0.87796   0.88161   0.00000  Uiso   1.00
H354   H     0.84285   0.75614   0.85666   0.00000  Uiso   1.00
H355   H     0.84282   0.99960   0.85650   0.00000  Uiso   1.00
H356   H     0.84274   0.87819   0.95841   0.00000  Uiso   1.00
H357   H     0.77832   0.62109   0.78681   0.00000  Uiso   1.00
H358   H     0.77828   0.13446   0.78648   0.00000  Uiso   1.00
H359   H     0.77810   0.87844   0.00139   0.00000  Uiso   1.00
O360   O     0.50011   0.54096   0.62538   0.00000  Uiso   1.00
O361   O     0.50006   0.21448   0.62495   0.00000  Uiso   1.00
O362   O     0.49982   0.87858   0.90691   0.00000  Uiso   1.00
N363   N     0.35035   0.63780   0.57745   0.00000  Uiso   1.00
N364   N     0.35032   0.11776   0.57714   0.00000  Uiso   1.00
N365   N     0.35015   0.87842   0.77806   0.00000  Uiso   1.00
N366   N     0.64979   0.63780   0.72719   0.00000  Uiso   1.00
N367   N     0.64976   0.11776   0.72688   0.00000  Uiso   1.00
N368   N     0.64959   0.87842   0.92780   0.00000  Uiso   1.00
