data_job_02067
_audit_creation_date              2018-12-19
_audit_creation_method            'Materials Studio'
_symmetry_space_group_name_H-M    'P1'
_symmetry_Int_Tables_number       1
_symmetry_cell_setting            triclinic
loop_
_symmetry_equiv_pos_as_xyz
  x,y,z
_cell_length_a                    21.5506
_cell_length_b                    9.9347
_cell_length_c                    23.8991
_cell_angle_alpha                 90.0000
_cell_angle_beta                  87.5428
_cell_angle_gamma                 90.0000
loop_
_atom_site_label
_atom_site_type_symbol
_atom_site_fract_x
_atom_site_fract_y
_atom_site_fract_z
_atom_site_U_iso_or_equiv
_atom_site_adp_type
_atom_site_occupancy
C1     C     0.60517   0.38971   0.30164   0.00000  Uiso   1.00
C2     C     0.66125   0.43153   0.33435   0.00000  Uiso   1.00
C3     C     0.66068   0.52336   0.37813   0.00000  Uiso   1.00
C4     C     0.71684   0.54796   0.40261   0.00000  Uiso   1.00
C5     C     0.79559   0.62282   0.45623   0.00000  Uiso   1.00
C6     C     0.62240   0.41868   0.24026   0.00000  Uiso   1.00
C7     C     0.58915   0.49969   0.20493   0.00000  Uiso   1.00
C8     C     0.61260   0.51346   0.15020   0.00000  Uiso   1.00
C9     C     0.63101   0.56829   0.05773   0.00000  Uiso   1.00
C10    C     0.60091   0.23696   0.30675   0.00000  Uiso   1.00
C11    C     0.54960   0.16518   0.32730   0.00000  Uiso   1.00
C12    C     0.55496   0.02594   0.32854   0.00000  Uiso   1.00
C13    C     0.54001   0.79864   0.33930   0.00000  Uiso   1.00
C14    C     0.70592   0.27008   0.26728   0.00000  Uiso   1.00
C15    C     0.71597   0.36655   0.31569   0.00000  Uiso   1.00
C16    C     0.77214   0.39101   0.34012   0.00000  Uiso   1.00
C17    C     0.77166   0.48286   0.38392   0.00000  Uiso   1.00
C18    C     0.67712   0.35371   0.22160   0.00000  Uiso   1.00
C19    C     0.70062   0.36734   0.16692   0.00000  Uiso   1.00
C20    C     0.66742   0.44837   0.13151   0.00000  Uiso   1.00
C21    C     0.65564   0.17198   0.28809   0.00000  Uiso   1.00
C22    C     0.66107   0.03283   0.28929   0.00000  Uiso   1.00
C23    C     0.60978   0.96085   0.30985   0.00000  Uiso   1.00
H24    H     0.56257   0.44030   0.31616   0.00000  Uiso   1.00
H25    H     0.61832   0.57363   0.39255   0.00000  Uiso   1.00
H26    H     0.54680   0.54995   0.21938   0.00000  Uiso   1.00
H27    H     0.50726   0.21549   0.34174   0.00000  Uiso   1.00
H28    H     0.70427   0.69284   0.46900   0.00000  Uiso   1.00
H29    H     0.55346   0.64287   0.10385   0.00000  Uiso   1.00
H30    H     0.47008   0.93760   0.36186   0.00000  Uiso   1.00
H31    H     0.74852   0.21950   0.25275   0.00000  Uiso   1.00
H32    H     0.81448   0.34071   0.32567   0.00000  Uiso   1.00
H33    H     0.74296   0.31704   0.15249   0.00000  Uiso   1.00
H34    H     0.70342   0.98258   0.27485   0.00000  Uiso   1.00
H35    H     0.86348   0.50380   0.41472   0.00000  Uiso   1.00
H36    H     0.71267   0.45383   0.04956   0.00000  Uiso   1.00
H37    H     0.62929   0.74857   0.30758   0.00000  Uiso   1.00
O38    O     0.82392   0.68208   0.49096   0.00000  Uiso   1.00
O39    O     0.62605   0.61651   0.01189   0.00000  Uiso   1.00
O40    O     0.51666   0.69121   0.35040   0.00000  Uiso   1.00
N41    N     0.73269   0.63169   0.44623   0.00000  Uiso   1.00
N42    N     0.59169   0.58500   0.10483   0.00000  Uiso   1.00
N43    N     0.51373   0.92563   0.34604   0.00000  Uiso   1.00
N44    N     0.81836   0.52997   0.41702   0.00000  Uiso   1.00
N45    N     0.67736   0.48328   0.07562   0.00000  Uiso   1.00
N46    N     0.59940   0.82391   0.31683   0.00000  Uiso   1.00
C47    C     0.10517   0.88971   0.30164   0.00000  Uiso   1.00
C48    C     0.16125   0.93153   0.33435   0.00000  Uiso   1.00
C49    C     0.16068   0.02336   0.37813   0.00000  Uiso   1.00
C50    C     0.21684   0.04796   0.40261   0.00000  Uiso   1.00
C51    C     0.29559   0.12282   0.45623   0.00000  Uiso   1.00
C52    C     0.12240   0.91868   0.24026   0.00000  Uiso   1.00
C53    C     0.08915   0.99969   0.20493   0.00000  Uiso   1.00
C54    C     0.11260   0.01346   0.15020   0.00000  Uiso   1.00
C55    C     0.13101   0.06829   0.05773   0.00000  Uiso   1.00
C56    C     0.10091   0.73696   0.30675   0.00000  Uiso   1.00
C57    C     0.04960   0.66518   0.32730   0.00000  Uiso   1.00
C58    C     0.05496   0.52594   0.32854   0.00000  Uiso   1.00
C59    C     0.04001   0.29864   0.33930   0.00000  Uiso   1.00
C60    C     0.20592   0.77008   0.26728   0.00000  Uiso   1.00
C61    C     0.21597   0.86655   0.31569   0.00000  Uiso   1.00
C62    C     0.27214   0.89101   0.34012   0.00000  Uiso   1.00
C63    C     0.27166   0.98286   0.38392   0.00000  Uiso   1.00
C64    C     0.17712   0.85371   0.22160   0.00000  Uiso   1.00
C65    C     0.20062   0.86734   0.16692   0.00000  Uiso   1.00
C66    C     0.16742   0.94837   0.13151   0.00000  Uiso   1.00
C67    C     0.15564   0.67198   0.28809   0.00000  Uiso   1.00
C68    C     0.16107   0.53283   0.28929   0.00000  Uiso   1.00
C69    C     0.10978   0.46085   0.30985   0.00000  Uiso   1.00
H70    H     0.06257   0.94030   0.31616   0.00000  Uiso   1.00
H71    H     0.11832   0.07363   0.39255   0.00000  Uiso   1.00
H72    H     0.04680   0.04995   0.21938   0.00000  Uiso   1.00
H73    H     0.00726   0.71549   0.34174   0.00000  Uiso   1.00
H74    H     0.20427   0.19284   0.46900   0.00000  Uiso   1.00
H75    H     0.05346   0.14287   0.10385   0.00000  Uiso   1.00
H76    H     0.97008   0.43760   0.36186   0.00000  Uiso   1.00
H77    H     0.24852   0.71950   0.25275   0.00000  Uiso   1.00
H78    H     0.31448   0.84071   0.32567   0.00000  Uiso   1.00
H79    H     0.24296   0.81704   0.15249   0.00000  Uiso   1.00
H80    H     0.20342   0.48258   0.27485   0.00000  Uiso   1.00
H81    H     0.36348   0.00380   0.41472   0.00000  Uiso   1.00
H82    H     0.21267   0.95383   0.04956   0.00000  Uiso   1.00
H83    H     0.12929   0.24857   0.30758   0.00000  Uiso   1.00
O84    O     0.32392   0.18208   0.49096   0.00000  Uiso   1.00
O85    O     0.12605   0.11651   0.01189   0.00000  Uiso   1.00
O86    O     0.01666   0.19121   0.35040   0.00000  Uiso   1.00
N87    N     0.23269   0.13169   0.44623   0.00000  Uiso   1.00
N88    N     0.09169   0.08500   0.10483   0.00000  Uiso   1.00
N89    N     0.01373   0.42563   0.34604   0.00000  Uiso   1.00
N90    N     0.31836   0.02997   0.41702   0.00000  Uiso   1.00
N91    N     0.17736   0.98328   0.07562   0.00000  Uiso   1.00
N92    N     0.09940   0.32391   0.31683   0.00000  Uiso   1.00
C93    C     0.39483   0.38971   0.19836   0.00000  Uiso   1.00
C94    C     0.33875   0.43153   0.16565   0.00000  Uiso   1.00
C95    C     0.33932   0.52336   0.12187   0.00000  Uiso   1.00
C96    C     0.28316   0.54796   0.09739   0.00000  Uiso   1.00
C97    C     0.20441   0.62282   0.04377   0.00000  Uiso   1.00
C98    C     0.37760   0.41868   0.25974   0.00000  Uiso   1.00
C99    C     0.41085   0.49969   0.29507   0.00000  Uiso   1.00
C100   C     0.38740   0.51346   0.34980   0.00000  Uiso   1.00
C101   C     0.36899   0.56829   0.44227   0.00000  Uiso   1.00
C102   C     0.39909   0.23696   0.19325   0.00000  Uiso   1.00
C103   C     0.45040   0.16518   0.17270   0.00000  Uiso   1.00
C104   C     0.44504   0.02594   0.17146   0.00000  Uiso   1.00
C105   C     0.45999   0.79864   0.16070   0.00000  Uiso   1.00
C106   C     0.29408   0.27008   0.23272   0.00000  Uiso   1.00
C107   C     0.28403   0.36655   0.18431   0.00000  Uiso   1.00
C108   C     0.22786   0.39101   0.15988   0.00000  Uiso   1.00
C109   C     0.22834   0.48286   0.11608   0.00000  Uiso   1.00
C110   C     0.32288   0.35371   0.27840   0.00000  Uiso   1.00
C111   C     0.29938   0.36734   0.33308   0.00000  Uiso   1.00
C112   C     0.33258   0.44837   0.36849   0.00000  Uiso   1.00
C113   C     0.34436   0.17198   0.21191   0.00000  Uiso   1.00
C114   C     0.33893   0.03283   0.21071   0.00000  Uiso   1.00
C115   C     0.39022   0.96085   0.19015   0.00000  Uiso   1.00
H116   H     0.43743   0.44030   0.18384   0.00000  Uiso   1.00
H117   H     0.38168   0.57363   0.10745   0.00000  Uiso   1.00
H118   H     0.45320   0.54995   0.28062   0.00000  Uiso   1.00
H119   H     0.49274   0.21549   0.15826   0.00000  Uiso   1.00
H120   H     0.29573   0.69284   0.03100   0.00000  Uiso   1.00
H121   H     0.44654   0.64287   0.39615   0.00000  Uiso   1.00
H122   H     0.52992   0.93760   0.13814   0.00000  Uiso   1.00
H123   H     0.25148   0.21950   0.24725   0.00000  Uiso   1.00
H124   H     0.18552   0.34071   0.17433   0.00000  Uiso   1.00
H125   H     0.25704   0.31704   0.34751   0.00000  Uiso   1.00
H126   H     0.29658   0.98258   0.22515   0.00000  Uiso   1.00
H127   H     0.13652   0.50380   0.08528   0.00000  Uiso   1.00
H128   H     0.28733   0.45383   0.45044   0.00000  Uiso   1.00
H129   H     0.37071   0.74857   0.19242   0.00000  Uiso   1.00
O130   O     0.17608   0.68208   0.00904   0.00000  Uiso   1.00
O131   O     0.37395   0.61651   0.48811   0.00000  Uiso   1.00
O132   O     0.48334   0.69121   0.14960   0.00000  Uiso   1.00
N133   N     0.26731   0.63169   0.05377   0.00000  Uiso   1.00
N134   N     0.40831   0.58500   0.39517   0.00000  Uiso   1.00
N135   N     0.48627   0.92563   0.15396   0.00000  Uiso   1.00
N136   N     0.18164   0.52997   0.08298   0.00000  Uiso   1.00
N137   N     0.32264   0.48328   0.42438   0.00000  Uiso   1.00
N138   N     0.40060   0.82391   0.18317   0.00000  Uiso   1.00
C139   C     0.89483   0.88971   0.19836   0.00000  Uiso   1.00
C140   C     0.83875   0.93153   0.16565   0.00000  Uiso   1.00
C141   C     0.83932   0.02336   0.12187   0.00000  Uiso   1.00
C142   C     0.78316   0.04796   0.09739   0.00000  Uiso   1.00
C143   C     0.70441   0.12282   0.04377   0.00000  Uiso   1.00
C144   C     0.87760   0.91868   0.25974   0.00000  Uiso   1.00
C145   C     0.91085   0.99969   0.29507   0.00000  Uiso   1.00
C146   C     0.88740   0.01346   0.34980   0.00000  Uiso   1.00
C147   C     0.86899   0.06829   0.44227   0.00000  Uiso   1.00
C148   C     0.89909   0.73696   0.19325   0.00000  Uiso   1.00
C149   C     0.95040   0.66518   0.17270   0.00000  Uiso   1.00
C150   C     0.94504   0.52594   0.17146   0.00000  Uiso   1.00
C151   C     0.95999   0.29864   0.16070   0.00000  Uiso   1.00
C152   C     0.79408   0.77008   0.23272   0.00000  Uiso   1.00
C153   C     0.78403   0.86655   0.18431   0.00000  Uiso   1.00
C154   C     0.72786   0.89101   0.15988   0.00000  Uiso   1.00
C155   C     0.72834   0.98286   0.11608   0.00000  Uiso   1.00
C156   C     0.82288   0.85371   0.27840   0.00000  Uiso   1.00
C157   C     0.79938   0.86734   0.33308   0.00000  Uiso   1.00
C158   C     0.83258   0.94837   0.36849   0.00000  Uiso   1.00
C159   C     0.84436   0.67198   0.21191   0.00000  Uiso   1.00
C160   C     0.83893   0.53283   0.21071   0.00000  Uiso   1.00
C161   C     0.89022   0.46085   0.19015   0.00000  Uiso   1.00
H162   H     0.93743   0.94030   0.18384   0.00000  Uiso   1.00
H163   H     0.88168   0.07363   0.10745   0.00000  Uiso   1.00
H164   H     0.95320   0.04995   0.28062   0.00000  Uiso   1.00
H165   H     0.99274   0.71549   0.15826   0.00000  Uiso   1.00
H166   H     0.79573   0.19284   0.03100   0.00000  Uiso   1.00
H167   H     0.94654   0.14287   0.39615   0.00000  Uiso   1.00
H168   H     0.02992   0.43760   0.13814   0.00000  Uiso   1.00
H169   H     0.75148   0.71950   0.24725   0.00000  Uiso   1.00
H170   H     0.68552   0.84071   0.17433   0.00000  Uiso   1.00
H171   H     0.75704   0.81704   0.34751   0.00000  Uiso   1.00
H172   H     0.79658   0.48258   0.22515   0.00000  Uiso   1.00
H173   H     0.63652   0.00380   0.08528   0.00000  Uiso   1.00
H174   H     0.78733   0.95383   0.45044   0.00000  Uiso   1.00
H175   H     0.87071   0.24857   0.19242   0.00000  Uiso   1.00
O176   O     0.67608   0.18208   0.00904   0.00000  Uiso   1.00
O177   O     0.87395   0.11651   0.48811   0.00000  Uiso   1.00
O178   O     0.98334   0.19121   0.14960   0.00000  Uiso   1.00
N179   N     0.76731   0.13169   0.05377   0.00000  Uiso   1.00
N180   N     0.90831   0.08500   0.39517   0.00000  Uiso   1.00
N181   N     0.98627   0.42563   0.15396   0.00000  Uiso   1.00
N182   N     0.68164   0.02997   0.08298   0.00000  Uiso   1.00
N183   N     0.82264   0.98328   0.42438   0.00000  Uiso   1.00
N184   N     0.90060   0.32391   0.18317   0.00000  Uiso   1.00
C185   C     0.39483   0.61029   0.69836   0.00000  Uiso   1.00
C186   C     0.33875   0.56847   0.66565   0.00000  Uiso   1.00
C187   C     0.33932   0.47664   0.62187   0.00000  Uiso   1.00
C188   C     0.28316   0.45204   0.59739   0.00000  Uiso   1.00
C189   C     0.20441   0.37718   0.54377   0.00000  Uiso   1.00
C190   C     0.37760   0.58132   0.75974   0.00000  Uiso   1.00
C191   C     0.41085   0.50031   0.79507   0.00000  Uiso   1.00
C192   C     0.38740   0.48654   0.84980   0.00000  Uiso   1.00
C193   C     0.36899   0.43171   0.94227   0.00000  Uiso   1.00
C194   C     0.39909   0.76304   0.69325   0.00000  Uiso   1.00
C195   C     0.45040   0.83482   0.67270   0.00000  Uiso   1.00
C196   C     0.44504   0.97406   0.67146   0.00000  Uiso   1.00
C197   C     0.45999   0.20136   0.66070   0.00000  Uiso   1.00
C198   C     0.29408   0.72992   0.73272   0.00000  Uiso   1.00
C199   C     0.28403   0.63345   0.68431   0.00000  Uiso   1.00
C200   C     0.22786   0.60899   0.65988   0.00000  Uiso   1.00
C201   C     0.22834   0.51714   0.61608   0.00000  Uiso   1.00
C202   C     0.32288   0.64629   0.77840   0.00000  Uiso   1.00
C203   C     0.29938   0.63266   0.83308   0.00000  Uiso   1.00
C204   C     0.33258   0.55163   0.86849   0.00000  Uiso   1.00
C205   C     0.34436   0.82802   0.71191   0.00000  Uiso   1.00
C206   C     0.33893   0.96717   0.71071   0.00000  Uiso   1.00
C207   C     0.39022   0.03915   0.69015   0.00000  Uiso   1.00
H208   H     0.43743   0.55970   0.68384   0.00000  Uiso   1.00
H209   H     0.38168   0.42637   0.60745   0.00000  Uiso   1.00
H210   H     0.45320   0.45005   0.78062   0.00000  Uiso   1.00
H211   H     0.49274   0.78451   0.65826   0.00000  Uiso   1.00
H212   H     0.29573   0.30716   0.53100   0.00000  Uiso   1.00
H213   H     0.44654   0.35713   0.89615   0.00000  Uiso   1.00
H214   H     0.52992   0.06240   0.63814   0.00000  Uiso   1.00
H215   H     0.25148   0.78050   0.74725   0.00000  Uiso   1.00
H216   H     0.18552   0.65929   0.67433   0.00000  Uiso   1.00
H217   H     0.25704   0.68296   0.84751   0.00000  Uiso   1.00
H218   H     0.29658   0.01742   0.72515   0.00000  Uiso   1.00
H219   H     0.13652   0.49620   0.58528   0.00000  Uiso   1.00
H220   H     0.28733   0.54617   0.95044   0.00000  Uiso   1.00
H221   H     0.37071   0.25143   0.69242   0.00000  Uiso   1.00
O222   O     0.17608   0.31792   0.50904   0.00000  Uiso   1.00
O223   O     0.37395   0.38349   0.98811   0.00000  Uiso   1.00
O224   O     0.48334   0.30879   0.64960   0.00000  Uiso   1.00
N225   N     0.26731   0.36831   0.55377   0.00000  Uiso   1.00
N226   N     0.40831   0.41500   0.89517   0.00000  Uiso   1.00
N227   N     0.48627   0.07437   0.65396   0.00000  Uiso   1.00
N228   N     0.18164   0.47003   0.58298   0.00000  Uiso   1.00
N229   N     0.32264   0.51672   0.92438   0.00000  Uiso   1.00
N230   N     0.40060   0.17609   0.68317   0.00000  Uiso   1.00
C231   C     0.89483   0.11029   0.69836   0.00000  Uiso   1.00
C232   C     0.83875   0.06847   0.66565   0.00000  Uiso   1.00
C233   C     0.83932   0.97664   0.62187   0.00000  Uiso   1.00
C234   C     0.78316   0.95204   0.59739   0.00000  Uiso   1.00
C235   C     0.70441   0.87718   0.54377   0.00000  Uiso   1.00
C236   C     0.87760   0.08132   0.75974   0.00000  Uiso   1.00
C237   C     0.91085   0.00031   0.79507   0.00000  Uiso   1.00
C238   C     0.88740   0.98654   0.84980   0.00000  Uiso   1.00
C239   C     0.86899   0.93171   0.94227   0.00000  Uiso   1.00
C240   C     0.89909   0.26304   0.69325   0.00000  Uiso   1.00
C241   C     0.95040   0.33482   0.67270   0.00000  Uiso   1.00
C242   C     0.94504   0.47406   0.67146   0.00000  Uiso   1.00
C243   C     0.95999   0.70136   0.66070   0.00000  Uiso   1.00
C244   C     0.79408   0.22992   0.73272   0.00000  Uiso   1.00
C245   C     0.78403   0.13345   0.68431   0.00000  Uiso   1.00
C246   C     0.72786   0.10899   0.65988   0.00000  Uiso   1.00
C247   C     0.72834   0.01714   0.61608   0.00000  Uiso   1.00
C248   C     0.82288   0.14629   0.77840   0.00000  Uiso   1.00
C249   C     0.79938   0.13266   0.83308   0.00000  Uiso   1.00
C250   C     0.83258   0.05163   0.86849   0.00000  Uiso   1.00
C251   C     0.84436   0.32802   0.71191   0.00000  Uiso   1.00
C252   C     0.83893   0.46717   0.71071   0.00000  Uiso   1.00
C253   C     0.89022   0.53915   0.69015   0.00000  Uiso   1.00
H254   H     0.93743   0.05970   0.68384   0.00000  Uiso   1.00
H255   H     0.88168   0.92637   0.60745   0.00000  Uiso   1.00
H256   H     0.95320   0.95005   0.78062   0.00000  Uiso   1.00
H257   H     0.99274   0.28451   0.65826   0.00000  Uiso   1.00
H258   H     0.79573   0.80716   0.53100   0.00000  Uiso   1.00
H259   H     0.94654   0.85713   0.89615   0.00000  Uiso   1.00
H260   H     0.02992   0.56240   0.63814   0.00000  Uiso   1.00
H261   H     0.75148   0.28050   0.74725   0.00000  Uiso   1.00
H262   H     0.68552   0.15929   0.67433   0.00000  Uiso   1.00
H263   H     0.75704   0.18296   0.84751   0.00000  Uiso   1.00
H264   H     0.79658   0.51742   0.72515   0.00000  Uiso   1.00
H265   H     0.63652   0.99620   0.58528   0.00000  Uiso   1.00
H266   H     0.78733   0.04617   0.95044   0.00000  Uiso   1.00
H267   H     0.87071   0.75143   0.69242   0.00000  Uiso   1.00
O268   O     0.67608   0.81792   0.50904   0.00000  Uiso   1.00
O269   O     0.87395   0.88349   0.98811   0.00000  Uiso   1.00
O270   O     0.98334   0.80879   0.64960   0.00000  Uiso   1.00
N271   N     0.76731   0.86831   0.55377   0.00000  Uiso   1.00
N272   N     0.90831   0.91500   0.89517   0.00000  Uiso   1.00
N273   N     0.98627   0.57437   0.65396   0.00000  Uiso   1.00
N274   N     0.68164   0.97003   0.58298   0.00000  Uiso   1.00
N275   N     0.82264   0.01672   0.92438   0.00000  Uiso   1.00
N276   N     0.90060   0.67609   0.68317   0.00000  Uiso   1.00
C277   C     0.60517   0.61029   0.80164   0.00000  Uiso   1.00
C278   C     0.66125   0.56847   0.83435   0.00000  Uiso   1.00
C279   C     0.66068   0.47664   0.87813   0.00000  Uiso   1.00
C280   C     0.71684   0.45204   0.90261   0.00000  Uiso   1.00
C281   C     0.79559   0.37718   0.95623   0.00000  Uiso   1.00
C282   C     0.62240   0.58132   0.74026   0.00000  Uiso   1.00
C283   C     0.58915   0.50031   0.70493   0.00000  Uiso   1.00
C284   C     0.61260   0.48654   0.65020   0.00000  Uiso   1.00
C285   C     0.63101   0.43171   0.55773   0.00000  Uiso   1.00
C286   C     0.60091   0.76304   0.80675   0.00000  Uiso   1.00
C287   C     0.54960   0.83482   0.82730   0.00000  Uiso   1.00
C288   C     0.55496   0.97406   0.82854   0.00000  Uiso   1.00
C289   C     0.54001   0.20136   0.83930   0.00000  Uiso   1.00
C290   C     0.70592   0.72992   0.76728   0.00000  Uiso   1.00
C291   C     0.71597   0.63345   0.81569   0.00000  Uiso   1.00
C292   C     0.77214   0.60899   0.84012   0.00000  Uiso   1.00
C293   C     0.77166   0.51714   0.88392   0.00000  Uiso   1.00
C294   C     0.67712   0.64629   0.72160   0.00000  Uiso   1.00
C295   C     0.70062   0.63266   0.66692   0.00000  Uiso   1.00
C296   C     0.66742   0.55163   0.63151   0.00000  Uiso   1.00
C297   C     0.65564   0.82802   0.78809   0.00000  Uiso   1.00
C298   C     0.66107   0.96717   0.78929   0.00000  Uiso   1.00
C299   C     0.60978   0.03915   0.80985   0.00000  Uiso   1.00
H300   H     0.56257   0.55970   0.81616   0.00000  Uiso   1.00
H301   H     0.61832   0.42637   0.89255   0.00000  Uiso   1.00
H302   H     0.54680   0.45005   0.71938   0.00000  Uiso   1.00
H303   H     0.50726   0.78451   0.84174   0.00000  Uiso   1.00
H304   H     0.70427   0.30716   0.96900   0.00000  Uiso   1.00
H305   H     0.55346   0.35713   0.60385   0.00000  Uiso   1.00
H306   H     0.47008   0.06240   0.86186   0.00000  Uiso   1.00
H307   H     0.74852   0.78050   0.75275   0.00000  Uiso   1.00
H308   H     0.81448   0.65929   0.82567   0.00000  Uiso   1.00
H309   H     0.74296   0.68296   0.65249   0.00000  Uiso   1.00
H310   H     0.70342   0.01742   0.77485   0.00000  Uiso   1.00
H311   H     0.86348   0.49620   0.91472   0.00000  Uiso   1.00
H312   H     0.71267   0.54617   0.54956   0.00000  Uiso   1.00
H313   H     0.62929   0.25143   0.80758   0.00000  Uiso   1.00
O314   O     0.82392   0.31792   0.99096   0.00000  Uiso   1.00
O315   O     0.62605   0.38349   0.51189   0.00000  Uiso   1.00
O316   O     0.51666   0.30879   0.85040   0.00000  Uiso   1.00
N317   N     0.73269   0.36831   0.94623   0.00000  Uiso   1.00
N318   N     0.59169   0.41500   0.60483   0.00000  Uiso   1.00
N319   N     0.51373   0.07437   0.84604   0.00000  Uiso   1.00
N320   N     0.81836   0.47003   0.91702   0.00000  Uiso   1.00
N321   N     0.67736   0.51672   0.57562   0.00000  Uiso   1.00
N322   N     0.59940   0.17609   0.81683   0.00000  Uiso   1.00
C323   C     0.10517   0.11029   0.80164   0.00000  Uiso   1.00
C324   C     0.16125   0.06847   0.83435   0.00000  Uiso   1.00
C325   C     0.16068   0.97664   0.87813   0.00000  Uiso   1.00
C326   C     0.21684   0.95204   0.90261   0.00000  Uiso   1.00
C327   C     0.29559   0.87718   0.95623   0.00000  Uiso   1.00
C328   C     0.12240   0.08132   0.74026   0.00000  Uiso   1.00
C329   C     0.08915   0.00031   0.70493   0.00000  Uiso   1.00
C330   C     0.11260   0.98654   0.65020   0.00000  Uiso   1.00
C331   C     0.13101   0.93171   0.55773   0.00000  Uiso   1.00
C332   C     0.10091   0.26304   0.80675   0.00000  Uiso   1.00
C333   C     0.04960   0.33482   0.82730   0.00000  Uiso   1.00
C334   C     0.05496   0.47406   0.82854   0.00000  Uiso   1.00
C335   C     0.04001   0.70136   0.83930   0.00000  Uiso   1.00
C336   C     0.20592   0.22992   0.76728   0.00000  Uiso   1.00
C337   C     0.21597   0.13345   0.81569   0.00000  Uiso   1.00
C338   C     0.27214   0.10899   0.84012   0.00000  Uiso   1.00
C339   C     0.27166   0.01714   0.88392   0.00000  Uiso   1.00
C340   C     0.17712   0.14629   0.72160   0.00000  Uiso   1.00
C341   C     0.20062   0.13266   0.66692   0.00000  Uiso   1.00
C342   C     0.16742   0.05163   0.63151   0.00000  Uiso   1.00
C343   C     0.15564   0.32802   0.78809   0.00000  Uiso   1.00
C344   C     0.16107   0.46717   0.78929   0.00000  Uiso   1.00
C345   C     0.10978   0.53915   0.80985   0.00000  Uiso   1.00
H346   H     0.06257   0.05970   0.81616   0.00000  Uiso   1.00
H347   H     0.11832   0.92637   0.89255   0.00000  Uiso   1.00
H348   H     0.04680   0.95005   0.71938   0.00000  Uiso   1.00
H349   H     0.00726   0.28451   0.84174   0.00000  Uiso   1.00
H350   H     0.20427   0.80716   0.96900   0.00000  Uiso   1.00
H351   H     0.05346   0.85713   0.60385   0.00000  Uiso   1.00
H352   H     0.97008   0.56240   0.86186   0.00000  Uiso   1.00
H353   H     0.24852   0.28050   0.75275   0.00000  Uiso   1.00
H354   H     0.31448   0.15929   0.82567   0.00000  Uiso   1.00
H355   H     0.24296   0.18296   0.65249   0.00000  Uiso   1.00
H356   H     0.20342   0.51742   0.77485   0.00000  Uiso   1.00
H357   H     0.36348   0.99620   0.91472   0.00000  Uiso   1.00
H358   H     0.21267   0.04617   0.54956   0.00000  Uiso   1.00
H359   H     0.12929   0.75143   0.80758   0.00000  Uiso   1.00
O360   O     0.32392   0.81792   0.99096   0.00000  Uiso   1.00
O361   O     0.12605   0.88349   0.51189   0.00000  Uiso   1.00
O362   O     0.01666   0.80879   0.85040   0.00000  Uiso   1.00
N363   N     0.23269   0.86831   0.94623   0.00000  Uiso   1.00
N364   N     0.09169   0.91500   0.60483   0.00000  Uiso   1.00
N365   N     0.01373   0.57437   0.84604   0.00000  Uiso   1.00
N366   N     0.31836   0.97003   0.91702   0.00000  Uiso   1.00
N367   N     0.17736   0.01672   0.57562   0.00000  Uiso   1.00
N368   N     0.09940   0.67609   0.81683   0.00000  Uiso   1.00
