data_job_02683
_audit_creation_date              2018-12-19
_audit_creation_method            'Materials Studio'
_symmetry_space_group_name_H-M    'P1'
_symmetry_Int_Tables_number       1
_symmetry_cell_setting            triclinic
loop_
_symmetry_equiv_pos_as_xyz
  x,y,z
_cell_length_a                    17.8350
_cell_length_b                    28.4891
_cell_length_c                    12.4443
_cell_angle_alpha                 90.0000
_cell_angle_beta                  142.0630
_cell_angle_gamma                 90.0000
loop_
_atom_site_label
_atom_site_type_symbol
_atom_site_fract_x
_atom_site_fract_y
_atom_site_fract_z
_atom_site_U_iso_or_equiv
_atom_site_adp_type
_atom_site_occupancy
C1     C     0.26267   0.10522   0.86755   0.00000  Uiso   1.00
C2     C     0.18078   0.12853   0.69154   0.00000  Uiso   1.00
C3     C     0.14472   0.10887   0.55383   0.00000  Uiso   1.00
C4     C     0.06965   0.13585   0.40374   0.00000  Uiso   1.00
C5     C     0.94826   0.16521   0.13227   0.00000  Uiso   1.00
C6     C     0.36933   0.13871   0.00558   0.00000  Uiso   1.00
C7     C     0.49180   0.12760   0.13191   0.00000  Uiso   1.00
C8     C     0.57545   0.16316   0.24619   0.00000  Uiso   1.00
C9     C     0.74680   0.20831   0.46235   0.00000  Uiso   1.00
C10    C     0.19048   0.10522   0.89069   0.00000  Uiso   1.00
C11    C     0.16261   0.06596   0.92047   0.00000  Uiso   1.00
C12    C     0.09571   0.07332   0.93807   0.00000  Uiso   1.00
C13    C     0.98937   0.06648   0.97584   0.00000  Uiso   1.00
C14    C     0.19346   0.18810   0.84590   0.00000  Uiso   1.00
C15    C     0.14319   0.17355   0.67979   0.00000  Uiso   1.00
C16    C     0.06814   0.20057   0.52987   0.00000  Uiso   1.00
C17    C     0.03198   0.18095   0.39195   0.00000  Uiso   1.00
C18    C     0.33174   0.18373   0.99382   0.00000  Uiso   1.00
C19    C     0.41523   0.21931   0.10795   0.00000  Uiso   1.00
C20    C     0.53780   0.20827   0.23442   0.00000  Uiso   1.00
C21    C     0.15289   0.15024   0.87893   0.00000  Uiso   1.00
C22    C     0.08603   0.15767   0.89650   0.00000  Uiso   1.00
C23    C     0.05805   0.11843   0.92629   0.00000  Uiso   1.00
H24    H     0.29194   0.07017   0.87671   0.00000  Uiso   1.00
H25    H     0.17384   0.07403   0.56298   0.00000  Uiso   1.00
H26    H     0.52086   0.09276   0.14099   0.00000  Uiso   1.00
H27    H     0.19171   0.03113   0.92956   0.00000  Uiso   1.00
H28    H     0.02636   0.09817   0.20999   0.00000  Uiso   1.00
H29    H     0.75808   0.13766   0.42879   0.00000  Uiso   1.00
H30    H     0.06401   0.00770   0.98297   0.00000  Uiso   1.00
H31    H     0.16419   0.22316   0.83674   0.00000  Uiso   1.00
H32    H     0.03907   0.23541   0.52081   0.00000  Uiso   1.00
H33    H     0.38610   0.25414   0.09882   0.00000  Uiso   1.00
H34    H     0.05695   0.19251   0.88739   0.00000  Uiso   1.00
H35    H     0.91698   0.22915   0.17576   0.00000  Uiso   1.00
H36    H     0.64871   0.26865   0.39457   0.00000  Uiso   1.00
H37    H     0.95463   0.13868   0.94874   0.00000  Uiso   1.00
O38    O     0.89170   0.16896   0.98579   0.00000  Uiso   1.00
O39    O     0.85170   0.22078   0.58482   0.00000  Uiso   1.00
O40    O     0.94108   0.05027   0.99990   0.00000  Uiso   1.00
N41    N     0.01777   0.12731   0.24528   0.00000  Uiso   1.00
N42    N     0.70189   0.16424   0.38477   0.00000  Uiso   1.00
N43    N     0.05301   0.04273   0.96801   0.00000  Uiso   1.00
N44    N     0.95891   0.19779   0.22686   0.00000  Uiso   1.00
N45    N     0.64303   0.23472   0.36635   0.00000  Uiso   1.00
N46    N     0.99416   0.11321   0.94959   0.00000  Uiso   1.00
C47    C     0.73733   0.60522   0.63245   0.00000  Uiso   1.00
C48    C     0.81922   0.62853   0.80846   0.00000  Uiso   1.00
C49    C     0.85528   0.60887   0.94617   0.00000  Uiso   1.00
C50    C     0.93035   0.63585   0.09626   0.00000  Uiso   1.00
C51    C     0.05174   0.66521   0.36773   0.00000  Uiso   1.00
C52    C     0.63067   0.63871   0.49442   0.00000  Uiso   1.00
C53    C     0.50820   0.62760   0.36809   0.00000  Uiso   1.00
C54    C     0.42455   0.66316   0.25381   0.00000  Uiso   1.00
C55    C     0.25320   0.70831   0.03765   0.00000  Uiso   1.00
C56    C     0.80952   0.60522   0.60931   0.00000  Uiso   1.00
C57    C     0.83739   0.56596   0.57953   0.00000  Uiso   1.00
C58    C     0.90429   0.57332   0.56193   0.00000  Uiso   1.00
C59    C     0.01063   0.56648   0.52416   0.00000  Uiso   1.00
C60    C     0.80654   0.68810   0.65410   0.00000  Uiso   1.00
C61    C     0.85681   0.67355   0.82021   0.00000  Uiso   1.00
C62    C     0.93186   0.70057   0.97013   0.00000  Uiso   1.00
C63    C     0.96802   0.68095   0.10805   0.00000  Uiso   1.00
C64    C     0.66826   0.68373   0.50618   0.00000  Uiso   1.00
C65    C     0.58477   0.71931   0.39205   0.00000  Uiso   1.00
C66    C     0.46220   0.70827   0.26558   0.00000  Uiso   1.00
C67    C     0.84711   0.65024   0.62107   0.00000  Uiso   1.00
C68    C     0.91397   0.65767   0.60350   0.00000  Uiso   1.00
C69    C     0.94195   0.61843   0.57371   0.00000  Uiso   1.00
H70    H     0.70806   0.57017   0.62329   0.00000  Uiso   1.00
H71    H     0.82616   0.57403   0.93702   0.00000  Uiso   1.00
H72    H     0.47914   0.59276   0.35901   0.00000  Uiso   1.00
H73    H     0.80829   0.53113   0.57044   0.00000  Uiso   1.00
H74    H     0.97364   0.59817   0.29001   0.00000  Uiso   1.00
H75    H     0.24192   0.63766   0.07121   0.00000  Uiso   1.00
H76    H     0.93599   0.50770   0.51703   0.00000  Uiso   1.00
H77    H     0.83581   0.72316   0.66326   0.00000  Uiso   1.00
H78    H     0.96093   0.73541   0.97919   0.00000  Uiso   1.00
H79    H     0.61390   0.75414   0.40118   0.00000  Uiso   1.00
H80    H     0.94305   0.69251   0.61261   0.00000  Uiso   1.00
H81    H     0.08302   0.72915   0.32424   0.00000  Uiso   1.00
H82    H     0.35129   0.76865   0.10543   0.00000  Uiso   1.00
H83    H     0.04537   0.63868   0.55126   0.00000  Uiso   1.00
O84    O     0.10830   0.66896   0.51421   0.00000  Uiso   1.00
O85    O     0.14830   0.72078   0.91518   0.00000  Uiso   1.00
O86    O     0.05892   0.55027   0.50010   0.00000  Uiso   1.00
N87    N     0.98223   0.62731   0.25472   0.00000  Uiso   1.00
N88    N     0.29811   0.66424   0.11523   0.00000  Uiso   1.00
N89    N     0.94699   0.54273   0.53199   0.00000  Uiso   1.00
N90    N     0.04109   0.69779   0.27314   0.00000  Uiso   1.00
N91    N     0.35697   0.73472   0.13365   0.00000  Uiso   1.00
N92    N     0.00584   0.61321   0.55041   0.00000  Uiso   1.00
C93    C     0.73733   0.89478   0.13245   0.00000  Uiso   1.00
C94    C     0.81922   0.87147   0.30846   0.00000  Uiso   1.00
C95    C     0.85528   0.89113   0.44617   0.00000  Uiso   1.00
C96    C     0.93035   0.86415   0.59626   0.00000  Uiso   1.00
C97    C     0.05174   0.83479   0.86773   0.00000  Uiso   1.00
C98    C     0.63067   0.86129   0.99442   0.00000  Uiso   1.00
C99    C     0.50820   0.87240   0.86809   0.00000  Uiso   1.00
C100   C     0.42455   0.83684   0.75381   0.00000  Uiso   1.00
C101   C     0.25320   0.79169   0.53765   0.00000  Uiso   1.00
C102   C     0.80952   0.89478   0.10931   0.00000  Uiso   1.00
C103   C     0.83739   0.93404   0.07953   0.00000  Uiso   1.00
C104   C     0.90429   0.92668   0.06193   0.00000  Uiso   1.00
C105   C     0.01063   0.93352   0.02416   0.00000  Uiso   1.00
C106   C     0.80654   0.81190   0.15410   0.00000  Uiso   1.00
C107   C     0.85681   0.82645   0.32021   0.00000  Uiso   1.00
C108   C     0.93186   0.79943   0.47013   0.00000  Uiso   1.00
C109   C     0.96802   0.81905   0.60805   0.00000  Uiso   1.00
C110   C     0.66826   0.81627   0.00618   0.00000  Uiso   1.00
C111   C     0.58477   0.78069   0.89205   0.00000  Uiso   1.00
C112   C     0.46220   0.79173   0.76558   0.00000  Uiso   1.00
C113   C     0.84711   0.84976   0.12107   0.00000  Uiso   1.00
C114   C     0.91397   0.84233   0.10350   0.00000  Uiso   1.00
C115   C     0.94195   0.88157   0.07371   0.00000  Uiso   1.00
H116   H     0.70806   0.92983   0.12329   0.00000  Uiso   1.00
H117   H     0.82616   0.92597   0.43702   0.00000  Uiso   1.00
H118   H     0.47914   0.90724   0.85901   0.00000  Uiso   1.00
H119   H     0.80829   0.96887   0.07044   0.00000  Uiso   1.00
H120   H     0.97364   0.90183   0.79001   0.00000  Uiso   1.00
H121   H     0.24192   0.86234   0.57121   0.00000  Uiso   1.00
H122   H     0.93599   0.99230   0.01703   0.00000  Uiso   1.00
H123   H     0.83581   0.77684   0.16326   0.00000  Uiso   1.00
H124   H     0.96093   0.76459   0.47919   0.00000  Uiso   1.00
H125   H     0.61390   0.74586   0.90118   0.00000  Uiso   1.00
H126   H     0.94305   0.80749   0.11261   0.00000  Uiso   1.00
H127   H     0.08302   0.77085   0.82424   0.00000  Uiso   1.00
H128   H     0.35129   0.73135   0.60543   0.00000  Uiso   1.00
H129   H     0.04537   0.86132   0.05126   0.00000  Uiso   1.00
O130   O     0.10830   0.83104   0.01421   0.00000  Uiso   1.00
O131   O     0.14830   0.77922   0.41518   0.00000  Uiso   1.00
O132   O     0.05892   0.94973   0.00010   0.00000  Uiso   1.00
N133   N     0.98223   0.87269   0.75472   0.00000  Uiso   1.00
N134   N     0.29811   0.83576   0.61523   0.00000  Uiso   1.00
N135   N     0.94699   0.95727   0.03199   0.00000  Uiso   1.00
N136   N     0.04109   0.80221   0.77314   0.00000  Uiso   1.00
N137   N     0.35697   0.76528   0.63365   0.00000  Uiso   1.00
N138   N     0.00584   0.88679   0.05041   0.00000  Uiso   1.00
C139   C     0.26267   0.39478   0.36755   0.00000  Uiso   1.00
C140   C     0.18078   0.37147   0.19154   0.00000  Uiso   1.00
C141   C     0.14472   0.39113   0.05383   0.00000  Uiso   1.00
C142   C     0.06965   0.36415   0.90374   0.00000  Uiso   1.00
C143   C     0.94826   0.33479   0.63227   0.00000  Uiso   1.00
C144   C     0.36933   0.36129   0.50558   0.00000  Uiso   1.00
C145   C     0.49180   0.37240   0.63191   0.00000  Uiso   1.00
C146   C     0.57545   0.33684   0.74619   0.00000  Uiso   1.00
C147   C     0.74680   0.29169   0.96235   0.00000  Uiso   1.00
C148   C     0.19048   0.39478   0.39069   0.00000  Uiso   1.00
C149   C     0.16261   0.43404   0.42047   0.00000  Uiso   1.00
C150   C     0.09571   0.42668   0.43807   0.00000  Uiso   1.00
C151   C     0.98937   0.43352   0.47584   0.00000  Uiso   1.00
C152   C     0.19346   0.31190   0.34590   0.00000  Uiso   1.00
C153   C     0.14319   0.32645   0.17979   0.00000  Uiso   1.00
C154   C     0.06814   0.29943   0.02987   0.00000  Uiso   1.00
C155   C     0.03198   0.31905   0.89195   0.00000  Uiso   1.00
C156   C     0.33174   0.31627   0.49382   0.00000  Uiso   1.00
C157   C     0.41523   0.28069   0.60795   0.00000  Uiso   1.00
C158   C     0.53780   0.29173   0.73442   0.00000  Uiso   1.00
C159   C     0.15289   0.34976   0.37893   0.00000  Uiso   1.00
C160   C     0.08603   0.34233   0.39650   0.00000  Uiso   1.00
C161   C     0.05805   0.38157   0.42629   0.00000  Uiso   1.00
H162   H     0.29194   0.42983   0.37671   0.00000  Uiso   1.00
H163   H     0.17384   0.42597   0.06298   0.00000  Uiso   1.00
H164   H     0.52086   0.40724   0.64099   0.00000  Uiso   1.00
H165   H     0.19171   0.46887   0.42956   0.00000  Uiso   1.00
H166   H     0.02636   0.40183   0.70999   0.00000  Uiso   1.00
H167   H     0.75808   0.36234   0.92879   0.00000  Uiso   1.00
H168   H     0.06401   0.49230   0.48297   0.00000  Uiso   1.00
H169   H     0.16419   0.27684   0.33674   0.00000  Uiso   1.00
H170   H     0.03907   0.26459   0.02081   0.00000  Uiso   1.00
H171   H     0.38610   0.24586   0.59882   0.00000  Uiso   1.00
H172   H     0.05695   0.30749   0.38739   0.00000  Uiso   1.00
H173   H     0.91698   0.27085   0.67576   0.00000  Uiso   1.00
H174   H     0.64871   0.23135   0.89457   0.00000  Uiso   1.00
H175   H     0.95463   0.36132   0.44874   0.00000  Uiso   1.00
O176   O     0.89170   0.33104   0.48579   0.00000  Uiso   1.00
O177   O     0.85170   0.27922   0.08482   0.00000  Uiso   1.00
O178   O     0.94108   0.44973   0.49990   0.00000  Uiso   1.00
N179   N     0.01777   0.37269   0.74528   0.00000  Uiso   1.00
N180   N     0.70189   0.33576   0.88477   0.00000  Uiso   1.00
N181   N     0.05301   0.45727   0.46801   0.00000  Uiso   1.00
N182   N     0.95891   0.30221   0.72686   0.00000  Uiso   1.00
N183   N     0.64303   0.26528   0.86635   0.00000  Uiso   1.00
N184   N     0.99416   0.38679   0.44959   0.00000  Uiso   1.00
