data_job_02671
_audit_creation_date              2018-12-19
_audit_creation_method            'Materials Studio'
_symmetry_space_group_name_H-M    'P1'
_symmetry_Int_Tables_number       1
_symmetry_cell_setting            triclinic
loop_
_symmetry_equiv_pos_as_xyz
  x,y,z
_cell_length_a                    9.6569
_cell_length_b                    37.0346
_cell_length_c                    23.0036
_cell_angle_alpha                 90.0000
_cell_angle_beta                  90.0000
_cell_angle_gamma                 90.0000
loop_
_atom_site_label
_atom_site_type_symbol
_atom_site_fract_x
_atom_site_fract_y
_atom_site_fract_z
_atom_site_U_iso_or_equiv
_atom_site_adp_type
_atom_site_occupancy
C1     C     0.72006   0.81990   0.52198   0.00000  Uiso   1.00
C2     C     0.64100   0.82556   0.46533   0.00000  Uiso   1.00
C3     C     0.66214   0.80665   0.41400   0.00000  Uiso   1.00
C4     C     0.57917   0.81586   0.36699   0.00000  Uiso   1.00
C5     C     0.47174   0.82054   0.27837   0.00000  Uiso   1.00
C6     C     0.78143   0.85654   0.53781   0.00000  Uiso   1.00
C7     C     0.92064   0.86368   0.54743   0.00000  Uiso   1.00
C8     C     0.95589   0.89897   0.56144   0.00000  Uiso   1.00
C9     C     0.06647   0.95174   0.58539   0.00000  Uiso   1.00
C10    C     0.61103   0.81185   0.56814   0.00000  Uiso   1.00
C11    C     0.60697   0.78141   0.60329   0.00000  Uiso   1.00
C12    C     0.49876   0.77907   0.64286   0.00000  Uiso   1.00
C13    C     0.34476   0.76244   0.71390   0.00000  Uiso   1.00
C14    C     0.53512   0.86988   0.52976   0.00000  Uiso   1.00
C15    C     0.54055   0.85271   0.46955   0.00000  Uiso   1.00
C16    C     0.45752   0.86195   0.42261   0.00000  Uiso   1.00
C17    C     0.47853   0.84306   0.37123   0.00000  Uiso   1.00
C18    C     0.68099   0.88369   0.54203   0.00000  Uiso   1.00
C19    C     0.71603   0.91898   0.55604   0.00000  Uiso   1.00
C20    C     0.85526   0.92617   0.56568   0.00000  Uiso   1.00
C21    C     0.51057   0.83899   0.57237   0.00000  Uiso   1.00
C22    C     0.40235   0.83670   0.61189   0.00000  Uiso   1.00
C23    C     0.39813   0.80627   0.64709   0.00000  Uiso   1.00
H24    H     0.79827   0.79877   0.51869   0.00000  Uiso   1.00
H25    H     0.73990   0.78565   0.41075   0.00000  Uiso   1.00
H26    H     0.99835   0.84267   0.54416   0.00000  Uiso   1.00
H27    H     0.68472   0.76041   0.60001   0.00000  Uiso   1.00
H28    H     0.63091   0.78309   0.29293   0.00000  Uiso   1.00
H29    H     0.17588   0.90331   0.57426   0.00000  Uiso   1.00
H30    H     0.51453   0.72984   0.69202   0.00000  Uiso   1.00
H31    H     0.45692   0.89102   0.53305   0.00000  Uiso   1.00
H32    H     0.37980   0.88296   0.42589   0.00000  Uiso   1.00
H33    H     0.63827   0.93998   0.55931   0.00000  Uiso   1.00
H34    H     0.32464   0.85772   0.61515   0.00000  Uiso   1.00
H35    H     0.33865   0.86207   0.30522   0.00000  Uiso   1.00
H36    H     0.88362   0.98229   0.58655   0.00000  Uiso   1.00
H37    H     0.22227   0.80883   0.70431   0.00000  Uiso   1.00
O38    O     0.44024   0.81562   0.22832   0.00000  Uiso   1.00
O39    O     0.15522   0.97334   0.59742   0.00000  Uiso   1.00
O40    O     0.28755   0.74576   0.75192   0.00000  Uiso   1.00
N41    N     0.57269   0.80277   0.31053   0.00000  Uiso   1.00
N42    N     0.08221   0.91518   0.57355   0.00000  Uiso   1.00
N43    N     0.46393   0.75301   0.68366   0.00000  Uiso   1.00
N44    N     0.41542   0.84527   0.31715   0.00000  Uiso   1.00
N45    N     0.92494   0.95768   0.58016   0.00000  Uiso   1.00
N46    N     0.30666   0.79551   0.69027   0.00000  Uiso   1.00
C47    C     0.72006   0.31990   0.02198   0.00000  Uiso   1.00
C48    C     0.64100   0.32556   0.96533   0.00000  Uiso   1.00
C49    C     0.66214   0.30665   0.91400   0.00000  Uiso   1.00
C50    C     0.57917   0.31586   0.86699   0.00000  Uiso   1.00
C51    C     0.47174   0.32054   0.77837   0.00000  Uiso   1.00
C52    C     0.78143   0.35654   0.03781   0.00000  Uiso   1.00
C53    C     0.92064   0.36368   0.04743   0.00000  Uiso   1.00
C54    C     0.95589   0.39897   0.06144   0.00000  Uiso   1.00
C55    C     0.06647   0.45174   0.08539   0.00000  Uiso   1.00
C56    C     0.61103   0.31185   0.06814   0.00000  Uiso   1.00
C57    C     0.60697   0.28141   0.10329   0.00000  Uiso   1.00
C58    C     0.49876   0.27907   0.14286   0.00000  Uiso   1.00
C59    C     0.34476   0.26244   0.21390   0.00000  Uiso   1.00
C60    C     0.53512   0.36988   0.02976   0.00000  Uiso   1.00
C61    C     0.54055   0.35271   0.96955   0.00000  Uiso   1.00
C62    C     0.45752   0.36195   0.92261   0.00000  Uiso   1.00
C63    C     0.47853   0.34306   0.87123   0.00000  Uiso   1.00
C64    C     0.68099   0.38369   0.04203   0.00000  Uiso   1.00
C65    C     0.71603   0.41898   0.05604   0.00000  Uiso   1.00
C66    C     0.85526   0.42617   0.06568   0.00000  Uiso   1.00
C67    C     0.51057   0.33899   0.07237   0.00000  Uiso   1.00
C68    C     0.40235   0.33670   0.11189   0.00000  Uiso   1.00
C69    C     0.39813   0.30627   0.14709   0.00000  Uiso   1.00
H70    H     0.79827   0.29877   0.01869   0.00000  Uiso   1.00
H71    H     0.73990   0.28565   0.91075   0.00000  Uiso   1.00
H72    H     0.99835   0.34267   0.04416   0.00000  Uiso   1.00
H73    H     0.68472   0.26041   0.10001   0.00000  Uiso   1.00
H74    H     0.63091   0.28309   0.79293   0.00000  Uiso   1.00
H75    H     0.17588   0.40331   0.07426   0.00000  Uiso   1.00
H76    H     0.51453   0.22984   0.19202   0.00000  Uiso   1.00
H77    H     0.45692   0.39102   0.03305   0.00000  Uiso   1.00
H78    H     0.37980   0.38296   0.92589   0.00000  Uiso   1.00
H79    H     0.63827   0.43998   0.05931   0.00000  Uiso   1.00
H80    H     0.32464   0.35772   0.11515   0.00000  Uiso   1.00
H81    H     0.33865   0.36207   0.80522   0.00000  Uiso   1.00
H82    H     0.88362   0.48229   0.08655   0.00000  Uiso   1.00
H83    H     0.22227   0.30883   0.20431   0.00000  Uiso   1.00
O84    O     0.44024   0.31562   0.72832   0.00000  Uiso   1.00
O85    O     0.15522   0.47334   0.09742   0.00000  Uiso   1.00
O86    O     0.28755   0.24576   0.25192   0.00000  Uiso   1.00
N87    N     0.57269   0.30277   0.81053   0.00000  Uiso   1.00
N88    N     0.08221   0.41518   0.07355   0.00000  Uiso   1.00
N89    N     0.46393   0.25301   0.18366   0.00000  Uiso   1.00
N90    N     0.41542   0.34527   0.81715   0.00000  Uiso   1.00
N91    N     0.92494   0.45768   0.08016   0.00000  Uiso   1.00
N92    N     0.30666   0.29551   0.19027   0.00000  Uiso   1.00
C93    C     0.27994   0.18010   0.52198   0.00000  Uiso   1.00
C94    C     0.35900   0.17444   0.46533   0.00000  Uiso   1.00
C95    C     0.33786   0.19335   0.41400   0.00000  Uiso   1.00
C96    C     0.42083   0.18414   0.36699   0.00000  Uiso   1.00
C97    C     0.52826   0.17946   0.27837   0.00000  Uiso   1.00
C98    C     0.21857   0.14346   0.53781   0.00000  Uiso   1.00
C99    C     0.07936   0.13632   0.54743   0.00000  Uiso   1.00
C100   C     0.04411   0.10103   0.56144   0.00000  Uiso   1.00
C101   C     0.93353   0.04826   0.58539   0.00000  Uiso   1.00
C102   C     0.38897   0.18815   0.56814   0.00000  Uiso   1.00
C103   C     0.39303   0.21859   0.60329   0.00000  Uiso   1.00
C104   C     0.50124   0.22093   0.64286   0.00000  Uiso   1.00
C105   C     0.65524   0.23756   0.71390   0.00000  Uiso   1.00
C106   C     0.46488   0.13012   0.52976   0.00000  Uiso   1.00
C107   C     0.45945   0.14729   0.46955   0.00000  Uiso   1.00
C108   C     0.54248   0.13805   0.42261   0.00000  Uiso   1.00
C109   C     0.52147   0.15694   0.37123   0.00000  Uiso   1.00
C110   C     0.31901   0.11631   0.54203   0.00000  Uiso   1.00
C111   C     0.28397   0.08102   0.55604   0.00000  Uiso   1.00
C112   C     0.14474   0.07383   0.56568   0.00000  Uiso   1.00
C113   C     0.48943   0.16101   0.57237   0.00000  Uiso   1.00
C114   C     0.59765   0.16330   0.61189   0.00000  Uiso   1.00
C115   C     0.60187   0.19373   0.64709   0.00000  Uiso   1.00
H116   H     0.20173   0.20123   0.51869   0.00000  Uiso   1.00
H117   H     0.26010   0.21435   0.41075   0.00000  Uiso   1.00
H118   H     0.00165   0.15733   0.54416   0.00000  Uiso   1.00
H119   H     0.31528   0.23959   0.60001   0.00000  Uiso   1.00
H120   H     0.36909   0.21691   0.29293   0.00000  Uiso   1.00
H121   H     0.82412   0.09669   0.57426   0.00000  Uiso   1.00
H122   H     0.48547   0.27016   0.69202   0.00000  Uiso   1.00
H123   H     0.54308   0.10898   0.53305   0.00000  Uiso   1.00
H124   H     0.62020   0.11704   0.42589   0.00000  Uiso   1.00
H125   H     0.36173   0.06002   0.55931   0.00000  Uiso   1.00
H126   H     0.67536   0.14228   0.61515   0.00000  Uiso   1.00
H127   H     0.66135   0.13793   0.30522   0.00000  Uiso   1.00
H128   H     0.11638   0.01771   0.58655   0.00000  Uiso   1.00
H129   H     0.77773   0.19117   0.70431   0.00000  Uiso   1.00
O130   O     0.55976   0.18438   0.22832   0.00000  Uiso   1.00
O131   O     0.84478   0.02666   0.59742   0.00000  Uiso   1.00
O132   O     0.71245   0.25424   0.75192   0.00000  Uiso   1.00
N133   N     0.42731   0.19723   0.31053   0.00000  Uiso   1.00
N134   N     0.91779   0.08482   0.57355   0.00000  Uiso   1.00
N135   N     0.53607   0.24699   0.68366   0.00000  Uiso   1.00
N136   N     0.58458   0.15473   0.31715   0.00000  Uiso   1.00
N137   N     0.07506   0.04232   0.58016   0.00000  Uiso   1.00
N138   N     0.69334   0.20449   0.69027   0.00000  Uiso   1.00
C139   C     0.27994   0.68010   0.02198   0.00000  Uiso   1.00
C140   C     0.35900   0.67444   0.96533   0.00000  Uiso   1.00
C141   C     0.33786   0.69335   0.91400   0.00000  Uiso   1.00
C142   C     0.42083   0.68414   0.86699   0.00000  Uiso   1.00
C143   C     0.52826   0.67946   0.77837   0.00000  Uiso   1.00
C144   C     0.21857   0.64346   0.03781   0.00000  Uiso   1.00
C145   C     0.07936   0.63632   0.04743   0.00000  Uiso   1.00
C146   C     0.04411   0.60103   0.06144   0.00000  Uiso   1.00
C147   C     0.93353   0.54826   0.08539   0.00000  Uiso   1.00
C148   C     0.38897   0.68815   0.06814   0.00000  Uiso   1.00
C149   C     0.39303   0.71859   0.10329   0.00000  Uiso   1.00
C150   C     0.50124   0.72093   0.14286   0.00000  Uiso   1.00
C151   C     0.65524   0.73756   0.21390   0.00000  Uiso   1.00
C152   C     0.46488   0.63012   0.02976   0.00000  Uiso   1.00
C153   C     0.45945   0.64729   0.96955   0.00000  Uiso   1.00
C154   C     0.54248   0.63805   0.92261   0.00000  Uiso   1.00
C155   C     0.52147   0.65694   0.87123   0.00000  Uiso   1.00
C156   C     0.31901   0.61631   0.04203   0.00000  Uiso   1.00
C157   C     0.28397   0.58102   0.05604   0.00000  Uiso   1.00
C158   C     0.14474   0.57383   0.06568   0.00000  Uiso   1.00
C159   C     0.48943   0.66101   0.07237   0.00000  Uiso   1.00
C160   C     0.59765   0.66330   0.11189   0.00000  Uiso   1.00
C161   C     0.60187   0.69373   0.14709   0.00000  Uiso   1.00
H162   H     0.20173   0.70123   0.01869   0.00000  Uiso   1.00
H163   H     0.26010   0.71435   0.91075   0.00000  Uiso   1.00
H164   H     0.00165   0.65733   0.04416   0.00000  Uiso   1.00
H165   H     0.31528   0.73959   0.10001   0.00000  Uiso   1.00
H166   H     0.36909   0.71691   0.79293   0.00000  Uiso   1.00
H167   H     0.82412   0.59669   0.07426   0.00000  Uiso   1.00
H168   H     0.48547   0.77016   0.19202   0.00000  Uiso   1.00
H169   H     0.54308   0.60898   0.03305   0.00000  Uiso   1.00
H170   H     0.62020   0.61704   0.92589   0.00000  Uiso   1.00
H171   H     0.36173   0.56002   0.05931   0.00000  Uiso   1.00
H172   H     0.67536   0.64228   0.11515   0.00000  Uiso   1.00
H173   H     0.66135   0.63793   0.80522   0.00000  Uiso   1.00
H174   H     0.11638   0.51771   0.08655   0.00000  Uiso   1.00
H175   H     0.77773   0.69117   0.20431   0.00000  Uiso   1.00
O176   O     0.55976   0.68438   0.72832   0.00000  Uiso   1.00
O177   O     0.84478   0.52666   0.09742   0.00000  Uiso   1.00
O178   O     0.71245   0.75424   0.25192   0.00000  Uiso   1.00
N179   N     0.42731   0.69723   0.81053   0.00000  Uiso   1.00
N180   N     0.91779   0.58482   0.07355   0.00000  Uiso   1.00
N181   N     0.53607   0.74699   0.18366   0.00000  Uiso   1.00
N182   N     0.58458   0.65473   0.81715   0.00000  Uiso   1.00
N183   N     0.07506   0.54232   0.08016   0.00000  Uiso   1.00
N184   N     0.69334   0.70449   0.19027   0.00000  Uiso   1.00
C185   C     0.22006   0.68010   0.52198   0.00000  Uiso   1.00
C186   C     0.14100   0.67444   0.46533   0.00000  Uiso   1.00
C187   C     0.16214   0.69335   0.41400   0.00000  Uiso   1.00
C188   C     0.07917   0.68414   0.36699   0.00000  Uiso   1.00
C189   C     0.97174   0.67946   0.27837   0.00000  Uiso   1.00
C190   C     0.28143   0.64346   0.53781   0.00000  Uiso   1.00
C191   C     0.42064   0.63632   0.54743   0.00000  Uiso   1.00
C192   C     0.45589   0.60103   0.56144   0.00000  Uiso   1.00
C193   C     0.56647   0.54826   0.58539   0.00000  Uiso   1.00
C194   C     0.11103   0.68815   0.56814   0.00000  Uiso   1.00
C195   C     0.10697   0.71859   0.60329   0.00000  Uiso   1.00
C196   C     0.99876   0.72093   0.64286   0.00000  Uiso   1.00
C197   C     0.84476   0.73756   0.71390   0.00000  Uiso   1.00
C198   C     0.03512   0.63012   0.52976   0.00000  Uiso   1.00
C199   C     0.04055   0.64729   0.46955   0.00000  Uiso   1.00
C200   C     0.95752   0.63805   0.42261   0.00000  Uiso   1.00
C201   C     0.97853   0.65694   0.37123   0.00000  Uiso   1.00
C202   C     0.18099   0.61631   0.54203   0.00000  Uiso   1.00
C203   C     0.21603   0.58102   0.55604   0.00000  Uiso   1.00
C204   C     0.35526   0.57383   0.56568   0.00000  Uiso   1.00
C205   C     0.01057   0.66101   0.57237   0.00000  Uiso   1.00
C206   C     0.90235   0.66330   0.61189   0.00000  Uiso   1.00
C207   C     0.89813   0.69373   0.64709   0.00000  Uiso   1.00
H208   H     0.29827   0.70123   0.51869   0.00000  Uiso   1.00
H209   H     0.23990   0.71435   0.41075   0.00000  Uiso   1.00
H210   H     0.49835   0.65733   0.54416   0.00000  Uiso   1.00
H211   H     0.18472   0.73959   0.60001   0.00000  Uiso   1.00
H212   H     0.13091   0.71691   0.29293   0.00000  Uiso   1.00
H213   H     0.67588   0.59669   0.57426   0.00000  Uiso   1.00
H214   H     0.01453   0.77016   0.69202   0.00000  Uiso   1.00
H215   H     0.95692   0.60898   0.53305   0.00000  Uiso   1.00
H216   H     0.87980   0.61704   0.42589   0.00000  Uiso   1.00
H217   H     0.13827   0.56002   0.55931   0.00000  Uiso   1.00
H218   H     0.82464   0.64228   0.61515   0.00000  Uiso   1.00
H219   H     0.83865   0.63793   0.30522   0.00000  Uiso   1.00
H220   H     0.38362   0.51771   0.58655   0.00000  Uiso   1.00
H221   H     0.72227   0.69117   0.70431   0.00000  Uiso   1.00
O222   O     0.94024   0.68438   0.22832   0.00000  Uiso   1.00
O223   O     0.65522   0.52666   0.59742   0.00000  Uiso   1.00
O224   O     0.78755   0.75424   0.75192   0.00000  Uiso   1.00
N225   N     0.07269   0.69723   0.31053   0.00000  Uiso   1.00
N226   N     0.58221   0.58482   0.57355   0.00000  Uiso   1.00
N227   N     0.96393   0.74699   0.68366   0.00000  Uiso   1.00
N228   N     0.91542   0.65473   0.31715   0.00000  Uiso   1.00
N229   N     0.42494   0.54232   0.58016   0.00000  Uiso   1.00
N230   N     0.80666   0.70449   0.69027   0.00000  Uiso   1.00
C231   C     0.22006   0.18010   0.02198   0.00000  Uiso   1.00
C232   C     0.14100   0.17444   0.96533   0.00000  Uiso   1.00
C233   C     0.16214   0.19335   0.91400   0.00000  Uiso   1.00
C234   C     0.07917   0.18414   0.86699   0.00000  Uiso   1.00
C235   C     0.97174   0.17946   0.77837   0.00000  Uiso   1.00
C236   C     0.28143   0.14346   0.03781   0.00000  Uiso   1.00
C237   C     0.42064   0.13632   0.04743   0.00000  Uiso   1.00
C238   C     0.45589   0.10103   0.06144   0.00000  Uiso   1.00
C239   C     0.56647   0.04826   0.08539   0.00000  Uiso   1.00
C240   C     0.11103   0.18815   0.06814   0.00000  Uiso   1.00
C241   C     0.10697   0.21859   0.10329   0.00000  Uiso   1.00
C242   C     0.99876   0.22093   0.14286   0.00000  Uiso   1.00
C243   C     0.84476   0.23756   0.21390   0.00000  Uiso   1.00
C244   C     0.03512   0.13012   0.02976   0.00000  Uiso   1.00
C245   C     0.04055   0.14729   0.96955   0.00000  Uiso   1.00
C246   C     0.95752   0.13805   0.92261   0.00000  Uiso   1.00
C247   C     0.97853   0.15694   0.87123   0.00000  Uiso   1.00
C248   C     0.18099   0.11631   0.04203   0.00000  Uiso   1.00
C249   C     0.21603   0.08102   0.05604   0.00000  Uiso   1.00
C250   C     0.35526   0.07383   0.06568   0.00000  Uiso   1.00
C251   C     0.01057   0.16101   0.07237   0.00000  Uiso   1.00
C252   C     0.90235   0.16330   0.11189   0.00000  Uiso   1.00
C253   C     0.89813   0.19373   0.14709   0.00000  Uiso   1.00
H254   H     0.29827   0.20123   0.01869   0.00000  Uiso   1.00
H255   H     0.23990   0.21435   0.91075   0.00000  Uiso   1.00
H256   H     0.49835   0.15733   0.04416   0.00000  Uiso   1.00
H257   H     0.18472   0.23959   0.10001   0.00000  Uiso   1.00
H258   H     0.13091   0.21691   0.79293   0.00000  Uiso   1.00
H259   H     0.67588   0.09669   0.07426   0.00000  Uiso   1.00
H260   H     0.01453   0.27016   0.19202   0.00000  Uiso   1.00
H261   H     0.95692   0.10898   0.03305   0.00000  Uiso   1.00
H262   H     0.87980   0.11704   0.92589   0.00000  Uiso   1.00
H263   H     0.13827   0.06002   0.05931   0.00000  Uiso   1.00
H264   H     0.82464   0.14228   0.11515   0.00000  Uiso   1.00
H265   H     0.83865   0.13793   0.80522   0.00000  Uiso   1.00
H266   H     0.38362   0.01771   0.08655   0.00000  Uiso   1.00
H267   H     0.72227   0.19117   0.20431   0.00000  Uiso   1.00
O268   O     0.94024   0.18438   0.72832   0.00000  Uiso   1.00
O269   O     0.65522   0.02666   0.09742   0.00000  Uiso   1.00
O270   O     0.78755   0.25424   0.25192   0.00000  Uiso   1.00
N271   N     0.07269   0.19723   0.81053   0.00000  Uiso   1.00
N272   N     0.58221   0.08482   0.07355   0.00000  Uiso   1.00
N273   N     0.96393   0.24699   0.18366   0.00000  Uiso   1.00
N274   N     0.91542   0.15473   0.81715   0.00000  Uiso   1.00
N275   N     0.42494   0.04232   0.08016   0.00000  Uiso   1.00
N276   N     0.80666   0.20449   0.19027   0.00000  Uiso   1.00
C277   C     0.77994   0.31990   0.52198   0.00000  Uiso   1.00
C278   C     0.85900   0.32556   0.46533   0.00000  Uiso   1.00
C279   C     0.83786   0.30665   0.41400   0.00000  Uiso   1.00
C280   C     0.92083   0.31586   0.36699   0.00000  Uiso   1.00
C281   C     0.02826   0.32054   0.27837   0.00000  Uiso   1.00
C282   C     0.71857   0.35654   0.53781   0.00000  Uiso   1.00
C283   C     0.57936   0.36368   0.54743   0.00000  Uiso   1.00
C284   C     0.54411   0.39897   0.56144   0.00000  Uiso   1.00
C285   C     0.43353   0.45174   0.58539   0.00000  Uiso   1.00
C286   C     0.88897   0.31185   0.56814   0.00000  Uiso   1.00
C287   C     0.89303   0.28141   0.60329   0.00000  Uiso   1.00
C288   C     0.00124   0.27907   0.64286   0.00000  Uiso   1.00
C289   C     0.15524   0.26244   0.71390   0.00000  Uiso   1.00
C290   C     0.96488   0.36988   0.52976   0.00000  Uiso   1.00
C291   C     0.95945   0.35271   0.46955   0.00000  Uiso   1.00
C292   C     0.04248   0.36195   0.42261   0.00000  Uiso   1.00
C293   C     0.02147   0.34306   0.37123   0.00000  Uiso   1.00
C294   C     0.81901   0.38369   0.54203   0.00000  Uiso   1.00
C295   C     0.78397   0.41898   0.55604   0.00000  Uiso   1.00
C296   C     0.64474   0.42617   0.56568   0.00000  Uiso   1.00
C297   C     0.98943   0.33899   0.57237   0.00000  Uiso   1.00
C298   C     0.09765   0.33670   0.61189   0.00000  Uiso   1.00
C299   C     0.10187   0.30627   0.64709   0.00000  Uiso   1.00
H300   H     0.70173   0.29877   0.51869   0.00000  Uiso   1.00
H301   H     0.76010   0.28565   0.41075   0.00000  Uiso   1.00
H302   H     0.50165   0.34267   0.54416   0.00000  Uiso   1.00
H303   H     0.81528   0.26041   0.60001   0.00000  Uiso   1.00
H304   H     0.86909   0.28309   0.29293   0.00000  Uiso   1.00
H305   H     0.32412   0.40331   0.57426   0.00000  Uiso   1.00
H306   H     0.98547   0.22984   0.69202   0.00000  Uiso   1.00
H307   H     0.04308   0.39102   0.53305   0.00000  Uiso   1.00
H308   H     0.12020   0.38296   0.42589   0.00000  Uiso   1.00
H309   H     0.86173   0.43998   0.55931   0.00000  Uiso   1.00
H310   H     0.17536   0.35772   0.61515   0.00000  Uiso   1.00
H311   H     0.16135   0.36207   0.30522   0.00000  Uiso   1.00
H312   H     0.61638   0.48229   0.58655   0.00000  Uiso   1.00
H313   H     0.27773   0.30883   0.70431   0.00000  Uiso   1.00
O314   O     0.05976   0.31562   0.22832   0.00000  Uiso   1.00
O315   O     0.34478   0.47334   0.59742   0.00000  Uiso   1.00
O316   O     0.21245   0.24576   0.75192   0.00000  Uiso   1.00
N317   N     0.92731   0.30277   0.31053   0.00000  Uiso   1.00
N318   N     0.41779   0.41518   0.57355   0.00000  Uiso   1.00
N319   N     0.03607   0.25301   0.68366   0.00000  Uiso   1.00
N320   N     0.08458   0.34527   0.31715   0.00000  Uiso   1.00
N321   N     0.57506   0.45768   0.58016   0.00000  Uiso   1.00
N322   N     0.19334   0.29551   0.69027   0.00000  Uiso   1.00
C323   C     0.77994   0.81990   0.02198   0.00000  Uiso   1.00
C324   C     0.85900   0.82556   0.96533   0.00000  Uiso   1.00
C325   C     0.83786   0.80665   0.91400   0.00000  Uiso   1.00
C326   C     0.92083   0.81586   0.86699   0.00000  Uiso   1.00
C327   C     0.02826   0.82054   0.77837   0.00000  Uiso   1.00
C328   C     0.71857   0.85654   0.03781   0.00000  Uiso   1.00
C329   C     0.57936   0.86368   0.04743   0.00000  Uiso   1.00
C330   C     0.54411   0.89897   0.06144   0.00000  Uiso   1.00
C331   C     0.43353   0.95174   0.08539   0.00000  Uiso   1.00
C332   C     0.88897   0.81185   0.06814   0.00000  Uiso   1.00
C333   C     0.89303   0.78141   0.10329   0.00000  Uiso   1.00
C334   C     0.00124   0.77907   0.14286   0.00000  Uiso   1.00
C335   C     0.15524   0.76244   0.21390   0.00000  Uiso   1.00
C336   C     0.96488   0.86988   0.02976   0.00000  Uiso   1.00
C337   C     0.95945   0.85271   0.96955   0.00000  Uiso   1.00
C338   C     0.04248   0.86195   0.92261   0.00000  Uiso   1.00
C339   C     0.02147   0.84306   0.87123   0.00000  Uiso   1.00
C340   C     0.81901   0.88369   0.04203   0.00000  Uiso   1.00
C341   C     0.78397   0.91898   0.05604   0.00000  Uiso   1.00
C342   C     0.64474   0.92617   0.06568   0.00000  Uiso   1.00
C343   C     0.98943   0.83899   0.07237   0.00000  Uiso   1.00
C344   C     0.09765   0.83670   0.11189   0.00000  Uiso   1.00
C345   C     0.10187   0.80627   0.14709   0.00000  Uiso   1.00
H346   H     0.70173   0.79877   0.01869   0.00000  Uiso   1.00
H347   H     0.76010   0.78565   0.91075   0.00000  Uiso   1.00
H348   H     0.50165   0.84267   0.04416   0.00000  Uiso   1.00
H349   H     0.81528   0.76041   0.10001   0.00000  Uiso   1.00
H350   H     0.86909   0.78309   0.79293   0.00000  Uiso   1.00
H351   H     0.32412   0.90331   0.07426   0.00000  Uiso   1.00
H352   H     0.98547   0.72984   0.19202   0.00000  Uiso   1.00
H353   H     0.04308   0.89102   0.03305   0.00000  Uiso   1.00
H354   H     0.12020   0.88296   0.92589   0.00000  Uiso   1.00
H355   H     0.86173   0.93998   0.05931   0.00000  Uiso   1.00
H356   H     0.17536   0.85772   0.11515   0.00000  Uiso   1.00
H357   H     0.16135   0.86207   0.80522   0.00000  Uiso   1.00
H358   H     0.61638   0.98229   0.08655   0.00000  Uiso   1.00
H359   H     0.27773   0.80883   0.20431   0.00000  Uiso   1.00
O360   O     0.05976   0.81562   0.72832   0.00000  Uiso   1.00
O361   O     0.34478   0.97334   0.09742   0.00000  Uiso   1.00
O362   O     0.21245   0.74576   0.25192   0.00000  Uiso   1.00
N363   N     0.92731   0.80277   0.81053   0.00000  Uiso   1.00
N364   N     0.41779   0.91518   0.07355   0.00000  Uiso   1.00
N365   N     0.03607   0.75301   0.18366   0.00000  Uiso   1.00
N366   N     0.08458   0.84527   0.81715   0.00000  Uiso   1.00
N367   N     0.57506   0.95768   0.08016   0.00000  Uiso   1.00
N368   N     0.19334   0.79551   0.19027   0.00000  Uiso   1.00
