data_job_03761
_audit_creation_date              2018-12-19
_audit_creation_method            'Materials Studio'
_symmetry_space_group_name_H-M    'P1'
_symmetry_Int_Tables_number       1
_symmetry_cell_setting            triclinic
loop_
_symmetry_equiv_pos_as_xyz
  x,y,z
_cell_length_a                    34.1014
_cell_length_b                    7.1087
_cell_length_c                    24.6283
_cell_angle_alpha                 90.0000
_cell_angle_beta                  90.0000
_cell_angle_gamma                 90.0000
loop_
_atom_site_label
_atom_site_type_symbol
_atom_site_fract_x
_atom_site_fract_y
_atom_site_fract_z
_atom_site_U_iso_or_equiv
_atom_site_adp_type
_atom_site_occupancy
C1     C     0.07060   0.98649   0.88231   0.00000  Uiso   1.00
C2     C     0.10869   0.07370   0.90276   0.00000  Uiso   1.00
C3     C     0.13618   0.98545   0.93558   0.00000  Uiso   1.00
C4     C     0.16910   0.08918   0.94988   0.00000  Uiso   1.00
C5     C     0.22744   0.19646   0.98438   0.00000  Uiso   1.00
C6     C     0.03784   0.11739   0.90099   0.00000  Uiso   1.00
C7     C     0.00576   0.06586   0.93232   0.00000  Uiso   1.00
C8     C     0.97904   0.20637   0.94512   0.00000  Uiso   1.00
C9     C     0.92738   0.38143   0.97684   0.00000  Uiso   1.00
C10    C     0.07182   0.00216   0.82058   0.00000  Uiso   1.00
C11    C     0.06830   0.85374   0.78430   0.00000  Uiso   1.00
C12    C     0.07017   0.89724   0.72940   0.00000  Uiso   1.00
C13    C     0.07126   0.89339   0.63627   0.00000  Uiso   1.00
C14    C     0.08017   0.32764   0.84933   0.00000  Uiso   1.00
C15    C     0.11389   0.25901   0.88485   0.00000  Uiso   1.00
C16    C     0.14677   0.36290   0.89909   0.00000  Uiso   1.00
C17    C     0.17431   0.27482   0.93193   0.00000  Uiso   1.00
C18    C     0.04304   0.30269   0.88308   0.00000  Uiso   1.00
C19    C     0.01635   0.44330   0.89583   0.00000  Uiso   1.00
C20    C     0.98424   0.39200   0.92718   0.00000  Uiso   1.00
C21    C     0.07702   0.18746   0.80267   0.00000  Uiso   1.00
C22    C     0.07889   0.23119   0.74781   0.00000  Uiso   1.00
C23    C     0.07537   0.08288   0.71145   0.00000  Uiso   1.00
H24    H     0.06655   0.84223   0.89626   0.00000  Uiso   1.00
H25    H     0.13215   0.84205   0.94944   0.00000  Uiso   1.00
H26    H     0.00175   0.92245   0.94617   0.00000  Uiso   1.00
H27    H     0.06427   0.71037   0.79818   0.00000  Uiso   1.00
H28    H     0.20716   0.92361   0.00052   0.00000  Uiso   1.00
H29    H     0.93220   0.09310   0.99361   0.00000  Uiso   1.00
H30    H     0.06405   0.64589   0.68154   0.00000  Uiso   1.00
H31    H     0.08421   0.47191   0.83539   0.00000  Uiso   1.00
H32    H     0.15078   0.50629   0.88523   0.00000  Uiso   1.00
H33    H     0.02038   0.58668   0.88196   0.00000  Uiso   1.00
H34    H     0.08291   0.37460   0.73397   0.00000  Uiso   1.00
H35    H     0.22228   0.46273   0.94841   0.00000  Uiso   1.00
H36    H     0.94732   0.63222   0.94150   0.00000  Uiso   1.00
H37    H     0.07917   0.18501   0.62942   0.00000  Uiso   1.00
O38    O     0.25819   0.20445   0.00836   0.00000  Uiso   1.00
O39    O     0.89745   0.42680   0.99929   0.00000  Uiso   1.00
O40    O     0.07043   0.84007   0.58986   0.00000  Uiso   1.00
N41    N     0.20159   0.04576   0.98141   0.00000  Uiso   1.00
N42    N     0.94452   0.20423   0.97496   0.00000  Uiso   1.00
N43    N     0.06777   0.78613   0.68319   0.00000  Uiso   1.00
N44    N     0.20973   0.33586   0.95336   0.00000  Uiso   1.00
N45    N     0.95266   0.49433   0.94691   0.00000  Uiso   1.00
N46    N     0.07591   0.07623   0.65515   0.00000  Uiso   1.00
C47    C     0.42940   0.51351   0.38231   0.00000  Uiso   1.00
C48    C     0.39131   0.42630   0.40276   0.00000  Uiso   1.00
C49    C     0.36382   0.51455   0.43558   0.00000  Uiso   1.00
C50    C     0.33090   0.41082   0.44988   0.00000  Uiso   1.00
C51    C     0.27256   0.30354   0.48438   0.00000  Uiso   1.00
C52    C     0.46216   0.38261   0.40099   0.00000  Uiso   1.00
C53    C     0.49424   0.43414   0.43232   0.00000  Uiso   1.00
C54    C     0.52096   0.29363   0.44512   0.00000  Uiso   1.00
C55    C     0.57262   0.11857   0.47684   0.00000  Uiso   1.00
C56    C     0.42818   0.49784   0.32058   0.00000  Uiso   1.00
C57    C     0.43170   0.64626   0.28430   0.00000  Uiso   1.00
C58    C     0.42983   0.60276   0.22940   0.00000  Uiso   1.00
C59    C     0.42874   0.60661   0.13627   0.00000  Uiso   1.00
C60    C     0.41983   0.17236   0.34933   0.00000  Uiso   1.00
C61    C     0.38611   0.24099   0.38485   0.00000  Uiso   1.00
C62    C     0.35323   0.13710   0.39909   0.00000  Uiso   1.00
C63    C     0.32569   0.22518   0.43193   0.00000  Uiso   1.00
C64    C     0.45696   0.19731   0.38308   0.00000  Uiso   1.00
C65    C     0.48365   0.05670   0.39583   0.00000  Uiso   1.00
C66    C     0.51576   0.10800   0.42718   0.00000  Uiso   1.00
C67    C     0.42298   0.31254   0.30267   0.00000  Uiso   1.00
C68    C     0.42111   0.26881   0.24781   0.00000  Uiso   1.00
C69    C     0.42463   0.41712   0.21145   0.00000  Uiso   1.00
H70    H     0.43345   0.65777   0.39626   0.00000  Uiso   1.00
H71    H     0.36785   0.65795   0.44944   0.00000  Uiso   1.00
H72    H     0.49825   0.57755   0.44617   0.00000  Uiso   1.00
H73    H     0.43573   0.78963   0.29818   0.00000  Uiso   1.00
H74    H     0.29284   0.57639   0.50052   0.00000  Uiso   1.00
H75    H     0.56780   0.40690   0.49361   0.00000  Uiso   1.00
H76    H     0.43595   0.85411   0.18154   0.00000  Uiso   1.00
H77    H     0.41579   0.02809   0.33539   0.00000  Uiso   1.00
H78    H     0.34922   0.99371   0.38523   0.00000  Uiso   1.00
H79    H     0.47962   0.91332   0.38196   0.00000  Uiso   1.00
H80    H     0.41709   0.12540   0.23397   0.00000  Uiso   1.00
H81    H     0.27772   0.03727   0.44841   0.00000  Uiso   1.00
H82    H     0.55268   0.86778   0.44150   0.00000  Uiso   1.00
H83    H     0.42083   0.31499   0.12942   0.00000  Uiso   1.00
O84    O     0.24181   0.29555   0.50836   0.00000  Uiso   1.00
O85    O     0.60255   0.07320   0.49929   0.00000  Uiso   1.00
O86    O     0.42957   0.65993   0.08986   0.00000  Uiso   1.00
N87    N     0.29841   0.45424   0.48141   0.00000  Uiso   1.00
N88    N     0.55548   0.29577   0.47496   0.00000  Uiso   1.00
N89    N     0.43223   0.71387   0.18319   0.00000  Uiso   1.00
N90    N     0.29027   0.16414   0.45336   0.00000  Uiso   1.00
N91    N     0.54734   0.00567   0.44691   0.00000  Uiso   1.00
N92    N     0.42409   0.42377   0.15515   0.00000  Uiso   1.00
C93    C     0.92940   0.98649   0.61769   0.00000  Uiso   1.00
C94    C     0.89131   0.07370   0.59724   0.00000  Uiso   1.00
C95    C     0.86382   0.98545   0.56442   0.00000  Uiso   1.00
C96    C     0.83090   0.08918   0.55012   0.00000  Uiso   1.00
C97    C     0.77256   0.19646   0.51562   0.00000  Uiso   1.00
C98    C     0.96216   0.11739   0.59901   0.00000  Uiso   1.00
C99    C     0.99424   0.06586   0.56768   0.00000  Uiso   1.00
C100   C     0.02096   0.20637   0.55488   0.00000  Uiso   1.00
C101   C     0.07262   0.38143   0.52316   0.00000  Uiso   1.00
C102   C     0.92818   0.00216   0.67942   0.00000  Uiso   1.00
C103   C     0.93170   0.85374   0.71570   0.00000  Uiso   1.00
C104   C     0.92983   0.89724   0.77060   0.00000  Uiso   1.00
C105   C     0.92874   0.89339   0.86373   0.00000  Uiso   1.00
C106   C     0.91983   0.32764   0.65067   0.00000  Uiso   1.00
C107   C     0.88611   0.25901   0.61515   0.00000  Uiso   1.00
C108   C     0.85323   0.36290   0.60091   0.00000  Uiso   1.00
C109   C     0.82569   0.27482   0.56807   0.00000  Uiso   1.00
C110   C     0.95696   0.30269   0.61692   0.00000  Uiso   1.00
C111   C     0.98365   0.44330   0.60417   0.00000  Uiso   1.00
C112   C     0.01576   0.39200   0.57282   0.00000  Uiso   1.00
C113   C     0.92298   0.18746   0.69733   0.00000  Uiso   1.00
C114   C     0.92111   0.23119   0.75219   0.00000  Uiso   1.00
C115   C     0.92463   0.08288   0.78855   0.00000  Uiso   1.00
H116   H     0.93345   0.84223   0.60374   0.00000  Uiso   1.00
H117   H     0.86785   0.84205   0.55056   0.00000  Uiso   1.00
H118   H     0.99825   0.92245   0.55383   0.00000  Uiso   1.00
H119   H     0.93573   0.71037   0.70182   0.00000  Uiso   1.00
H120   H     0.79284   0.92361   0.49948   0.00000  Uiso   1.00
H121   H     0.06780   0.09310   0.50639   0.00000  Uiso   1.00
H122   H     0.93595   0.64589   0.81846   0.00000  Uiso   1.00
H123   H     0.91579   0.47191   0.66461   0.00000  Uiso   1.00
H124   H     0.84922   0.50629   0.61477   0.00000  Uiso   1.00
H125   H     0.97962   0.58668   0.61804   0.00000  Uiso   1.00
H126   H     0.91709   0.37460   0.76603   0.00000  Uiso   1.00
H127   H     0.77772   0.46273   0.55159   0.00000  Uiso   1.00
H128   H     0.05268   0.63222   0.55850   0.00000  Uiso   1.00
H129   H     0.92083   0.18501   0.87058   0.00000  Uiso   1.00
O130   O     0.74181   0.20445   0.49164   0.00000  Uiso   1.00
O131   O     0.10255   0.42680   0.50071   0.00000  Uiso   1.00
O132   O     0.92957   0.84007   0.91014   0.00000  Uiso   1.00
N133   N     0.79841   0.04576   0.51859   0.00000  Uiso   1.00
N134   N     0.05548   0.20423   0.52504   0.00000  Uiso   1.00
N135   N     0.93223   0.78613   0.81681   0.00000  Uiso   1.00
N136   N     0.79027   0.33586   0.54664   0.00000  Uiso   1.00
N137   N     0.04734   0.49433   0.55309   0.00000  Uiso   1.00
N138   N     0.92409   0.07623   0.84485   0.00000  Uiso   1.00
C139   C     0.57060   0.51351   0.11769   0.00000  Uiso   1.00
C140   C     0.60869   0.42630   0.09724   0.00000  Uiso   1.00
C141   C     0.63618   0.51455   0.06442   0.00000  Uiso   1.00
C142   C     0.66910   0.41082   0.05012   0.00000  Uiso   1.00
C143   C     0.72744   0.30354   0.01562   0.00000  Uiso   1.00
C144   C     0.53784   0.38261   0.09901   0.00000  Uiso   1.00
C145   C     0.50576   0.43414   0.06768   0.00000  Uiso   1.00
C146   C     0.47904   0.29363   0.05488   0.00000  Uiso   1.00
C147   C     0.42738   0.11857   0.02316   0.00000  Uiso   1.00
C148   C     0.57182   0.49784   0.17942   0.00000  Uiso   1.00
C149   C     0.56830   0.64626   0.21570   0.00000  Uiso   1.00
C150   C     0.57017   0.60276   0.27060   0.00000  Uiso   1.00
C151   C     0.57126   0.60661   0.36373   0.00000  Uiso   1.00
C152   C     0.58017   0.17236   0.15067   0.00000  Uiso   1.00
C153   C     0.61389   0.24099   0.11515   0.00000  Uiso   1.00
C154   C     0.64677   0.13710   0.10091   0.00000  Uiso   1.00
C155   C     0.67431   0.22518   0.06807   0.00000  Uiso   1.00
C156   C     0.54304   0.19731   0.11692   0.00000  Uiso   1.00
C157   C     0.51635   0.05670   0.10417   0.00000  Uiso   1.00
C158   C     0.48424   0.10800   0.07282   0.00000  Uiso   1.00
C159   C     0.57702   0.31254   0.19733   0.00000  Uiso   1.00
C160   C     0.57889   0.26881   0.25219   0.00000  Uiso   1.00
C161   C     0.57537   0.41712   0.28855   0.00000  Uiso   1.00
H162   H     0.56655   0.65777   0.10374   0.00000  Uiso   1.00
H163   H     0.63215   0.65795   0.05056   0.00000  Uiso   1.00
H164   H     0.50175   0.57755   0.05383   0.00000  Uiso   1.00
H165   H     0.56427   0.78963   0.20182   0.00000  Uiso   1.00
H166   H     0.70716   0.57639   0.99948   0.00000  Uiso   1.00
H167   H     0.43220   0.40690   0.00639   0.00000  Uiso   1.00
H168   H     0.56405   0.85411   0.31846   0.00000  Uiso   1.00
H169   H     0.58421   0.02809   0.16461   0.00000  Uiso   1.00
H170   H     0.65078   0.99371   0.11477   0.00000  Uiso   1.00
H171   H     0.52038   0.91332   0.11804   0.00000  Uiso   1.00
H172   H     0.58291   0.12540   0.26603   0.00000  Uiso   1.00
H173   H     0.72228   0.03727   0.05159   0.00000  Uiso   1.00
H174   H     0.44732   0.86778   0.05850   0.00000  Uiso   1.00
H175   H     0.57917   0.31499   0.37058   0.00000  Uiso   1.00
O176   O     0.75819   0.29555   0.99164   0.00000  Uiso   1.00
O177   O     0.39745   0.07320   0.00071   0.00000  Uiso   1.00
O178   O     0.57043   0.65993   0.41014   0.00000  Uiso   1.00
N179   N     0.70159   0.45424   0.01859   0.00000  Uiso   1.00
N180   N     0.44452   0.29577   0.02504   0.00000  Uiso   1.00
N181   N     0.56777   0.71387   0.31681   0.00000  Uiso   1.00
N182   N     0.70973   0.16414   0.04664   0.00000  Uiso   1.00
N183   N     0.45266   0.00567   0.05309   0.00000  Uiso   1.00
N184   N     0.57591   0.42377   0.34485   0.00000  Uiso   1.00
C185   C     0.92940   0.01351   0.11769   0.00000  Uiso   1.00
C186   C     0.89131   0.92630   0.09724   0.00000  Uiso   1.00
C187   C     0.86382   0.01455   0.06442   0.00000  Uiso   1.00
C188   C     0.83090   0.91082   0.05012   0.00000  Uiso   1.00
C189   C     0.77256   0.80354   0.01562   0.00000  Uiso   1.00
C190   C     0.96216   0.88261   0.09901   0.00000  Uiso   1.00
C191   C     0.99424   0.93414   0.06768   0.00000  Uiso   1.00
C192   C     0.02096   0.79363   0.05488   0.00000  Uiso   1.00
C193   C     0.07262   0.61857   0.02316   0.00000  Uiso   1.00
C194   C     0.92818   0.99784   0.17942   0.00000  Uiso   1.00
C195   C     0.93170   0.14626   0.21570   0.00000  Uiso   1.00
C196   C     0.92983   0.10276   0.27060   0.00000  Uiso   1.00
C197   C     0.92874   0.10661   0.36373   0.00000  Uiso   1.00
C198   C     0.91983   0.67236   0.15067   0.00000  Uiso   1.00
C199   C     0.88611   0.74099   0.11515   0.00000  Uiso   1.00
C200   C     0.85323   0.63710   0.10091   0.00000  Uiso   1.00
C201   C     0.82569   0.72518   0.06807   0.00000  Uiso   1.00
C202   C     0.95696   0.69731   0.11692   0.00000  Uiso   1.00
C203   C     0.98365   0.55670   0.10417   0.00000  Uiso   1.00
C204   C     0.01576   0.60800   0.07282   0.00000  Uiso   1.00
C205   C     0.92298   0.81254   0.19733   0.00000  Uiso   1.00
C206   C     0.92111   0.76881   0.25219   0.00000  Uiso   1.00
C207   C     0.92463   0.91712   0.28855   0.00000  Uiso   1.00
H208   H     0.93345   0.15777   0.10374   0.00000  Uiso   1.00
H209   H     0.86785   0.15795   0.05056   0.00000  Uiso   1.00
H210   H     0.99825   0.07755   0.05383   0.00000  Uiso   1.00
H211   H     0.93573   0.28963   0.20182   0.00000  Uiso   1.00
H212   H     0.79284   0.07639   0.99948   0.00000  Uiso   1.00
H213   H     0.06780   0.90690   0.00639   0.00000  Uiso   1.00
H214   H     0.93595   0.35411   0.31846   0.00000  Uiso   1.00
H215   H     0.91579   0.52809   0.16461   0.00000  Uiso   1.00
H216   H     0.84922   0.49371   0.11477   0.00000  Uiso   1.00
H217   H     0.97962   0.41332   0.11804   0.00000  Uiso   1.00
H218   H     0.91709   0.62540   0.26603   0.00000  Uiso   1.00
H219   H     0.77772   0.53727   0.05159   0.00000  Uiso   1.00
H220   H     0.05268   0.36778   0.05850   0.00000  Uiso   1.00
H221   H     0.92083   0.81499   0.37058   0.00000  Uiso   1.00
O222   O     0.74181   0.79555   0.99164   0.00000  Uiso   1.00
O223   O     0.10255   0.57320   0.00071   0.00000  Uiso   1.00
O224   O     0.92957   0.15993   0.41014   0.00000  Uiso   1.00
N225   N     0.79841   0.95424   0.01859   0.00000  Uiso   1.00
N226   N     0.05548   0.79577   0.02504   0.00000  Uiso   1.00
N227   N     0.93223   0.21387   0.31681   0.00000  Uiso   1.00
N228   N     0.79027   0.66414   0.04664   0.00000  Uiso   1.00
N229   N     0.04734   0.50567   0.05309   0.00000  Uiso   1.00
N230   N     0.92409   0.92377   0.34485   0.00000  Uiso   1.00
C231   C     0.57060   0.48649   0.61769   0.00000  Uiso   1.00
C232   C     0.60869   0.57370   0.59724   0.00000  Uiso   1.00
C233   C     0.63618   0.48545   0.56442   0.00000  Uiso   1.00
C234   C     0.66910   0.58918   0.55012   0.00000  Uiso   1.00
C235   C     0.72744   0.69646   0.51562   0.00000  Uiso   1.00
C236   C     0.53784   0.61739   0.59901   0.00000  Uiso   1.00
C237   C     0.50576   0.56586   0.56768   0.00000  Uiso   1.00
C238   C     0.47904   0.70637   0.55488   0.00000  Uiso   1.00
C239   C     0.42738   0.88143   0.52316   0.00000  Uiso   1.00
C240   C     0.57182   0.50216   0.67942   0.00000  Uiso   1.00
C241   C     0.56830   0.35374   0.71570   0.00000  Uiso   1.00
C242   C     0.57017   0.39724   0.77060   0.00000  Uiso   1.00
C243   C     0.57126   0.39339   0.86373   0.00000  Uiso   1.00
C244   C     0.58017   0.82764   0.65067   0.00000  Uiso   1.00
C245   C     0.61389   0.75901   0.61515   0.00000  Uiso   1.00
C246   C     0.64677   0.86290   0.60091   0.00000  Uiso   1.00
C247   C     0.67431   0.77482   0.56807   0.00000  Uiso   1.00
C248   C     0.54304   0.80269   0.61692   0.00000  Uiso   1.00
C249   C     0.51635   0.94330   0.60417   0.00000  Uiso   1.00
C250   C     0.48424   0.89200   0.57282   0.00000  Uiso   1.00
C251   C     0.57702   0.68746   0.69733   0.00000  Uiso   1.00
C252   C     0.57889   0.73119   0.75219   0.00000  Uiso   1.00
C253   C     0.57537   0.58288   0.78855   0.00000  Uiso   1.00
H254   H     0.56655   0.34223   0.60374   0.00000  Uiso   1.00
H255   H     0.63215   0.34205   0.55056   0.00000  Uiso   1.00
H256   H     0.50175   0.42245   0.55383   0.00000  Uiso   1.00
H257   H     0.56427   0.21037   0.70182   0.00000  Uiso   1.00
H258   H     0.70716   0.42361   0.49948   0.00000  Uiso   1.00
H259   H     0.43220   0.59310   0.50639   0.00000  Uiso   1.00
H260   H     0.56405   0.14589   0.81846   0.00000  Uiso   1.00
H261   H     0.58421   0.97191   0.66461   0.00000  Uiso   1.00
H262   H     0.65078   0.00629   0.61477   0.00000  Uiso   1.00
H263   H     0.52038   0.08668   0.61804   0.00000  Uiso   1.00
H264   H     0.58291   0.87460   0.76603   0.00000  Uiso   1.00
H265   H     0.72228   0.96273   0.55159   0.00000  Uiso   1.00
H266   H     0.44732   0.13222   0.55850   0.00000  Uiso   1.00
H267   H     0.57917   0.68501   0.87058   0.00000  Uiso   1.00
O268   O     0.75819   0.70445   0.49164   0.00000  Uiso   1.00
O269   O     0.39745   0.92680   0.50071   0.00000  Uiso   1.00
O270   O     0.57043   0.34007   0.91014   0.00000  Uiso   1.00
N271   N     0.70159   0.54576   0.51859   0.00000  Uiso   1.00
N272   N     0.44452   0.70423   0.52504   0.00000  Uiso   1.00
N273   N     0.56777   0.28613   0.81681   0.00000  Uiso   1.00
N274   N     0.70973   0.83586   0.54664   0.00000  Uiso   1.00
N275   N     0.45266   0.99433   0.55309   0.00000  Uiso   1.00
N276   N     0.57591   0.57623   0.84485   0.00000  Uiso   1.00
C277   C     0.07060   0.01351   0.38231   0.00000  Uiso   1.00
C278   C     0.10869   0.92630   0.40276   0.00000  Uiso   1.00
C279   C     0.13618   0.01455   0.43558   0.00000  Uiso   1.00
C280   C     0.16910   0.91082   0.44988   0.00000  Uiso   1.00
C281   C     0.22744   0.80354   0.48438   0.00000  Uiso   1.00
C282   C     0.03784   0.88261   0.40099   0.00000  Uiso   1.00
C283   C     0.00576   0.93414   0.43232   0.00000  Uiso   1.00
C284   C     0.97904   0.79363   0.44512   0.00000  Uiso   1.00
C285   C     0.92738   0.61857   0.47684   0.00000  Uiso   1.00
C286   C     0.07182   0.99784   0.32058   0.00000  Uiso   1.00
C287   C     0.06830   0.14626   0.28430   0.00000  Uiso   1.00
C288   C     0.07017   0.10276   0.22940   0.00000  Uiso   1.00
C289   C     0.07126   0.10661   0.13627   0.00000  Uiso   1.00
C290   C     0.08017   0.67236   0.34933   0.00000  Uiso   1.00
C291   C     0.11389   0.74099   0.38485   0.00000  Uiso   1.00
C292   C     0.14677   0.63710   0.39909   0.00000  Uiso   1.00
C293   C     0.17431   0.72518   0.43193   0.00000  Uiso   1.00
C294   C     0.04304   0.69731   0.38308   0.00000  Uiso   1.00
C295   C     0.01635   0.55670   0.39583   0.00000  Uiso   1.00
C296   C     0.98424   0.60800   0.42718   0.00000  Uiso   1.00
C297   C     0.07702   0.81254   0.30267   0.00000  Uiso   1.00
C298   C     0.07889   0.76881   0.24781   0.00000  Uiso   1.00
C299   C     0.07537   0.91712   0.21145   0.00000  Uiso   1.00
H300   H     0.06655   0.15777   0.39626   0.00000  Uiso   1.00
H301   H     0.13215   0.15795   0.44944   0.00000  Uiso   1.00
H302   H     0.00175   0.07755   0.44617   0.00000  Uiso   1.00
H303   H     0.06427   0.28963   0.29818   0.00000  Uiso   1.00
H304   H     0.20716   0.07639   0.50052   0.00000  Uiso   1.00
H305   H     0.93220   0.90690   0.49361   0.00000  Uiso   1.00
H306   H     0.06405   0.35411   0.18154   0.00000  Uiso   1.00
H307   H     0.08421   0.52809   0.33539   0.00000  Uiso   1.00
H308   H     0.15078   0.49371   0.38523   0.00000  Uiso   1.00
H309   H     0.02038   0.41332   0.38196   0.00000  Uiso   1.00
H310   H     0.08291   0.62540   0.23397   0.00000  Uiso   1.00
H311   H     0.22228   0.53727   0.44841   0.00000  Uiso   1.00
H312   H     0.94732   0.36778   0.44150   0.00000  Uiso   1.00
H313   H     0.07917   0.81499   0.12942   0.00000  Uiso   1.00
O314   O     0.25819   0.79555   0.50836   0.00000  Uiso   1.00
O315   O     0.89745   0.57320   0.49929   0.00000  Uiso   1.00
O316   O     0.07043   0.15993   0.08986   0.00000  Uiso   1.00
N317   N     0.20159   0.95424   0.48141   0.00000  Uiso   1.00
N318   N     0.94452   0.79577   0.47496   0.00000  Uiso   1.00
N319   N     0.06777   0.21387   0.18319   0.00000  Uiso   1.00
N320   N     0.20973   0.66414   0.45336   0.00000  Uiso   1.00
N321   N     0.95266   0.50567   0.44691   0.00000  Uiso   1.00
N322   N     0.07591   0.92377   0.15515   0.00000  Uiso   1.00
C323   C     0.42940   0.48649   0.88231   0.00000  Uiso   1.00
C324   C     0.39131   0.57370   0.90276   0.00000  Uiso   1.00
C325   C     0.36382   0.48545   0.93558   0.00000  Uiso   1.00
C326   C     0.33090   0.58918   0.94988   0.00000  Uiso   1.00
C327   C     0.27256   0.69646   0.98438   0.00000  Uiso   1.00
C328   C     0.46216   0.61739   0.90099   0.00000  Uiso   1.00
C329   C     0.49424   0.56586   0.93232   0.00000  Uiso   1.00
C330   C     0.52096   0.70637   0.94512   0.00000  Uiso   1.00
C331   C     0.57262   0.88143   0.97684   0.00000  Uiso   1.00
C332   C     0.42818   0.50216   0.82058   0.00000  Uiso   1.00
C333   C     0.43170   0.35374   0.78430   0.00000  Uiso   1.00
C334   C     0.42983   0.39724   0.72940   0.00000  Uiso   1.00
C335   C     0.42874   0.39339   0.63627   0.00000  Uiso   1.00
C336   C     0.41983   0.82764   0.84933   0.00000  Uiso   1.00
C337   C     0.38611   0.75901   0.88485   0.00000  Uiso   1.00
C338   C     0.35323   0.86290   0.89909   0.00000  Uiso   1.00
C339   C     0.32569   0.77482   0.93193   0.00000  Uiso   1.00
C340   C     0.45696   0.80269   0.88308   0.00000  Uiso   1.00
C341   C     0.48365   0.94330   0.89583   0.00000  Uiso   1.00
C342   C     0.51576   0.89200   0.92718   0.00000  Uiso   1.00
C343   C     0.42298   0.68746   0.80267   0.00000  Uiso   1.00
C344   C     0.42111   0.73119   0.74781   0.00000  Uiso   1.00
C345   C     0.42463   0.58288   0.71145   0.00000  Uiso   1.00
H346   H     0.43345   0.34223   0.89626   0.00000  Uiso   1.00
H347   H     0.36785   0.34205   0.94944   0.00000  Uiso   1.00
H348   H     0.49825   0.42245   0.94617   0.00000  Uiso   1.00
H349   H     0.43573   0.21037   0.79818   0.00000  Uiso   1.00
H350   H     0.29284   0.42361   0.00052   0.00000  Uiso   1.00
H351   H     0.56780   0.59310   0.99361   0.00000  Uiso   1.00
H352   H     0.43595   0.14589   0.68154   0.00000  Uiso   1.00
H353   H     0.41579   0.97191   0.83539   0.00000  Uiso   1.00
H354   H     0.34922   0.00629   0.88523   0.00000  Uiso   1.00
H355   H     0.47962   0.08668   0.88196   0.00000  Uiso   1.00
H356   H     0.41709   0.87460   0.73397   0.00000  Uiso   1.00
H357   H     0.27772   0.96273   0.94841   0.00000  Uiso   1.00
H358   H     0.55268   0.13222   0.94150   0.00000  Uiso   1.00
H359   H     0.42083   0.68501   0.62942   0.00000  Uiso   1.00
O360   O     0.24181   0.70445   0.00836   0.00000  Uiso   1.00
O361   O     0.60255   0.92680   0.99929   0.00000  Uiso   1.00
O362   O     0.42957   0.34007   0.58986   0.00000  Uiso   1.00
N363   N     0.29841   0.54576   0.98141   0.00000  Uiso   1.00
N364   N     0.55548   0.70423   0.97496   0.00000  Uiso   1.00
N365   N     0.43223   0.28613   0.68319   0.00000  Uiso   1.00
N366   N     0.29027   0.83586   0.95336   0.00000  Uiso   1.00
N367   N     0.54734   0.99433   0.94691   0.00000  Uiso   1.00
N368   N     0.42409   0.57623   0.65515   0.00000  Uiso   1.00
