data_job_02918
_audit_creation_date              2018-12-19
_audit_creation_method            'Materials Studio'
_symmetry_space_group_name_H-M    'P1'
_symmetry_Int_Tables_number       1
_symmetry_cell_setting            triclinic
loop_
_symmetry_equiv_pos_as_xyz
  x,y,z
_cell_length_a                    15.5070
_cell_length_b                    9.3368
_cell_length_c                    15.1413
_cell_angle_alpha                 90.0000
_cell_angle_beta                  90.0000
_cell_angle_gamma                 90.0000
loop_
_atom_site_label
_atom_site_type_symbol
_atom_site_fract_x
_atom_site_fract_y
_atom_site_fract_z
_atom_site_U_iso_or_equiv
_atom_site_adp_type
_atom_site_occupancy
C1     C     0.00005   0.99738   0.68032   0.00000  Uiso   1.00
C2     C     0.00004   0.89618   0.60127   0.00000  Uiso   1.00
C3     C     0.00005   0.74769   0.60536   0.00000  Uiso   1.00
C4     C     0.00006   0.67437   0.52559   0.00000  Uiso   1.00
C5     C     0.00009   0.50616   0.41515   0.00000  Uiso   1.00
C6     C     0.07861   0.09383   0.66880   0.00000  Uiso   1.00
C7     C     0.14467   0.11154   0.72967   0.00000  Uiso   1.00
C8     C     0.21081   0.20461   0.70675   0.00000  Uiso   1.00
C9     C     0.33279   0.34334   0.70118   0.00000  Uiso   1.00
C10    C     0.92151   0.09386   0.66881   0.00000  Uiso   1.00
C11    C     0.85548   0.11164   0.72970   0.00000  Uiso   1.00
C12    C     0.78936   0.20478   0.70679   0.00000  Uiso   1.00
C13    C     0.66741   0.34356   0.70124   0.00000  Uiso   1.00
C14    C     0.00005   0.13122   0.53137   0.00000  Uiso   1.00
C15    C     0.00005   0.96888   0.52037   0.00000  Uiso   1.00
C16    C     0.00005   0.89576   0.44057   0.00000  Uiso   1.00
C17    C     0.00006   0.74719   0.44454   0.00000  Uiso   1.00
C18    C     0.07862   0.16652   0.58790   0.00000  Uiso   1.00
C19    C     0.14467   0.25960   0.56488   0.00000  Uiso   1.00
C20    C     0.21081   0.27744   0.62570   0.00000  Uiso   1.00
C21    C     0.92151   0.16656   0.58791   0.00000  Uiso   1.00
C22    C     0.85548   0.25970   0.56490   0.00000  Uiso   1.00
C23    C     0.78936   0.27760   0.62575   0.00000  Uiso   1.00
H24    H     0.00005   0.94080   0.74330   0.00000  Uiso   1.00
H25    H     0.00005   0.69147   0.66798   0.00000  Uiso   1.00
H26    H     0.14464   0.05528   0.79228   0.00000  Uiso   1.00
H27    H     0.85550   0.05537   0.79230   0.00000  Uiso   1.00
H28    H     0.00009   0.44711   0.54880   0.00000  Uiso   1.00
H29    H     0.30495   0.21424   0.81089   0.00000  Uiso   1.00
H30    H     0.69523   0.21444   0.81095   0.00000  Uiso   1.00
H31    H     0.00006   0.18782   0.46838   0.00000  Uiso   1.00
H32    H     0.00006   0.95204   0.37797   0.00000  Uiso   1.00
H33    H     0.14465   0.31584   0.50227   0.00000  Uiso   1.00
H34    H     0.85550   0.31594   0.50229   0.00000  Uiso   1.00
H35    H     0.00010   0.65860   0.31341   0.00000  Uiso   1.00
H36    H     0.30496   0.42574   0.57551   0.00000  Uiso   1.00
H37    H     0.69524   0.42593   0.57556   0.00000  Uiso   1.00
O38    O     0.00012   0.39330   0.37659   0.00000  Uiso   1.00
O39    O     0.40008   0.39977   0.72046   0.00000  Uiso   1.00
O40    O     0.60014   0.40002   0.72053   0.00000  Uiso   1.00
N41    N     0.00007   0.52924   0.50581   0.00000  Uiso   1.00
N42    N     0.28511   0.24645   0.75085   0.00000  Uiso   1.00
N43    N     0.71508   0.24666   0.75091   0.00000  Uiso   1.00
N44    N     0.00007   0.64304   0.37915   0.00000  Uiso   1.00
N45    N     0.28511   0.36025   0.62419   0.00000  Uiso   1.00
N46    N     0.71508   0.36046   0.62425   0.00000  Uiso   1.00
C47    C     0.49995   0.00262   0.18032   0.00000  Uiso   1.00
C48    C     0.49996   0.10382   0.10127   0.00000  Uiso   1.00
C49    C     0.49995   0.25231   0.10536   0.00000  Uiso   1.00
C50    C     0.49994   0.32563   0.02559   0.00000  Uiso   1.00
C51    C     0.49991   0.49384   0.91515   0.00000  Uiso   1.00
C52    C     0.42139   0.90617   0.16880   0.00000  Uiso   1.00
C53    C     0.35533   0.88846   0.22967   0.00000  Uiso   1.00
C54    C     0.28919   0.79539   0.20675   0.00000  Uiso   1.00
C55    C     0.16721   0.65666   0.20118   0.00000  Uiso   1.00
C56    C     0.57849   0.90614   0.16881   0.00000  Uiso   1.00
C57    C     0.64452   0.88836   0.22970   0.00000  Uiso   1.00
C58    C     0.71064   0.79522   0.20679   0.00000  Uiso   1.00
C59    C     0.83259   0.65644   0.20124   0.00000  Uiso   1.00
C60    C     0.49995   0.86878   0.03137   0.00000  Uiso   1.00
C61    C     0.49995   0.03112   0.02037   0.00000  Uiso   1.00
C62    C     0.49995   0.10424   0.94057   0.00000  Uiso   1.00
C63    C     0.49994   0.25281   0.94454   0.00000  Uiso   1.00
C64    C     0.42138   0.83348   0.08790   0.00000  Uiso   1.00
C65    C     0.35533   0.74040   0.06488   0.00000  Uiso   1.00
C66    C     0.28919   0.72256   0.12570   0.00000  Uiso   1.00
C67    C     0.57849   0.83344   0.08791   0.00000  Uiso   1.00
C68    C     0.64452   0.74030   0.06490   0.00000  Uiso   1.00
C69    C     0.71064   0.72240   0.12575   0.00000  Uiso   1.00
H70    H     0.49995   0.05920   0.24330   0.00000  Uiso   1.00
H71    H     0.49995   0.30853   0.16798   0.00000  Uiso   1.00
H72    H     0.35536   0.94472   0.29228   0.00000  Uiso   1.00
H73    H     0.64450   0.94463   0.29230   0.00000  Uiso   1.00
H74    H     0.49991   0.55289   0.04880   0.00000  Uiso   1.00
H75    H     0.19505   0.78576   0.31089   0.00000  Uiso   1.00
H76    H     0.80477   0.78556   0.31095   0.00000  Uiso   1.00
H77    H     0.49994   0.81218   0.96838   0.00000  Uiso   1.00
H78    H     0.49994   0.04796   0.87797   0.00000  Uiso   1.00
H79    H     0.35535   0.68416   0.00227   0.00000  Uiso   1.00
H80    H     0.64450   0.68406   0.00229   0.00000  Uiso   1.00
H81    H     0.49990   0.34140   0.81341   0.00000  Uiso   1.00
H82    H     0.19504   0.57426   0.07551   0.00000  Uiso   1.00
H83    H     0.80476   0.57407   0.07556   0.00000  Uiso   1.00
O84    O     0.49988   0.60670   0.87659   0.00000  Uiso   1.00
O85    O     0.09992   0.60023   0.22046   0.00000  Uiso   1.00
O86    O     0.89986   0.59998   0.22053   0.00000  Uiso   1.00
N87    N     0.49993   0.47076   0.00581   0.00000  Uiso   1.00
N88    N     0.21489   0.75355   0.25085   0.00000  Uiso   1.00
N89    N     0.78492   0.75334   0.25091   0.00000  Uiso   1.00
N90    N     0.49993   0.35696   0.87915   0.00000  Uiso   1.00
N91    N     0.21489   0.63975   0.12419   0.00000  Uiso   1.00
N92    N     0.78492   0.63954   0.12425   0.00000  Uiso   1.00
C93    C     0.99995   0.49738   0.81968   0.00000  Uiso   1.00
C94    C     0.99996   0.39618   0.89873   0.00000  Uiso   1.00
C95    C     0.99995   0.24769   0.89464   0.00000  Uiso   1.00
C96    C     0.99994   0.17437   0.97441   0.00000  Uiso   1.00
C97    C     0.99991   0.00616   0.08485   0.00000  Uiso   1.00
C98    C     0.92139   0.59383   0.83120   0.00000  Uiso   1.00
C99    C     0.85533   0.61154   0.77033   0.00000  Uiso   1.00
C100   C     0.78919   0.70461   0.79325   0.00000  Uiso   1.00
C101   C     0.66721   0.84334   0.79882   0.00000  Uiso   1.00
C102   C     0.07849   0.59386   0.83119   0.00000  Uiso   1.00
C103   C     0.14452   0.61164   0.77030   0.00000  Uiso   1.00
C104   C     0.21064   0.70478   0.79321   0.00000  Uiso   1.00
C105   C     0.33259   0.84356   0.79876   0.00000  Uiso   1.00
C106   C     0.99995   0.63122   0.96863   0.00000  Uiso   1.00
C107   C     0.99995   0.46888   0.97963   0.00000  Uiso   1.00
C108   C     0.99995   0.39576   0.05943   0.00000  Uiso   1.00
C109   C     0.99994   0.24719   0.05546   0.00000  Uiso   1.00
C110   C     0.92138   0.66652   0.91210   0.00000  Uiso   1.00
C111   C     0.85533   0.75960   0.93512   0.00000  Uiso   1.00
C112   C     0.78919   0.77744   0.87430   0.00000  Uiso   1.00
C113   C     0.07849   0.66656   0.91209   0.00000  Uiso   1.00
C114   C     0.14452   0.75970   0.93510   0.00000  Uiso   1.00
C115   C     0.21064   0.77760   0.87425   0.00000  Uiso   1.00
H116   H     0.99995   0.44080   0.75670   0.00000  Uiso   1.00
H117   H     0.99995   0.19147   0.83202   0.00000  Uiso   1.00
H118   H     0.85536   0.55528   0.70772   0.00000  Uiso   1.00
H119   H     0.14450   0.55537   0.70770   0.00000  Uiso   1.00
H120   H     0.99991   0.94711   0.95120   0.00000  Uiso   1.00
H121   H     0.69505   0.71424   0.68911   0.00000  Uiso   1.00
H122   H     0.30477   0.71444   0.68905   0.00000  Uiso   1.00
H123   H     0.99994   0.68782   0.03162   0.00000  Uiso   1.00
H124   H     0.99994   0.45204   0.12203   0.00000  Uiso   1.00
H125   H     0.85535   0.81584   0.99773   0.00000  Uiso   1.00
H126   H     0.14450   0.81594   0.99771   0.00000  Uiso   1.00
H127   H     0.99990   0.15860   0.18659   0.00000  Uiso   1.00
H128   H     0.69504   0.92574   0.92449   0.00000  Uiso   1.00
H129   H     0.30476   0.92593   0.92444   0.00000  Uiso   1.00
O130   O     0.99988   0.89330   0.12341   0.00000  Uiso   1.00
O131   O     0.59992   0.89977   0.77954   0.00000  Uiso   1.00
O132   O     0.39986   0.90002   0.77947   0.00000  Uiso   1.00
N133   N     0.99993   0.02924   0.99419   0.00000  Uiso   1.00
N134   N     0.71489   0.74645   0.74915   0.00000  Uiso   1.00
N135   N     0.28492   0.74666   0.74909   0.00000  Uiso   1.00
N136   N     0.99993   0.14304   0.12085   0.00000  Uiso   1.00
N137   N     0.71489   0.86025   0.87581   0.00000  Uiso   1.00
N138   N     0.28492   0.86046   0.87575   0.00000  Uiso   1.00
C139   C     0.50005   0.50262   0.31968   0.00000  Uiso   1.00
C140   C     0.50004   0.60382   0.39873   0.00000  Uiso   1.00
C141   C     0.50005   0.75231   0.39464   0.00000  Uiso   1.00
C142   C     0.50006   0.82563   0.47441   0.00000  Uiso   1.00
C143   C     0.50009   0.99384   0.58485   0.00000  Uiso   1.00
C144   C     0.57861   0.40617   0.33120   0.00000  Uiso   1.00
C145   C     0.64467   0.38846   0.27033   0.00000  Uiso   1.00
C146   C     0.71081   0.29539   0.29325   0.00000  Uiso   1.00
C147   C     0.83279   0.15666   0.29882   0.00000  Uiso   1.00
C148   C     0.42151   0.40614   0.33119   0.00000  Uiso   1.00
C149   C     0.35548   0.38836   0.27030   0.00000  Uiso   1.00
C150   C     0.28936   0.29522   0.29321   0.00000  Uiso   1.00
C151   C     0.16741   0.15644   0.29876   0.00000  Uiso   1.00
C152   C     0.50005   0.36878   0.46863   0.00000  Uiso   1.00
C153   C     0.50005   0.53112   0.47963   0.00000  Uiso   1.00
C154   C     0.50005   0.60424   0.55943   0.00000  Uiso   1.00
C155   C     0.50006   0.75281   0.55546   0.00000  Uiso   1.00
C156   C     0.57862   0.33348   0.41210   0.00000  Uiso   1.00
C157   C     0.64467   0.24040   0.43512   0.00000  Uiso   1.00
C158   C     0.71081   0.22256   0.37430   0.00000  Uiso   1.00
C159   C     0.42151   0.33344   0.41209   0.00000  Uiso   1.00
C160   C     0.35548   0.24030   0.43510   0.00000  Uiso   1.00
C161   C     0.28936   0.22240   0.37425   0.00000  Uiso   1.00
H162   H     0.50005   0.55920   0.25670   0.00000  Uiso   1.00
H163   H     0.50005   0.80853   0.33202   0.00000  Uiso   1.00
H164   H     0.64464   0.44472   0.20772   0.00000  Uiso   1.00
H165   H     0.35550   0.44463   0.20770   0.00000  Uiso   1.00
H166   H     0.50009   0.05289   0.45120   0.00000  Uiso   1.00
H167   H     0.80495   0.28576   0.18911   0.00000  Uiso   1.00
H168   H     0.19523   0.28556   0.18905   0.00000  Uiso   1.00
H169   H     0.50006   0.31218   0.53162   0.00000  Uiso   1.00
H170   H     0.50006   0.54796   0.62203   0.00000  Uiso   1.00
H171   H     0.64465   0.18416   0.49773   0.00000  Uiso   1.00
H172   H     0.35550   0.18406   0.49771   0.00000  Uiso   1.00
H173   H     0.50010   0.84140   0.68659   0.00000  Uiso   1.00
H174   H     0.80496   0.07426   0.42449   0.00000  Uiso   1.00
H175   H     0.19524   0.07407   0.42444   0.00000  Uiso   1.00
O176   O     0.50012   0.10670   0.62341   0.00000  Uiso   1.00
O177   O     0.90008   0.10023   0.27954   0.00000  Uiso   1.00
O178   O     0.10014   0.09998   0.27947   0.00000  Uiso   1.00
N179   N     0.50007   0.97076   0.49419   0.00000  Uiso   1.00
N180   N     0.78511   0.25355   0.24915   0.00000  Uiso   1.00
N181   N     0.21508   0.25334   0.24909   0.00000  Uiso   1.00
N182   N     0.50007   0.85696   0.62085   0.00000  Uiso   1.00
N183   N     0.78511   0.13975   0.37581   0.00000  Uiso   1.00
N184   N     0.21508   0.13954   0.37575   0.00000  Uiso   1.00
