data_job_05902
_audit_creation_date              2018-12-19
_audit_creation_method            'Materials Studio'
_symmetry_space_group_name_H-M    'P1'
_symmetry_Int_Tables_number       1
_symmetry_cell_setting            triclinic
loop_
_symmetry_equiv_pos_as_xyz
  x,y,z
_cell_length_a                    20.5427
_cell_length_b                    16.7565
_cell_length_c                    15.8116
_cell_angle_alpha                 90.0000
_cell_angle_beta                  82.9248
_cell_angle_gamma                 90.0000
loop_
_atom_site_label
_atom_site_type_symbol
_atom_site_fract_x
_atom_site_fract_y
_atom_site_fract_z
_atom_site_U_iso_or_equiv
_atom_site_adp_type
_atom_site_occupancy
C1     C     0.16342   0.35869   0.14167   0.00000  Uiso   1.00
C2     C     0.13130   0.42565   0.19730   0.00000  Uiso   1.00
C3     C     0.10172   0.41762   0.28063   0.00000  Uiso   1.00
C4     C     0.07515   0.48606   0.32060   0.00000  Uiso   1.00
C5     C     0.02479   0.57881   0.41335   0.00000  Uiso   1.00
C6     C     0.12909   0.35766   0.06149   0.00000  Uiso   1.00
C7     C     0.09766   0.29246   0.03062   0.00000  Uiso   1.00
C8     C     0.06923   0.30366   0.95626   0.00000  Uiso   1.00
C9     C     0.01548   0.29084   0.83812   0.00000  Uiso   1.00
C10    C     0.23358   0.38582   0.11333   0.00000  Uiso   1.00
C11    C     0.29001   0.34428   0.12602   0.00000  Uiso   1.00
C12    C     0.34956   0.37917   0.09529   0.00000  Uiso   1.00
C13    C     0.45804   0.41007   0.05764   0.00000  Uiso   1.00
C14    C     0.16882   0.49451   0.06449   0.00000  Uiso   1.00
C15    C     0.13423   0.49942   0.15538   0.00000  Uiso   1.00
C16    C     0.10769   0.56789   0.19524   0.00000  Uiso   1.00
C17    C     0.07808   0.55996   0.27861   0.00000  Uiso   1.00
C18    C     0.13202   0.43143   0.01957   0.00000  Uiso   1.00
C19    C     0.10363   0.44273   0.94523   0.00000  Uiso   1.00
C20    C     0.07217   0.37757   0.91426   0.00000  Uiso   1.00
C21    C     0.23651   0.45959   0.07141   0.00000  Uiso   1.00
C22    C     0.29598   0.49455   0.04064   0.00000  Uiso   1.00
C23    C     0.35249   0.45308   0.05329   0.00000  Uiso   1.00
H24    H     0.16114   0.30125   0.17430   0.00000  Uiso   1.00
H25    H     0.09946   0.36052   0.31304   0.00000  Uiso   1.00
H26    H     0.09541   0.23538   0.06307   0.00000  Uiso   1.00
H27    H     0.28772   0.28719   0.15846   0.00000  Uiso   1.00
H28    H     0.03235   0.45876   0.44837   0.00000  Uiso   1.00
H29    H     0.02382   0.19489   0.92127   0.00000  Uiso   1.00
H30    H     0.42936   0.30414   0.12242   0.00000  Uiso   1.00
H31    H     0.17110   0.55194   0.03185   0.00000  Uiso   1.00
H32    H     0.10997   0.62497   0.16278   0.00000  Uiso   1.00
H33    H     0.10591   0.49983   0.91281   0.00000  Uiso   1.00
H34    H     0.29823   0.55164   0.00820   0.00000  Uiso   1.00
H35    H     0.04087   0.67340   0.32641   0.00000  Uiso   1.00
H36    H     0.03235   0.40952   0.79931   0.00000  Uiso   1.00
H37    H     0.43788   0.51878   0.00047   0.00000  Uiso   1.00
O38    O     0.99620   0.60959   0.47608   0.00000  Uiso   1.00
O39    O     0.98502   0.26339   0.78454   0.00000  Uiso   1.00
O40    O     0.51707   0.40673   0.04846   0.00000  Uiso   1.00
N41    N     0.04276   0.49925   0.40170   0.00000  Uiso   1.00
N42    N     0.03477   0.25255   0.90891   0.00000  Uiso   1.00
N43    N     0.41392   0.35468   0.09695   0.00000  Uiso   1.00
N44    N     0.04734   0.61475   0.33608   0.00000  Uiso   1.00
N45    N     0.03936   0.36805   0.84328   0.00000  Uiso   1.00
N46    N     0.41851   0.47018   0.03132   0.00000  Uiso   1.00
C47    C     0.83658   0.85869   0.35833   0.00000  Uiso   1.00
C48    C     0.86870   0.92565   0.30270   0.00000  Uiso   1.00
C49    C     0.89828   0.91762   0.21937   0.00000  Uiso   1.00
C50    C     0.92485   0.98606   0.17940   0.00000  Uiso   1.00
C51    C     0.97521   0.07881   0.08665   0.00000  Uiso   1.00
C52    C     0.87091   0.85766   0.43851   0.00000  Uiso   1.00
C53    C     0.90234   0.79246   0.46938   0.00000  Uiso   1.00
C54    C     0.93077   0.80366   0.54374   0.00000  Uiso   1.00
C55    C     0.98452   0.79084   0.66188   0.00000  Uiso   1.00
C56    C     0.76642   0.88582   0.38667   0.00000  Uiso   1.00
C57    C     0.70999   0.84428   0.37398   0.00000  Uiso   1.00
C58    C     0.65044   0.87917   0.40471   0.00000  Uiso   1.00
C59    C     0.54196   0.91007   0.44236   0.00000  Uiso   1.00
C60    C     0.83118   0.99451   0.43551   0.00000  Uiso   1.00
C61    C     0.86577   0.99942   0.34462   0.00000  Uiso   1.00
C62    C     0.89231   0.06789   0.30476   0.00000  Uiso   1.00
C63    C     0.92192   0.05996   0.22139   0.00000  Uiso   1.00
C64    C     0.86798   0.93143   0.48043   0.00000  Uiso   1.00
C65    C     0.89637   0.94273   0.55477   0.00000  Uiso   1.00
C66    C     0.92783   0.87757   0.58574   0.00000  Uiso   1.00
C67    C     0.76349   0.95959   0.42859   0.00000  Uiso   1.00
C68    C     0.70402   0.99455   0.45936   0.00000  Uiso   1.00
C69    C     0.64751   0.95308   0.44671   0.00000  Uiso   1.00
H70    H     0.83886   0.80125   0.32570   0.00000  Uiso   1.00
H71    H     0.90054   0.86052   0.18696   0.00000  Uiso   1.00
H72    H     0.90459   0.73538   0.43693   0.00000  Uiso   1.00
H73    H     0.71228   0.78719   0.34154   0.00000  Uiso   1.00
H74    H     0.96765   0.95876   0.05163   0.00000  Uiso   1.00
H75    H     0.97618   0.69489   0.57873   0.00000  Uiso   1.00
H76    H     0.57064   0.80414   0.37758   0.00000  Uiso   1.00
H77    H     0.82890   0.05194   0.46815   0.00000  Uiso   1.00
H78    H     0.89003   0.12497   0.33722   0.00000  Uiso   1.00
H79    H     0.89409   0.99983   0.58719   0.00000  Uiso   1.00
H80    H     0.70177   0.05164   0.49180   0.00000  Uiso   1.00
H81    H     0.95913   0.17340   0.17359   0.00000  Uiso   1.00
H82    H     0.96765   0.90952   0.70069   0.00000  Uiso   1.00
H83    H     0.56212   0.01878   0.49953   0.00000  Uiso   1.00
O84    O     0.00380   0.10959   0.02392   0.00000  Uiso   1.00
O85    O     0.01498   0.76339   0.71546   0.00000  Uiso   1.00
O86    O     0.48293   0.90673   0.45154   0.00000  Uiso   1.00
N87    N     0.95724   0.99925   0.09830   0.00000  Uiso   1.00
N88    N     0.96523   0.75255   0.59109   0.00000  Uiso   1.00
N89    N     0.58608   0.85468   0.40305   0.00000  Uiso   1.00
N90    N     0.95266   0.11475   0.16392   0.00000  Uiso   1.00
N91    N     0.96064   0.86805   0.65672   0.00000  Uiso   1.00
N92    N     0.58149   0.97018   0.46868   0.00000  Uiso   1.00
C93    C     0.83658   0.64131   0.85833   0.00000  Uiso   1.00
C94    C     0.86870   0.57435   0.80270   0.00000  Uiso   1.00
C95    C     0.89828   0.58238   0.71937   0.00000  Uiso   1.00
C96    C     0.92485   0.51394   0.67940   0.00000  Uiso   1.00
C97    C     0.97521   0.42119   0.58665   0.00000  Uiso   1.00
C98    C     0.87091   0.64234   0.93851   0.00000  Uiso   1.00
C99    C     0.90234   0.70754   0.96938   0.00000  Uiso   1.00
C100   C     0.93077   0.69634   0.04374   0.00000  Uiso   1.00
C101   C     0.98452   0.70916   0.16188   0.00000  Uiso   1.00
C102   C     0.76642   0.61418   0.88667   0.00000  Uiso   1.00
C103   C     0.70999   0.65572   0.87398   0.00000  Uiso   1.00
C104   C     0.65044   0.62083   0.90471   0.00000  Uiso   1.00
C105   C     0.54196   0.58993   0.94236   0.00000  Uiso   1.00
C106   C     0.83118   0.50549   0.93551   0.00000  Uiso   1.00
C107   C     0.86577   0.50058   0.84462   0.00000  Uiso   1.00
C108   C     0.89231   0.43211   0.80476   0.00000  Uiso   1.00
C109   C     0.92192   0.44004   0.72139   0.00000  Uiso   1.00
C110   C     0.86798   0.56857   0.98043   0.00000  Uiso   1.00
C111   C     0.89637   0.55727   0.05477   0.00000  Uiso   1.00
C112   C     0.92783   0.62243   0.08574   0.00000  Uiso   1.00
C113   C     0.76349   0.54041   0.92859   0.00000  Uiso   1.00
C114   C     0.70402   0.50545   0.95936   0.00000  Uiso   1.00
C115   C     0.64751   0.54692   0.94671   0.00000  Uiso   1.00
H116   H     0.83886   0.69875   0.82570   0.00000  Uiso   1.00
H117   H     0.90054   0.63948   0.68696   0.00000  Uiso   1.00
H118   H     0.90459   0.76462   0.93693   0.00000  Uiso   1.00
H119   H     0.71228   0.71281   0.84154   0.00000  Uiso   1.00
H120   H     0.96765   0.54124   0.55163   0.00000  Uiso   1.00
H121   H     0.97618   0.80511   0.07873   0.00000  Uiso   1.00
H122   H     0.57064   0.69586   0.87758   0.00000  Uiso   1.00
H123   H     0.82890   0.44806   0.96815   0.00000  Uiso   1.00
H124   H     0.89003   0.37503   0.83722   0.00000  Uiso   1.00
H125   H     0.89409   0.50017   0.08719   0.00000  Uiso   1.00
H126   H     0.70177   0.44836   0.99180   0.00000  Uiso   1.00
H127   H     0.95913   0.32660   0.67359   0.00000  Uiso   1.00
H128   H     0.96765   0.59048   0.20069   0.00000  Uiso   1.00
H129   H     0.56212   0.48122   0.99953   0.00000  Uiso   1.00
O130   O     0.00380   0.39041   0.52392   0.00000  Uiso   1.00
O131   O     0.01498   0.73661   0.21546   0.00000  Uiso   1.00
O132   O     0.48293   0.59327   0.95154   0.00000  Uiso   1.00
N133   N     0.95724   0.50075   0.59830   0.00000  Uiso   1.00
N134   N     0.96523   0.74745   0.09109   0.00000  Uiso   1.00
N135   N     0.58608   0.64532   0.90305   0.00000  Uiso   1.00
N136   N     0.95266   0.38525   0.66392   0.00000  Uiso   1.00
N137   N     0.96064   0.63195   0.15672   0.00000  Uiso   1.00
N138   N     0.58149   0.52982   0.96868   0.00000  Uiso   1.00
C139   C     0.16342   0.14131   0.64167   0.00000  Uiso   1.00
C140   C     0.13130   0.07435   0.69730   0.00000  Uiso   1.00
C141   C     0.10172   0.08238   0.78063   0.00000  Uiso   1.00
C142   C     0.07515   0.01394   0.82060   0.00000  Uiso   1.00
C143   C     0.02479   0.92119   0.91335   0.00000  Uiso   1.00
C144   C     0.12909   0.14234   0.56149   0.00000  Uiso   1.00
C145   C     0.09766   0.20754   0.53062   0.00000  Uiso   1.00
C146   C     0.06923   0.19634   0.45626   0.00000  Uiso   1.00
C147   C     0.01548   0.20916   0.33812   0.00000  Uiso   1.00
C148   C     0.23358   0.11418   0.61333   0.00000  Uiso   1.00
C149   C     0.29001   0.15572   0.62602   0.00000  Uiso   1.00
C150   C     0.34956   0.12083   0.59529   0.00000  Uiso   1.00
C151   C     0.45804   0.08993   0.55764   0.00000  Uiso   1.00
C152   C     0.16882   0.00549   0.56449   0.00000  Uiso   1.00
C153   C     0.13423   0.00058   0.65538   0.00000  Uiso   1.00
C154   C     0.10769   0.93211   0.69524   0.00000  Uiso   1.00
C155   C     0.07808   0.94004   0.77861   0.00000  Uiso   1.00
C156   C     0.13202   0.06857   0.51957   0.00000  Uiso   1.00
C157   C     0.10363   0.05727   0.44523   0.00000  Uiso   1.00
C158   C     0.07217   0.12243   0.41426   0.00000  Uiso   1.00
C159   C     0.23651   0.04041   0.57141   0.00000  Uiso   1.00
C160   C     0.29598   0.00545   0.54064   0.00000  Uiso   1.00
C161   C     0.35249   0.04692   0.55329   0.00000  Uiso   1.00
H162   H     0.16114   0.19875   0.67430   0.00000  Uiso   1.00
H163   H     0.09946   0.13948   0.81304   0.00000  Uiso   1.00
H164   H     0.09541   0.26462   0.56307   0.00000  Uiso   1.00
H165   H     0.28772   0.21281   0.65846   0.00000  Uiso   1.00
H166   H     0.03235   0.04124   0.94837   0.00000  Uiso   1.00
H167   H     0.02382   0.30511   0.42127   0.00000  Uiso   1.00
H168   H     0.42936   0.19586   0.62242   0.00000  Uiso   1.00
H169   H     0.17110   0.94806   0.53185   0.00000  Uiso   1.00
H170   H     0.10997   0.87503   0.66278   0.00000  Uiso   1.00
H171   H     0.10591   0.00017   0.41281   0.00000  Uiso   1.00
H172   H     0.29823   0.94836   0.50820   0.00000  Uiso   1.00
H173   H     0.04087   0.82660   0.82641   0.00000  Uiso   1.00
H174   H     0.03235   0.09048   0.29931   0.00000  Uiso   1.00
H175   H     0.43788   0.98122   0.50047   0.00000  Uiso   1.00
O176   O     0.99620   0.89041   0.97608   0.00000  Uiso   1.00
O177   O     0.98502   0.23661   0.28454   0.00000  Uiso   1.00
O178   O     0.51707   0.09327   0.54846   0.00000  Uiso   1.00
N179   N     0.04276   0.00075   0.90170   0.00000  Uiso   1.00
N180   N     0.03477   0.24745   0.40891   0.00000  Uiso   1.00
N181   N     0.41392   0.14532   0.59695   0.00000  Uiso   1.00
N182   N     0.04734   0.88525   0.83608   0.00000  Uiso   1.00
N183   N     0.03936   0.13195   0.34328   0.00000  Uiso   1.00
N184   N     0.41851   0.02982   0.53132   0.00000  Uiso   1.00
