data_job_03982
_audit_creation_date              2018-12-19
_audit_creation_method            'Materials Studio'
_symmetry_space_group_name_H-M    'P1'
_symmetry_Int_Tables_number       1
_symmetry_cell_setting            triclinic
loop_
_symmetry_equiv_pos_as_xyz
  x,y,z
_cell_length_a                    15.8620
_cell_length_b                    16.6697
_cell_length_c                    18.6786
_cell_angle_alpha                 90.0000
_cell_angle_beta                  90.0000
_cell_angle_gamma                 90.0000
loop_
_atom_site_label
_atom_site_type_symbol
_atom_site_fract_x
_atom_site_fract_y
_atom_site_fract_z
_atom_site_U_iso_or_equiv
_atom_site_adp_type
_atom_site_occupancy
C1     C     0.59593   0.68681   0.42266   0.00000  Uiso   1.00
C2     C     0.62406   0.62377   0.47679   0.00000  Uiso   1.00
C3     C     0.59555   0.54515   0.47999   0.00000  Uiso   1.00
C4     C     0.62899   0.49689   0.53350   0.00000  Uiso   1.00
C5     C     0.66354   0.39455   0.61018   0.00000  Uiso   1.00
C6     C     0.56315   0.75744   0.46644   0.00000  Uiso   1.00
C7     C     0.48343   0.79120   0.46094   0.00000  Uiso   1.00
C8     C     0.46561   0.85547   0.50574   0.00000  Uiso   1.00
C9     C     0.40562   0.96068   0.56633   0.00000  Uiso   1.00
C10    C     0.67602   0.71630   0.38597   0.00000  Uiso   1.00
C11    C     0.69121   0.71550   0.31280   0.00000  Uiso   1.00
C12    C     0.76842   0.74515   0.28985   0.00000  Uiso   1.00
C13    C     0.88368   0.78649   0.22550   0.00000  Uiso   1.00
C14    C     0.70602   0.74092   0.51200   0.00000  Uiso   1.00
C15    C     0.68385   0.65316   0.52531   0.00000  Uiso   1.00
C16    C     0.71735   0.60501   0.57883   0.00000  Uiso   1.00
C17    C     0.68890   0.52632   0.58211   0.00000  Uiso   1.00
C18    C     0.62294   0.78683   0.51497   0.00000  Uiso   1.00
C19    C     0.60524   0.85106   0.55978   0.00000  Uiso   1.00
C20    C     0.52552   0.88491   0.55435   0.00000  Uiso   1.00
C21    C     0.73582   0.74569   0.43450   0.00000  Uiso   1.00
C22    C     0.81302   0.77535   0.41165   0.00000  Uiso   1.00
C23    C     0.82832   0.77459   0.33846   0.00000  Uiso   1.00
H24    H     0.54937   0.66393   0.38488   0.00000  Uiso   1.00
H25    H     0.54926   0.52243   0.44243   0.00000  Uiso   1.00
H26    H     0.43717   0.76845   0.42338   0.00000  Uiso   1.00
H27    H     0.64492   0.69275   0.27527   0.00000  Uiso   1.00
H28    H     0.57549   0.37851   0.52764   0.00000  Uiso   1.00
H29    H     0.33915   0.89728   0.48746   0.00000  Uiso   1.00
H30    H     0.77723   0.73765   0.17514   0.00000  Uiso   1.00
H31    H     0.75258   0.76380   0.54978   0.00000  Uiso   1.00
H32    H     0.76363   0.62777   0.61637   0.00000  Uiso   1.00
H33    H     0.65153   0.87379   0.59732   0.00000  Uiso   1.00
H34    H     0.85928   0.79809   0.44922   0.00000  Uiso   1.00
H35    H     0.74947   0.46401   0.66883   0.00000  Uiso   1.00
H36    H     0.51313   0.98278   0.62864   0.00000  Uiso   1.00
H37    H     0.95121   0.82315   0.31633   0.00000  Uiso   1.00
O38    O     0.66606   0.32998   0.63908   0.00000  Uiso   1.00
O39    O     0.35600   0.01059   0.58635   0.00000  Uiso   1.00
O40    O     0.93074   0.80116   0.17660   0.00000  Uiso   1.00
N41    N     0.61494   0.41730   0.55172   0.00000  Uiso   1.00
N42    N     0.39397   0.90230   0.51416   0.00000  Uiso   1.00
N43    N     0.80352   0.75309   0.22217   0.00000  Uiso   1.00
N44    N     0.70856   0.46330   0.62769   0.00000  Uiso   1.00
N45    N     0.48758   0.94831   0.59013   0.00000  Uiso   1.00
N46    N     0.89714   0.79909   0.29814   0.00000  Uiso   1.00
C47    C     0.90407   0.81319   0.92266   0.00000  Uiso   1.00
C48    C     0.87594   0.87623   0.97679   0.00000  Uiso   1.00
C49    C     0.90445   0.95485   0.97999   0.00000  Uiso   1.00
C50    C     0.87101   0.00311   0.03350   0.00000  Uiso   1.00
C51    C     0.83646   0.10545   0.11018   0.00000  Uiso   1.00
C52    C     0.93685   0.74256   0.96644   0.00000  Uiso   1.00
C53    C     0.01657   0.70880   0.96094   0.00000  Uiso   1.00
C54    C     0.03439   0.64453   0.00574   0.00000  Uiso   1.00
C55    C     0.09438   0.53932   0.06633   0.00000  Uiso   1.00
C56    C     0.82398   0.78370   0.88597   0.00000  Uiso   1.00
C57    C     0.80879   0.78450   0.81280   0.00000  Uiso   1.00
C58    C     0.73158   0.75485   0.78985   0.00000  Uiso   1.00
C59    C     0.61632   0.71351   0.72550   0.00000  Uiso   1.00
C60    C     0.79398   0.75908   0.01200   0.00000  Uiso   1.00
C61    C     0.81615   0.84684   0.02531   0.00000  Uiso   1.00
C62    C     0.78265   0.89499   0.07883   0.00000  Uiso   1.00
C63    C     0.81110   0.97368   0.08211   0.00000  Uiso   1.00
C64    C     0.87706   0.71317   0.01497   0.00000  Uiso   1.00
C65    C     0.89476   0.64894   0.05978   0.00000  Uiso   1.00
C66    C     0.97448   0.61509   0.05435   0.00000  Uiso   1.00
C67    C     0.76418   0.75431   0.93450   0.00000  Uiso   1.00
C68    C     0.68698   0.72465   0.91165   0.00000  Uiso   1.00
C69    C     0.67168   0.72541   0.83846   0.00000  Uiso   1.00
H70    H     0.95063   0.83607   0.88488   0.00000  Uiso   1.00
H71    H     0.95074   0.97757   0.94243   0.00000  Uiso   1.00
H72    H     0.06283   0.73155   0.92338   0.00000  Uiso   1.00
H73    H     0.85508   0.80725   0.77527   0.00000  Uiso   1.00
H74    H     0.92451   0.12149   0.02764   0.00000  Uiso   1.00
H75    H     0.16085   0.60272   0.98746   0.00000  Uiso   1.00
H76    H     0.72277   0.76235   0.67514   0.00000  Uiso   1.00
H77    H     0.74742   0.73620   0.04978   0.00000  Uiso   1.00
H78    H     0.73637   0.87223   0.11637   0.00000  Uiso   1.00
H79    H     0.84847   0.62621   0.09732   0.00000  Uiso   1.00
H80    H     0.64072   0.70191   0.94922   0.00000  Uiso   1.00
H81    H     0.75053   0.03599   0.16883   0.00000  Uiso   1.00
H82    H     0.98687   0.51722   0.12864   0.00000  Uiso   1.00
H83    H     0.54879   0.67685   0.81633   0.00000  Uiso   1.00
O84    O     0.83394   0.17002   0.13908   0.00000  Uiso   1.00
O85    O     0.14400   0.48941   0.08635   0.00000  Uiso   1.00
O86    O     0.56926   0.69884   0.67660   0.00000  Uiso   1.00
N87    N     0.88506   0.08270   0.05172   0.00000  Uiso   1.00
N88    N     0.10603   0.59770   0.01416   0.00000  Uiso   1.00
N89    N     0.69648   0.74691   0.72217   0.00000  Uiso   1.00
N90    N     0.79144   0.03670   0.12769   0.00000  Uiso   1.00
N91    N     0.01242   0.55169   0.09013   0.00000  Uiso   1.00
N92    N     0.60286   0.70091   0.79814   0.00000  Uiso   1.00
C93    C     0.40407   0.68681   0.07734   0.00000  Uiso   1.00
C94    C     0.37594   0.62377   0.02321   0.00000  Uiso   1.00
C95    C     0.40445   0.54515   0.02001   0.00000  Uiso   1.00
C96    C     0.37101   0.49689   0.96650   0.00000  Uiso   1.00
C97    C     0.33646   0.39455   0.88982   0.00000  Uiso   1.00
C98    C     0.43685   0.75744   0.03356   0.00000  Uiso   1.00
C99    C     0.51657   0.79120   0.03906   0.00000  Uiso   1.00
C100   C     0.53439   0.85547   0.99426   0.00000  Uiso   1.00
C101   C     0.59438   0.96068   0.93367   0.00000  Uiso   1.00
C102   C     0.32398   0.71630   0.11403   0.00000  Uiso   1.00
C103   C     0.30879   0.71550   0.18720   0.00000  Uiso   1.00
C104   C     0.23158   0.74515   0.21015   0.00000  Uiso   1.00
C105   C     0.11632   0.78649   0.27450   0.00000  Uiso   1.00
C106   C     0.29398   0.74092   0.98800   0.00000  Uiso   1.00
C107   C     0.31615   0.65316   0.97469   0.00000  Uiso   1.00
C108   C     0.28265   0.60501   0.92117   0.00000  Uiso   1.00
C109   C     0.31110   0.52632   0.91789   0.00000  Uiso   1.00
C110   C     0.37706   0.78683   0.98503   0.00000  Uiso   1.00
C111   C     0.39476   0.85106   0.94022   0.00000  Uiso   1.00
C112   C     0.47448   0.88491   0.94565   0.00000  Uiso   1.00
C113   C     0.26418   0.74569   0.06550   0.00000  Uiso   1.00
C114   C     0.18698   0.77535   0.08835   0.00000  Uiso   1.00
C115   C     0.17168   0.77459   0.16154   0.00000  Uiso   1.00
H116   H     0.45063   0.66393   0.11512   0.00000  Uiso   1.00
H117   H     0.45074   0.52243   0.05757   0.00000  Uiso   1.00
H118   H     0.56283   0.76845   0.07662   0.00000  Uiso   1.00
H119   H     0.35508   0.69275   0.22473   0.00000  Uiso   1.00
H120   H     0.42451   0.37851   0.97236   0.00000  Uiso   1.00
H121   H     0.66085   0.89728   0.01254   0.00000  Uiso   1.00
H122   H     0.22277   0.73765   0.32486   0.00000  Uiso   1.00
H123   H     0.24742   0.76380   0.95022   0.00000  Uiso   1.00
H124   H     0.23637   0.62777   0.88363   0.00000  Uiso   1.00
H125   H     0.34847   0.87379   0.90268   0.00000  Uiso   1.00
H126   H     0.14072   0.79809   0.05078   0.00000  Uiso   1.00
H127   H     0.25053   0.46401   0.83117   0.00000  Uiso   1.00
H128   H     0.48687   0.98278   0.87136   0.00000  Uiso   1.00
H129   H     0.04879   0.82315   0.18367   0.00000  Uiso   1.00
O130   O     0.33394   0.32998   0.86092   0.00000  Uiso   1.00
O131   O     0.64400   0.01059   0.91365   0.00000  Uiso   1.00
O132   O     0.06926   0.80116   0.32340   0.00000  Uiso   1.00
N133   N     0.38506   0.41730   0.94828   0.00000  Uiso   1.00
N134   N     0.60603   0.90230   0.98584   0.00000  Uiso   1.00
N135   N     0.19648   0.75309   0.27783   0.00000  Uiso   1.00
N136   N     0.29144   0.46330   0.87231   0.00000  Uiso   1.00
N137   N     0.51242   0.94831   0.90987   0.00000  Uiso   1.00
N138   N     0.10286   0.79909   0.20186   0.00000  Uiso   1.00
C139   C     0.09593   0.81319   0.57734   0.00000  Uiso   1.00
C140   C     0.12406   0.87623   0.52321   0.00000  Uiso   1.00
C141   C     0.09555   0.95485   0.52001   0.00000  Uiso   1.00
C142   C     0.12899   0.00311   0.46650   0.00000  Uiso   1.00
C143   C     0.16354   0.10545   0.38982   0.00000  Uiso   1.00
C144   C     0.06315   0.74256   0.53356   0.00000  Uiso   1.00
C145   C     0.98343   0.70880   0.53906   0.00000  Uiso   1.00
C146   C     0.96561   0.64453   0.49426   0.00000  Uiso   1.00
C147   C     0.90562   0.53932   0.43367   0.00000  Uiso   1.00
C148   C     0.17602   0.78370   0.61403   0.00000  Uiso   1.00
C149   C     0.19121   0.78450   0.68720   0.00000  Uiso   1.00
C150   C     0.26842   0.75485   0.71015   0.00000  Uiso   1.00
C151   C     0.38368   0.71351   0.77450   0.00000  Uiso   1.00
C152   C     0.20602   0.75908   0.48800   0.00000  Uiso   1.00
C153   C     0.18385   0.84684   0.47469   0.00000  Uiso   1.00
C154   C     0.21735   0.89499   0.42117   0.00000  Uiso   1.00
C155   C     0.18890   0.97368   0.41789   0.00000  Uiso   1.00
C156   C     0.12294   0.71317   0.48503   0.00000  Uiso   1.00
C157   C     0.10524   0.64894   0.44022   0.00000  Uiso   1.00
C158   C     0.02552   0.61509   0.44565   0.00000  Uiso   1.00
C159   C     0.23582   0.75431   0.56550   0.00000  Uiso   1.00
C160   C     0.31302   0.72465   0.58835   0.00000  Uiso   1.00
C161   C     0.32832   0.72541   0.66154   0.00000  Uiso   1.00
H162   H     0.04937   0.83607   0.61512   0.00000  Uiso   1.00
H163   H     0.04926   0.97757   0.55757   0.00000  Uiso   1.00
H164   H     0.93717   0.73155   0.57662   0.00000  Uiso   1.00
H165   H     0.14492   0.80725   0.72473   0.00000  Uiso   1.00
H166   H     0.07549   0.12149   0.47236   0.00000  Uiso   1.00
H167   H     0.83915   0.60272   0.51254   0.00000  Uiso   1.00
H168   H     0.27723   0.76235   0.82486   0.00000  Uiso   1.00
H169   H     0.25258   0.73620   0.45022   0.00000  Uiso   1.00
H170   H     0.26363   0.87223   0.38363   0.00000  Uiso   1.00
H171   H     0.15153   0.62621   0.40268   0.00000  Uiso   1.00
H172   H     0.35928   0.70191   0.55078   0.00000  Uiso   1.00
H173   H     0.24947   0.03599   0.33117   0.00000  Uiso   1.00
H174   H     0.01313   0.51722   0.37136   0.00000  Uiso   1.00
H175   H     0.45121   0.67685   0.68367   0.00000  Uiso   1.00
O176   O     0.16606   0.17002   0.36092   0.00000  Uiso   1.00
O177   O     0.85600   0.48941   0.41365   0.00000  Uiso   1.00
O178   O     0.43074   0.69884   0.82340   0.00000  Uiso   1.00
N179   N     0.11494   0.08270   0.44828   0.00000  Uiso   1.00
N180   N     0.89397   0.59770   0.48584   0.00000  Uiso   1.00
N181   N     0.30352   0.74691   0.77783   0.00000  Uiso   1.00
N182   N     0.20856   0.03670   0.37231   0.00000  Uiso   1.00
N183   N     0.98758   0.55169   0.40987   0.00000  Uiso   1.00
N184   N     0.39714   0.70091   0.70186   0.00000  Uiso   1.00
C185   C     0.40407   0.31319   0.57734   0.00000  Uiso   1.00
C186   C     0.37594   0.37623   0.52321   0.00000  Uiso   1.00
C187   C     0.40445   0.45485   0.52001   0.00000  Uiso   1.00
C188   C     0.37101   0.50311   0.46650   0.00000  Uiso   1.00
C189   C     0.33646   0.60545   0.38982   0.00000  Uiso   1.00
C190   C     0.43685   0.24256   0.53356   0.00000  Uiso   1.00
C191   C     0.51657   0.20880   0.53906   0.00000  Uiso   1.00
C192   C     0.53439   0.14453   0.49426   0.00000  Uiso   1.00
C193   C     0.59438   0.03932   0.43367   0.00000  Uiso   1.00
C194   C     0.32398   0.28370   0.61403   0.00000  Uiso   1.00
C195   C     0.30879   0.28450   0.68720   0.00000  Uiso   1.00
C196   C     0.23158   0.25485   0.71015   0.00000  Uiso   1.00
C197   C     0.11632   0.21351   0.77450   0.00000  Uiso   1.00
C198   C     0.29398   0.25908   0.48800   0.00000  Uiso   1.00
C199   C     0.31615   0.34684   0.47469   0.00000  Uiso   1.00
C200   C     0.28265   0.39499   0.42117   0.00000  Uiso   1.00
C201   C     0.31110   0.47368   0.41789   0.00000  Uiso   1.00
C202   C     0.37706   0.21317   0.48503   0.00000  Uiso   1.00
C203   C     0.39476   0.14894   0.44022   0.00000  Uiso   1.00
C204   C     0.47448   0.11509   0.44565   0.00000  Uiso   1.00
C205   C     0.26418   0.25431   0.56550   0.00000  Uiso   1.00
C206   C     0.18698   0.22465   0.58835   0.00000  Uiso   1.00
C207   C     0.17168   0.22541   0.66154   0.00000  Uiso   1.00
H208   H     0.45063   0.33607   0.61512   0.00000  Uiso   1.00
H209   H     0.45074   0.47757   0.55757   0.00000  Uiso   1.00
H210   H     0.56283   0.23155   0.57662   0.00000  Uiso   1.00
H211   H     0.35508   0.30725   0.72473   0.00000  Uiso   1.00
H212   H     0.42451   0.62149   0.47236   0.00000  Uiso   1.00
H213   H     0.66085   0.10272   0.51254   0.00000  Uiso   1.00
H214   H     0.22277   0.26235   0.82486   0.00000  Uiso   1.00
H215   H     0.24742   0.23620   0.45022   0.00000  Uiso   1.00
H216   H     0.23637   0.37223   0.38363   0.00000  Uiso   1.00
H217   H     0.34847   0.12621   0.40268   0.00000  Uiso   1.00
H218   H     0.14072   0.20191   0.55078   0.00000  Uiso   1.00
H219   H     0.25053   0.53599   0.33117   0.00000  Uiso   1.00
H220   H     0.48687   0.01722   0.37136   0.00000  Uiso   1.00
H221   H     0.04879   0.17685   0.68367   0.00000  Uiso   1.00
O222   O     0.33394   0.67002   0.36092   0.00000  Uiso   1.00
O223   O     0.64400   0.98941   0.41365   0.00000  Uiso   1.00
O224   O     0.06926   0.19884   0.82340   0.00000  Uiso   1.00
N225   N     0.38506   0.58270   0.44828   0.00000  Uiso   1.00
N226   N     0.60603   0.09770   0.48584   0.00000  Uiso   1.00
N227   N     0.19648   0.24691   0.77783   0.00000  Uiso   1.00
N228   N     0.29144   0.53670   0.37231   0.00000  Uiso   1.00
N229   N     0.51242   0.05169   0.40987   0.00000  Uiso   1.00
N230   N     0.10286   0.20091   0.70186   0.00000  Uiso   1.00
C231   C     0.09593   0.18681   0.07734   0.00000  Uiso   1.00
C232   C     0.12406   0.12377   0.02321   0.00000  Uiso   1.00
C233   C     0.09555   0.04515   0.02001   0.00000  Uiso   1.00
C234   C     0.12899   0.99689   0.96650   0.00000  Uiso   1.00
C235   C     0.16354   0.89455   0.88982   0.00000  Uiso   1.00
C236   C     0.06315   0.25744   0.03356   0.00000  Uiso   1.00
C237   C     0.98343   0.29120   0.03906   0.00000  Uiso   1.00
C238   C     0.96561   0.35547   0.99426   0.00000  Uiso   1.00
C239   C     0.90562   0.46068   0.93367   0.00000  Uiso   1.00
C240   C     0.17602   0.21630   0.11403   0.00000  Uiso   1.00
C241   C     0.19121   0.21550   0.18720   0.00000  Uiso   1.00
C242   C     0.26842   0.24515   0.21015   0.00000  Uiso   1.00
C243   C     0.38368   0.28649   0.27450   0.00000  Uiso   1.00
C244   C     0.20602   0.24092   0.98800   0.00000  Uiso   1.00
C245   C     0.18385   0.15316   0.97469   0.00000  Uiso   1.00
C246   C     0.21735   0.10501   0.92117   0.00000  Uiso   1.00
C247   C     0.18890   0.02632   0.91789   0.00000  Uiso   1.00
C248   C     0.12294   0.28683   0.98503   0.00000  Uiso   1.00
C249   C     0.10524   0.35106   0.94022   0.00000  Uiso   1.00
C250   C     0.02552   0.38491   0.94565   0.00000  Uiso   1.00
C251   C     0.23582   0.24569   0.06550   0.00000  Uiso   1.00
C252   C     0.31302   0.27535   0.08835   0.00000  Uiso   1.00
C253   C     0.32832   0.27459   0.16154   0.00000  Uiso   1.00
H254   H     0.04937   0.16393   0.11512   0.00000  Uiso   1.00
H255   H     0.04926   0.02243   0.05757   0.00000  Uiso   1.00
H256   H     0.93717   0.26845   0.07662   0.00000  Uiso   1.00
H257   H     0.14492   0.19275   0.22473   0.00000  Uiso   1.00
H258   H     0.07549   0.87851   0.97236   0.00000  Uiso   1.00
H259   H     0.83915   0.39728   0.01254   0.00000  Uiso   1.00
H260   H     0.27723   0.23765   0.32486   0.00000  Uiso   1.00
H261   H     0.25258   0.26380   0.95022   0.00000  Uiso   1.00
H262   H     0.26363   0.12777   0.88363   0.00000  Uiso   1.00
H263   H     0.15153   0.37379   0.90268   0.00000  Uiso   1.00
H264   H     0.35928   0.29809   0.05078   0.00000  Uiso   1.00
H265   H     0.24947   0.96401   0.83117   0.00000  Uiso   1.00
H266   H     0.01313   0.48278   0.87136   0.00000  Uiso   1.00
H267   H     0.45121   0.32315   0.18367   0.00000  Uiso   1.00
O268   O     0.16606   0.82998   0.86092   0.00000  Uiso   1.00
O269   O     0.85600   0.51059   0.91365   0.00000  Uiso   1.00
O270   O     0.43074   0.30116   0.32340   0.00000  Uiso   1.00
N271   N     0.11494   0.91730   0.94828   0.00000  Uiso   1.00
N272   N     0.89397   0.40230   0.98584   0.00000  Uiso   1.00
N273   N     0.30352   0.25309   0.27783   0.00000  Uiso   1.00
N274   N     0.20856   0.96330   0.87231   0.00000  Uiso   1.00
N275   N     0.98758   0.44831   0.90987   0.00000  Uiso   1.00
N276   N     0.39714   0.29909   0.20186   0.00000  Uiso   1.00
C277   C     0.59593   0.31319   0.92266   0.00000  Uiso   1.00
C278   C     0.62406   0.37623   0.97679   0.00000  Uiso   1.00
C279   C     0.59555   0.45485   0.97999   0.00000  Uiso   1.00
C280   C     0.62899   0.50311   0.03350   0.00000  Uiso   1.00
C281   C     0.66354   0.60545   0.11018   0.00000  Uiso   1.00
C282   C     0.56315   0.24256   0.96644   0.00000  Uiso   1.00
C283   C     0.48343   0.20880   0.96094   0.00000  Uiso   1.00
C284   C     0.46561   0.14453   0.00574   0.00000  Uiso   1.00
C285   C     0.40562   0.03932   0.06633   0.00000  Uiso   1.00
C286   C     0.67602   0.28370   0.88597   0.00000  Uiso   1.00
C287   C     0.69121   0.28450   0.81280   0.00000  Uiso   1.00
C288   C     0.76842   0.25485   0.78985   0.00000  Uiso   1.00
C289   C     0.88368   0.21351   0.72550   0.00000  Uiso   1.00
C290   C     0.70602   0.25908   0.01200   0.00000  Uiso   1.00
C291   C     0.68385   0.34684   0.02531   0.00000  Uiso   1.00
C292   C     0.71735   0.39499   0.07883   0.00000  Uiso   1.00
C293   C     0.68890   0.47368   0.08211   0.00000  Uiso   1.00
C294   C     0.62294   0.21317   0.01497   0.00000  Uiso   1.00
C295   C     0.60524   0.14894   0.05978   0.00000  Uiso   1.00
C296   C     0.52552   0.11509   0.05435   0.00000  Uiso   1.00
C297   C     0.73582   0.25431   0.93450   0.00000  Uiso   1.00
C298   C     0.81302   0.22465   0.91165   0.00000  Uiso   1.00
C299   C     0.82832   0.22541   0.83846   0.00000  Uiso   1.00
H300   H     0.54937   0.33607   0.88488   0.00000  Uiso   1.00
H301   H     0.54926   0.47757   0.94243   0.00000  Uiso   1.00
H302   H     0.43717   0.23155   0.92338   0.00000  Uiso   1.00
H303   H     0.64492   0.30725   0.77527   0.00000  Uiso   1.00
H304   H     0.57549   0.62149   0.02764   0.00000  Uiso   1.00
H305   H     0.33915   0.10272   0.98746   0.00000  Uiso   1.00
H306   H     0.77723   0.26235   0.67514   0.00000  Uiso   1.00
H307   H     0.75258   0.23620   0.04978   0.00000  Uiso   1.00
H308   H     0.76363   0.37223   0.11637   0.00000  Uiso   1.00
H309   H     0.65153   0.12621   0.09732   0.00000  Uiso   1.00
H310   H     0.85928   0.20191   0.94922   0.00000  Uiso   1.00
H311   H     0.74947   0.53599   0.16883   0.00000  Uiso   1.00
H312   H     0.51313   0.01722   0.12864   0.00000  Uiso   1.00
H313   H     0.95121   0.17685   0.81633   0.00000  Uiso   1.00
O314   O     0.66606   0.67002   0.13908   0.00000  Uiso   1.00
O315   O     0.35600   0.98941   0.08635   0.00000  Uiso   1.00
O316   O     0.93074   0.19884   0.67660   0.00000  Uiso   1.00
N317   N     0.61494   0.58270   0.05172   0.00000  Uiso   1.00
N318   N     0.39397   0.09770   0.01416   0.00000  Uiso   1.00
N319   N     0.80352   0.24691   0.72217   0.00000  Uiso   1.00
N320   N     0.70856   0.53670   0.12769   0.00000  Uiso   1.00
N321   N     0.48758   0.05169   0.09013   0.00000  Uiso   1.00
N322   N     0.89714   0.20091   0.79814   0.00000  Uiso   1.00
C323   C     0.90407   0.18681   0.42266   0.00000  Uiso   1.00
C324   C     0.87594   0.12377   0.47679   0.00000  Uiso   1.00
C325   C     0.90445   0.04515   0.47999   0.00000  Uiso   1.00
C326   C     0.87101   0.99689   0.53350   0.00000  Uiso   1.00
C327   C     0.83646   0.89455   0.61018   0.00000  Uiso   1.00
C328   C     0.93685   0.25744   0.46644   0.00000  Uiso   1.00
C329   C     0.01657   0.29120   0.46094   0.00000  Uiso   1.00
C330   C     0.03439   0.35547   0.50574   0.00000  Uiso   1.00
C331   C     0.09438   0.46068   0.56633   0.00000  Uiso   1.00
C332   C     0.82398   0.21630   0.38597   0.00000  Uiso   1.00
C333   C     0.80879   0.21550   0.31280   0.00000  Uiso   1.00
C334   C     0.73158   0.24515   0.28985   0.00000  Uiso   1.00
C335   C     0.61632   0.28649   0.22550   0.00000  Uiso   1.00
C336   C     0.79398   0.24092   0.51200   0.00000  Uiso   1.00
C337   C     0.81615   0.15316   0.52531   0.00000  Uiso   1.00
C338   C     0.78265   0.10501   0.57883   0.00000  Uiso   1.00
C339   C     0.81110   0.02632   0.58211   0.00000  Uiso   1.00
C340   C     0.87706   0.28683   0.51497   0.00000  Uiso   1.00
C341   C     0.89476   0.35106   0.55978   0.00000  Uiso   1.00
C342   C     0.97448   0.38491   0.55435   0.00000  Uiso   1.00
C343   C     0.76418   0.24569   0.43450   0.00000  Uiso   1.00
C344   C     0.68698   0.27535   0.41165   0.00000  Uiso   1.00
C345   C     0.67168   0.27459   0.33846   0.00000  Uiso   1.00
H346   H     0.95063   0.16393   0.38488   0.00000  Uiso   1.00
H347   H     0.95074   0.02243   0.44243   0.00000  Uiso   1.00
H348   H     0.06283   0.26845   0.42338   0.00000  Uiso   1.00
H349   H     0.85508   0.19275   0.27527   0.00000  Uiso   1.00
H350   H     0.92451   0.87851   0.52764   0.00000  Uiso   1.00
H351   H     0.16085   0.39728   0.48746   0.00000  Uiso   1.00
H352   H     0.72277   0.23765   0.17514   0.00000  Uiso   1.00
H353   H     0.74742   0.26380   0.54978   0.00000  Uiso   1.00
H354   H     0.73637   0.12777   0.61637   0.00000  Uiso   1.00
H355   H     0.84847   0.37379   0.59732   0.00000  Uiso   1.00
H356   H     0.64072   0.29809   0.44922   0.00000  Uiso   1.00
H357   H     0.75053   0.96401   0.66883   0.00000  Uiso   1.00
H358   H     0.98687   0.48278   0.62864   0.00000  Uiso   1.00
H359   H     0.54879   0.32315   0.31633   0.00000  Uiso   1.00
O360   O     0.83394   0.82998   0.63908   0.00000  Uiso   1.00
O361   O     0.14400   0.51059   0.58635   0.00000  Uiso   1.00
O362   O     0.56926   0.30116   0.17660   0.00000  Uiso   1.00
N363   N     0.88506   0.91730   0.55172   0.00000  Uiso   1.00
N364   N     0.10603   0.40230   0.51416   0.00000  Uiso   1.00
N365   N     0.69648   0.25309   0.22217   0.00000  Uiso   1.00
N366   N     0.79144   0.96330   0.62769   0.00000  Uiso   1.00
N367   N     0.01242   0.44831   0.59013   0.00000  Uiso   1.00
N368   N     0.60286   0.29909   0.29814   0.00000  Uiso   1.00
