data_job_06098
_audit_creation_date              2018-12-19
_audit_creation_method            'Materials Studio'
_symmetry_space_group_name_H-M    'P1'
_symmetry_Int_Tables_number       1
_symmetry_cell_setting            triclinic
loop_
_symmetry_equiv_pos_as_xyz
  x,y,z
_cell_length_a                    15.3117
_cell_length_b                    14.8330
_cell_length_c                    14.5920
_cell_angle_alpha                 93.2293
_cell_angle_beta                  93.1839
_cell_angle_gamma                 93.6936
loop_
_atom_site_label
_atom_site_type_symbol
_atom_site_fract_x
_atom_site_fract_y
_atom_site_fract_z
_atom_site_U_iso_or_equiv
_atom_site_adp_type
_atom_site_occupancy
C1     C     0.65670   0.01876   0.28984   0.00000  Uiso   1.00
C2     C     0.66006   0.97178   0.38015   0.00000  Uiso   1.00
C3     C     0.58803   0.94050   0.42581   0.00000  Uiso   1.00
C4     C     0.60489   0.89942   0.50752   0.00000  Uiso   1.00
C5     C     0.59705   0.82794   0.64249   0.00000  Uiso   1.00
C6     C     0.70919   0.10940   0.30909   0.00000  Uiso   1.00
C7     C     0.67847   0.19383   0.29498   0.00000  Uiso   1.00
C8     C     0.73669   0.26859   0.31686   0.00000  Uiso   1.00
C9     C     0.80515   0.41077   0.34144   0.00000  Uiso   1.00
C10    C     0.70915   0.96323   0.22411   0.00000  Uiso   1.00
C11    C     0.67840   0.92478   0.13853   0.00000  Uiso   1.00
C12    C     0.73660   0.87651   0.08885   0.00000  Uiso   1.00
C13    C     0.80498   0.79174   0.98147   0.00000  Uiso   1.00
C14    C     0.81473   0.00142   0.35377   0.00000  Uiso   1.00
C15    C     0.74590   0.96236   0.41488   0.00000  Uiso   1.00
C16    C     0.76287   0.92132   0.49654   0.00000  Uiso   1.00
C17    C     0.69088   0.88998   0.54231   0.00000  Uiso   1.00
C18    C     0.79502   0.09998   0.34381   0.00000  Uiso   1.00
C19    C     0.85331   0.17464   0.36571   0.00000  Uiso   1.00
C20    C     0.82268   0.25916   0.35165   0.00000  Uiso   1.00
C21    C     0.79498   0.95381   0.25883   0.00000  Uiso   1.00
C22    C     0.85324   0.90559   0.20926   0.00000  Uiso   1.00
C23    C     0.82259   0.86707   0.12363   0.00000  Uiso   1.00
H24    H     0.58988   0.02610   0.26281   0.00000  Uiso   1.00
H25    H     0.52162   0.94781   0.39892   0.00000  Uiso   1.00
H26    H     0.61204   0.20109   0.26810   0.00000  Uiso   1.00
H27    H     0.61197   0.93209   0.11168   0.00000  Uiso   1.00
H28    H     0.48379   0.85689   0.56515   0.00000  Uiso   1.00
H29    H     0.67447   0.39095   0.28929   0.00000  Uiso   1.00
H30    H     0.67432   0.82370   0.95944   0.00000  Uiso   1.00
H31    H     0.88156   0.99409   0.38081   0.00000  Uiso   1.00
H32    H     0.82930   0.91404   0.52339   0.00000  Uiso   1.00
H33    H     0.91973   0.16733   0.39258   0.00000  Uiso   1.00
H34    H     0.91966   0.89832   0.23616   0.00000  Uiso   1.00
H35    H     0.73352   0.82948   0.66618   0.00000  Uiso   1.00
H36    H     0.92420   0.36354   0.39031   0.00000  Uiso   1.00
H37    H     0.92405   0.79629   0.06047   0.00000  Uiso   1.00
O38    O     0.56902   0.79113   0.70735   0.00000  Uiso   1.00
O39    O     0.81919   0.49179   0.34541   0.00000  Uiso   1.00
O40    O     0.81899   0.74757   0.91266   0.00000  Uiso   1.00
N41    N     0.54974   0.86141   0.56935   0.00000  Uiso   1.00
N42    N     0.72801   0.36072   0.31145   0.00000  Uiso   1.00
N43    N     0.72787   0.83041   0.00306   0.00000  Uiso   1.00
N44    N     0.68411   0.84666   0.62372   0.00000  Uiso   1.00
N45    N     0.86238   0.34598   0.36581   0.00000  Uiso   1.00
N46    N     0.86225   0.81566   0.05742   0.00000  Uiso   1.00
C47    C     0.29048   0.64899   0.01596   0.00000  Uiso   1.00
C48    C     0.37636   0.65252   0.96773   0.00000  Uiso   1.00
C49    C     0.41897   0.57821   0.93584   0.00000  Uiso   1.00
C50    C     0.49683   0.59567   0.89363   0.00000  Uiso   1.00
C51    C     0.62504   0.58768   0.82028   0.00000  Uiso   1.00
C52    C     0.30971   0.70267   0.10788   0.00000  Uiso   1.00
C53    C     0.29627   0.67052   0.19383   0.00000  Uiso   1.00
C54    C     0.31802   0.73021   0.26959   0.00000  Uiso   1.00
C55    C     0.34269   0.80009   0.41383   0.00000  Uiso   1.00
C56    C     0.22820   0.70359   0.95976   0.00000  Uiso   1.00
C57    C     0.14621   0.67223   0.92119   0.00000  Uiso   1.00
C58    C     0.09932   0.73270   0.87226   0.00000  Uiso   1.00
C59    C     0.99744   0.80401   0.78653   0.00000  Uiso   1.00
C60    C     0.35298   0.81216   0.99769   0.00000  Uiso   1.00
C61    C     0.41031   0.74116   0.95781   0.00000  Uiso   1.00
C62    C     0.48813   0.75874   0.91562   0.00000  Uiso   1.00
C63    C     0.53084   0.68446   0.88368   0.00000  Uiso   1.00
C64    C     0.34366   0.79130   0.09796   0.00000  Uiso   1.00
C65    C     0.36543   0.85105   0.17361   0.00000  Uiso   1.00
C66    C     0.35203   0.81900   0.25965   0.00000  Uiso   1.00
C67    C     0.26215   0.79222   0.94983   0.00000  Uiso   1.00
C68    C     0.21537   0.85276   0.90097   0.00000  Uiso   1.00
C69    C     0.13333   0.82148   0.86232   0.00000  Uiso   1.00
H70    H     0.26405   0.57999   0.02369   0.00000  Uiso   1.00
H71    H     0.39268   0.50963   0.94354   0.00000  Uiso   1.00
H72    H     0.26999   0.60194   0.20149   0.00000  Uiso   1.00
H73    H     0.11996   0.60364   0.92888   0.00000  Uiso   1.00
H74    H     0.55028   0.47070   0.85033   0.00000  Uiso   1.00
H75    H     0.29155   0.66534   0.39422   0.00000  Uiso   1.00
H76    H     0.97519   0.66893   0.81939   0.00000  Uiso   1.00
H77    H     0.37942   0.88117   0.98996   0.00000  Uiso   1.00
H78    H     0.51438   0.82733   0.90795   0.00000  Uiso   1.00
H79    H     0.39169   0.91963   0.16590   0.00000  Uiso   1.00
H80    H     0.24167   0.92134   0.89330   0.00000  Uiso   1.00
H81    H     0.64906   0.72856   0.82145   0.00000  Uiso   1.00
H82    H     0.39033   0.92320   0.36534   0.00000  Uiso   1.00
H83    H     0.07397   0.92679   0.79051   0.00000  Uiso   1.00
O84    O     0.68639   0.55878   0.78258   0.00000  Uiso   1.00
O85    O     0.34693   0.81415   0.49614   0.00000  Uiso   1.00
O86    O     0.93187   0.81885   0.74197   0.00000  Uiso   1.00
N87    N     0.55500   0.53878   0.85477   0.00000  Uiso   1.00
N88    N     0.31312   0.72075   0.36328   0.00000  Uiso   1.00
N89    N     0.01733   0.72411   0.82588   0.00000  Uiso   1.00
N90    N     0.60815   0.67753   0.83923   0.00000  Uiso   1.00
N91    N     0.36627   0.85950   0.34774   0.00000  Uiso   1.00
N92    N     0.07048   0.86286   0.81034   0.00000  Uiso   1.00
C93    C     0.02135   0.28911   0.64722   0.00000  Uiso   1.00
C94    C     0.97633   0.37789   0.65090   0.00000  Uiso   1.00
C95    C     0.94613   0.42236   0.57544   0.00000  Uiso   1.00
C96    C     0.90681   0.50277   0.59326   0.00000  Uiso   1.00
C97    C     0.83827   0.63539   0.58526   0.00000  Uiso   1.00
C98    C     0.10932   0.30849   0.70127   0.00000  Uiso   1.00
C99    C     0.19093   0.29460   0.66817   0.00000  Uiso   1.00
C100   C     0.26356   0.31658   0.72840   0.00000  Uiso   1.00
C101   C     0.40149   0.34139   0.79862   0.00000  Uiso   1.00
C102   C     0.96737   0.22461   0.70314   0.00000  Uiso   1.00
C103   C     0.92963   0.14018   0.67162   0.00000  Uiso   1.00
C104   C     0.88276   0.09153   0.73343   0.00000  Uiso   1.00
C105   C     0.80029   0.98610   0.80656   0.00000  Uiso   1.00
C106   C     0.00523   0.35282   0.81305   0.00000  Uiso   1.00
C107   C     0.96758   0.41250   0.74097   0.00000  Uiso   1.00
C108   C     0.92829   0.49286   0.75890   0.00000  Uiso   1.00
C109   C     0.89803   0.53744   0.68349   0.00000  Uiso   1.00
C110   C     0.10057   0.34310   0.79133   0.00000  Uiso   1.00
C111   C     0.17309   0.36510   0.85163   0.00000  Uiso   1.00
C112   C     0.25479   0.35125   0.81863   0.00000  Uiso   1.00
C113   C     0.95861   0.25922   0.79321   0.00000  Uiso   1.00
C114   C     0.91179   0.21068   0.85508   0.00000  Uiso   1.00
C115   C     0.87399   0.12620   0.82366   0.00000  Uiso   1.00
H116   H     0.02818   0.26216   0.57711   0.00000  Uiso   1.00
H117   H     0.95292   0.39556   0.50575   0.00000  Uiso   1.00
H118   H     0.19768   0.26781   0.59847   0.00000  Uiso   1.00
H119   H     0.93642   0.11342   0.60192   0.00000  Uiso   1.00
H120   H     0.86566   0.55874   0.46636   0.00000  Uiso   1.00
H121   H     0.38175   0.28934   0.66187   0.00000  Uiso   1.00
H122   H     0.83084   0.96378   0.66915   0.00000  Uiso   1.00
H123   H     0.99841   0.37977   0.88317   0.00000  Uiso   1.00
H124   H     0.92152   0.51963   0.82861   0.00000  Uiso   1.00
H125   H     0.16629   0.39187   0.92132   0.00000  Uiso   1.00
H126   H     0.90503   0.23749   0.92478   0.00000  Uiso   1.00
H127   H     0.84018   0.65944   0.72841   0.00000  Uiso   1.00
H128   H     0.35627   0.39003   0.92391   0.00000  Uiso   1.00
H129   H     0.80535   0.06447   0.93119   0.00000  Uiso   1.00
O130   O     0.80290   0.69898   0.55597   0.00000  Uiso   1.00
O131   O     0.47999   0.34552   0.81247   0.00000  Uiso   1.00
O132   O     0.75720   0.91840   0.82202   0.00000  Uiso   1.00
N133   N     0.87020   0.56324   0.53552   0.00000  Uiso   1.00
N134   N     0.35271   0.31138   0.71830   0.00000  Uiso   1.00
N135   N     0.83767   0.00699   0.72512   0.00000  Uiso   1.00
N136   N     0.85648   0.61742   0.67653   0.00000  Uiso   1.00
N137   N     0.33900   0.36556   0.85931   0.00000  Uiso   1.00
N138   N     0.82396   0.06117   0.86612   0.00000  Uiso   1.00
C139   C     0.34330   0.98124   0.71016   0.00000  Uiso   1.00
C140   C     0.33994   0.02822   0.61985   0.00000  Uiso   1.00
C141   C     0.41197   0.05950   0.57419   0.00000  Uiso   1.00
C142   C     0.39511   0.10058   0.49248   0.00000  Uiso   1.00
C143   C     0.40295   0.17206   0.35751   0.00000  Uiso   1.00
C144   C     0.29081   0.89060   0.69091   0.00000  Uiso   1.00
C145   C     0.32153   0.80617   0.70502   0.00000  Uiso   1.00
C146   C     0.26331   0.73141   0.68314   0.00000  Uiso   1.00
C147   C     0.19485   0.58923   0.65856   0.00000  Uiso   1.00
C148   C     0.29085   0.03677   0.77589   0.00000  Uiso   1.00
C149   C     0.32160   0.07522   0.86147   0.00000  Uiso   1.00
C150   C     0.26340   0.12349   0.91115   0.00000  Uiso   1.00
C151   C     0.19502   0.20826   0.01853   0.00000  Uiso   1.00
C152   C     0.18527   0.99858   0.64623   0.00000  Uiso   1.00
C153   C     0.25410   0.03764   0.58513   0.00000  Uiso   1.00
C154   C     0.23713   0.07868   0.50346   0.00000  Uiso   1.00
C155   C     0.30912   0.11002   0.45769   0.00000  Uiso   1.00
C156   C     0.20498   0.90002   0.65619   0.00000  Uiso   1.00
C157   C     0.14669   0.82536   0.63429   0.00000  Uiso   1.00
C158   C     0.17732   0.74084   0.64835   0.00000  Uiso   1.00
C159   C     0.20502   0.04619   0.74117   0.00000  Uiso   1.00
C160   C     0.14676   0.09441   0.79074   0.00000  Uiso   1.00
C161   C     0.17741   0.13293   0.87637   0.00000  Uiso   1.00
H162   H     0.41012   0.97390   0.73719   0.00000  Uiso   1.00
H163   H     0.47838   0.05219   0.60108   0.00000  Uiso   1.00
H164   H     0.38796   0.79891   0.73190   0.00000  Uiso   1.00
H165   H     0.38803   0.06791   0.88832   0.00000  Uiso   1.00
H166   H     0.51621   0.14311   0.43485   0.00000  Uiso   1.00
H167   H     0.32553   0.60905   0.71071   0.00000  Uiso   1.00
H168   H     0.32568   0.17630   0.04056   0.00000  Uiso   1.00
H169   H     0.11844   0.00591   0.61919   0.00000  Uiso   1.00
H170   H     0.17070   0.08596   0.47661   0.00000  Uiso   1.00
H171   H     0.08027   0.83268   0.60742   0.00000  Uiso   1.00
H172   H     0.08034   0.10168   0.76384   0.00000  Uiso   1.00
H173   H     0.26648   0.17052   0.33382   0.00000  Uiso   1.00
H174   H     0.07580   0.63646   0.60969   0.00000  Uiso   1.00
H175   H     0.07595   0.20371   0.93953   0.00000  Uiso   1.00
O176   O     0.43098   0.20887   0.29265   0.00000  Uiso   1.00
O177   O     0.18081   0.50821   0.65459   0.00000  Uiso   1.00
O178   O     0.18101   0.25243   0.08734   0.00000  Uiso   1.00
N179   N     0.45026   0.13859   0.43065   0.00000  Uiso   1.00
N180   N     0.27199   0.63928   0.68855   0.00000  Uiso   1.00
N181   N     0.27213   0.16959   0.99694   0.00000  Uiso   1.00
N182   N     0.31589   0.15334   0.37628   0.00000  Uiso   1.00
N183   N     0.13762   0.65402   0.63419   0.00000  Uiso   1.00
N184   N     0.13775   0.18434   0.94258   0.00000  Uiso   1.00
C185   C     0.70952   0.35101   0.98404   0.00000  Uiso   1.00
C186   C     0.62364   0.34748   0.03227   0.00000  Uiso   1.00
C187   C     0.58103   0.42179   0.06416   0.00000  Uiso   1.00
C188   C     0.50317   0.40433   0.10637   0.00000  Uiso   1.00
C189   C     0.37496   0.41232   0.17972   0.00000  Uiso   1.00
C190   C     0.69029   0.29733   0.89212   0.00000  Uiso   1.00
C191   C     0.70373   0.32948   0.80617   0.00000  Uiso   1.00
C192   C     0.68198   0.26979   0.73041   0.00000  Uiso   1.00
C193   C     0.65731   0.19991   0.58617   0.00000  Uiso   1.00
C194   C     0.77180   0.29641   0.04024   0.00000  Uiso   1.00
C195   C     0.85379   0.32777   0.07881   0.00000  Uiso   1.00
C196   C     0.90068   0.26730   0.12774   0.00000  Uiso   1.00
C197   C     0.00256   0.19599   0.21347   0.00000  Uiso   1.00
C198   C     0.64702   0.18784   0.00231   0.00000  Uiso   1.00
C199   C     0.58969   0.25884   0.04219   0.00000  Uiso   1.00
C200   C     0.51187   0.24126   0.08438   0.00000  Uiso   1.00
C201   C     0.46916   0.31554   0.11632   0.00000  Uiso   1.00
C202   C     0.65634   0.20870   0.90204   0.00000  Uiso   1.00
C203   C     0.63457   0.14895   0.82639   0.00000  Uiso   1.00
C204   C     0.64797   0.18100   0.74035   0.00000  Uiso   1.00
C205   C     0.73785   0.20778   0.05017   0.00000  Uiso   1.00
C206   C     0.78463   0.14724   0.09903   0.00000  Uiso   1.00
C207   C     0.86667   0.17852   0.13768   0.00000  Uiso   1.00
H208   H     0.73595   0.42001   0.97631   0.00000  Uiso   1.00
H209   H     0.60732   0.49037   0.05646   0.00000  Uiso   1.00
H210   H     0.73001   0.39806   0.79851   0.00000  Uiso   1.00
H211   H     0.88004   0.39636   0.07112   0.00000  Uiso   1.00
H212   H     0.44972   0.52930   0.14967   0.00000  Uiso   1.00
H213   H     0.70845   0.33466   0.60578   0.00000  Uiso   1.00
H214   H     0.02481   0.33107   0.18061   0.00000  Uiso   1.00
H215   H     0.62058   0.11883   0.01004   0.00000  Uiso   1.00
H216   H     0.48562   0.17267   0.09205   0.00000  Uiso   1.00
H217   H     0.60831   0.08037   0.83410   0.00000  Uiso   1.00
H218   H     0.75833   0.07866   0.10670   0.00000  Uiso   1.00
H219   H     0.35094   0.27144   0.17855   0.00000  Uiso   1.00
H220   H     0.60967   0.07680   0.63466   0.00000  Uiso   1.00
H221   H     0.92603   0.07321   0.20949   0.00000  Uiso   1.00
O222   O     0.31361   0.44122   0.21742   0.00000  Uiso   1.00
O223   O     0.65307   0.18585   0.50386   0.00000  Uiso   1.00
O224   O     0.06813   0.18115   0.25803   0.00000  Uiso   1.00
N225   N     0.44500   0.46122   0.14523   0.00000  Uiso   1.00
N226   N     0.68688   0.27925   0.63672   0.00000  Uiso   1.00
N227   N     0.98267   0.27589   0.17412   0.00000  Uiso   1.00
N228   N     0.39185   0.32247   0.16077   0.00000  Uiso   1.00
N229   N     0.63373   0.14050   0.65227   0.00000  Uiso   1.00
N230   N     0.92952   0.13714   0.18966   0.00000  Uiso   1.00
C231   C     0.97865   0.71089   0.35278   0.00000  Uiso   1.00
C232   C     0.02367   0.62211   0.34910   0.00000  Uiso   1.00
C233   C     0.05387   0.57764   0.42456   0.00000  Uiso   1.00
C234   C     0.09319   0.49723   0.40674   0.00000  Uiso   1.00
C235   C     0.16173   0.36461   0.41474   0.00000  Uiso   1.00
C236   C     0.89068   0.69151   0.29873   0.00000  Uiso   1.00
C237   C     0.80907   0.70540   0.33183   0.00000  Uiso   1.00
C238   C     0.73644   0.68342   0.27160   0.00000  Uiso   1.00
C239   C     0.59851   0.65861   0.20138   0.00000  Uiso   1.00
C240   C     0.03263   0.77539   0.29686   0.00000  Uiso   1.00
C241   C     0.07037   0.85982   0.32838   0.00000  Uiso   1.00
C242   C     0.11724   0.90847   0.26657   0.00000  Uiso   1.00
C243   C     0.19972   0.01390   0.19344   0.00000  Uiso   1.00
C244   C     0.99477   0.64718   0.18695   0.00000  Uiso   1.00
C245   C     0.03242   0.58750   0.25903   0.00000  Uiso   1.00
C246   C     0.07171   0.50714   0.24110   0.00000  Uiso   1.00
C247   C     0.10197   0.46256   0.31651   0.00000  Uiso   1.00
C248   C     0.89943   0.65690   0.20867   0.00000  Uiso   1.00
C249   C     0.82691   0.63490   0.14837   0.00000  Uiso   1.00
C250   C     0.74521   0.64875   0.18137   0.00000  Uiso   1.00
C251   C     0.04139   0.74078   0.20679   0.00000  Uiso   1.00
C252   C     0.08821   0.78932   0.14492   0.00000  Uiso   1.00
C253   C     0.12601   0.87380   0.17634   0.00000  Uiso   1.00
H254   H     0.97182   0.73784   0.42289   0.00000  Uiso   1.00
H255   H     0.04708   0.60444   0.49425   0.00000  Uiso   1.00
H256   H     0.80232   0.73219   0.40153   0.00000  Uiso   1.00
H257   H     0.06358   0.88658   0.39808   0.00000  Uiso   1.00
H258   H     0.13434   0.44126   0.53364   0.00000  Uiso   1.00
H259   H     0.61825   0.71066   0.33813   0.00000  Uiso   1.00
H260   H     0.16916   0.03622   0.33085   0.00000  Uiso   1.00
H261   H     0.00159   0.62023   0.11683   0.00000  Uiso   1.00
H262   H     0.07848   0.48037   0.17139   0.00000  Uiso   1.00
H263   H     0.83371   0.60813   0.07868   0.00000  Uiso   1.00
H264   H     0.09497   0.76252   0.07522   0.00000  Uiso   1.00
H265   H     0.15982   0.34056   0.27159   0.00000  Uiso   1.00
H266   H     0.64373   0.60997   0.07609   0.00000  Uiso   1.00
H267   H     0.19465   0.93553   0.06881   0.00000  Uiso   1.00
O268   O     0.19710   0.30102   0.44403   0.00000  Uiso   1.00
O269   O     0.52001   0.65448   0.18753   0.00000  Uiso   1.00
O270   O     0.24280   0.08160   0.17798   0.00000  Uiso   1.00
N271   N     0.12980   0.43676   0.46448   0.00000  Uiso   1.00
N272   N     0.64729   0.68862   0.28170   0.00000  Uiso   1.00
N273   N     0.16233   0.99301   0.27488   0.00000  Uiso   1.00
N274   N     0.14352   0.38258   0.32347   0.00000  Uiso   1.00
N275   N     0.66100   0.63444   0.14069   0.00000  Uiso   1.00
N276   N     0.17604   0.93883   0.13388   0.00000  Uiso   1.00
