data_job_03111
_audit_creation_date              2018-12-19
_audit_creation_method            'Materials Studio'
_symmetry_space_group_name_H-M    'P1'
_symmetry_Int_Tables_number       1
_symmetry_cell_setting            triclinic
loop_
_symmetry_equiv_pos_as_xyz
  x,y,z
_cell_length_a                    14.1439
_cell_length_b                    10.5208
_cell_length_c                    19.2309
_cell_angle_alpha                 90.0000
_cell_angle_beta                  121.9369
_cell_angle_gamma                 90.0000
loop_
_atom_site_label
_atom_site_type_symbol
_atom_site_fract_x
_atom_site_fract_y
_atom_site_fract_z
_atom_site_U_iso_or_equiv
_atom_site_adp_type
_atom_site_occupancy
C1     C     0.68044   0.57379   0.02446   0.00000  Uiso   1.00
C2     C     0.79242   0.61643   0.09733   0.00000  Uiso   1.00
C3     C     0.83746   0.57913   0.17810   0.00000  Uiso   1.00
C4     C     0.94093   0.62875   0.23579   0.00000  Uiso   1.00
C5     C     0.10622   0.68224   0.35235   0.00000  Uiso   1.00
C6     C     0.61468   0.69507   0.98469   0.00000  Uiso   1.00
C7     C     0.51026   0.72388   0.97076   0.00000  Uiso   1.00
C8     C     0.46411   0.83971   0.93362   0.00000  Uiso   1.00
C9     C     0.35342   0.01525   0.87526   0.00000  Uiso   1.00
C10    C     0.70527   0.51574   0.96313   0.00000  Uiso   1.00
C11    C     0.67699   0.39378   0.93105   0.00000  Uiso   1.00
C12    C     0.70708   0.35862   0.87575   0.00000  Uiso   1.00
C13    C     0.73704   0.25573   0.78391   0.00000  Uiso   1.00
C14    C     0.78413   0.72825   0.98328   0.00000  Uiso   1.00
C15    C     0.84874   0.70033   0.07496   0.00000  Uiso   1.00
C16    C     0.95218   0.75002   0.13254   0.00000  Uiso   1.00
C17    C     0.99736   0.71279   0.21339   0.00000  Uiso   1.00
C18    C     0.67100   0.77897   0.96233   0.00000  Uiso   1.00
C19    C     0.62499   0.89477   0.92520   0.00000  Uiso   1.00
C20    C     0.52053   0.92376   0.91121   0.00000  Uiso   1.00
C21    C     0.76159   0.59964   0.94077   0.00000  Uiso   1.00
C22    C     0.79172   0.56467   0.88550   0.00000  Uiso   1.00
C23    C     0.76350   0.44267   0.85334   0.00000  Uiso   1.00
H24    H     0.63658   0.50848   0.04187   0.00000  Uiso   1.00
H25    H     0.79384   0.51421   0.19539   0.00000  Uiso   1.00
H26    H     0.46669   0.65894   0.98807   0.00000  Uiso   1.00
H27    H     0.63340   0.32888   0.94838   0.00000  Uiso   1.00
H28    H     0.99300   0.55759   0.35573   0.00000  Uiso   1.00
H29    H     0.30318   0.86274   0.91856   0.00000  Uiso   1.00
H30    H     0.65472   0.16675   0.83486   0.00000  Uiso   1.00
H31    H     0.82798   0.79357   0.96586   0.00000  Uiso   1.00
H32    H     0.99575   0.81494   0.11521   0.00000  Uiso   1.00
H33    H     0.66859   0.95967   0.90789   0.00000  Uiso   1.00
H34    H     0.83531   0.62962   0.86820   0.00000  Uiso   1.00
H35    H     0.15687   0.80168   0.29066   0.00000  Uiso   1.00
H36    H     0.46705   0.10682   0.85348   0.00000  Uiso   1.00
H37    H     0.81859   0.41084   0.76979   0.00000  Uiso   1.00
O38    O     0.18183   0.68858   0.42282   0.00000  Uiso   1.00
O39    O     0.27680   0.08890   0.84925   0.00000  Uiso   1.00
O40    O     0.73802   0.17579   0.73945   0.00000  Uiso   1.00
N41    N     0.00856   0.61208   0.31992   0.00000  Uiso   1.00
N42    N     0.36362   0.89739   0.91120   0.00000  Uiso   1.00
N43    N     0.69225   0.24671   0.83293   0.00000  Uiso   1.00
N44    N     0.09674   0.74343   0.28490   0.00000  Uiso   1.00
N45    N     0.45180   0.02873   0.87619   0.00000  Uiso   1.00
N46    N     0.78043   0.37805   0.79792   0.00000  Uiso   1.00
C47    C     0.31956   0.07379   0.47554   0.00000  Uiso   1.00
C48    C     0.20758   0.11643   0.40267   0.00000  Uiso   1.00
C49    C     0.16254   0.07913   0.32190   0.00000  Uiso   1.00
C50    C     0.05907   0.12875   0.26421   0.00000  Uiso   1.00
C51    C     0.89378   0.18224   0.14765   0.00000  Uiso   1.00
C52    C     0.38532   0.19507   0.51531   0.00000  Uiso   1.00
C53    C     0.48974   0.22388   0.52924   0.00000  Uiso   1.00
C54    C     0.53589   0.33971   0.56638   0.00000  Uiso   1.00
C55    C     0.64658   0.51525   0.62474   0.00000  Uiso   1.00
C56    C     0.29473   0.01574   0.53687   0.00000  Uiso   1.00
C57    C     0.32301   0.89378   0.56895   0.00000  Uiso   1.00
C58    C     0.29292   0.85862   0.62425   0.00000  Uiso   1.00
C59    C     0.26296   0.75573   0.71609   0.00000  Uiso   1.00
C60    C     0.21587   0.22825   0.51672   0.00000  Uiso   1.00
C61    C     0.15126   0.20033   0.42504   0.00000  Uiso   1.00
C62    C     0.04782   0.25002   0.36746   0.00000  Uiso   1.00
C63    C     0.00264   0.21279   0.28661   0.00000  Uiso   1.00
C64    C     0.32900   0.27897   0.53767   0.00000  Uiso   1.00
C65    C     0.37501   0.39477   0.57480   0.00000  Uiso   1.00
C66    C     0.47947   0.42376   0.58879   0.00000  Uiso   1.00
C67    C     0.23841   0.09964   0.55923   0.00000  Uiso   1.00
C68    C     0.20828   0.06467   0.61450   0.00000  Uiso   1.00
C69    C     0.23650   0.94267   0.64666   0.00000  Uiso   1.00
H70    H     0.36342   0.00848   0.45813   0.00000  Uiso   1.00
H71    H     0.20616   0.01421   0.30461   0.00000  Uiso   1.00
H72    H     0.53331   0.15894   0.51193   0.00000  Uiso   1.00
H73    H     0.36660   0.82888   0.55162   0.00000  Uiso   1.00
H74    H     0.00700   0.05759   0.14427   0.00000  Uiso   1.00
H75    H     0.69682   0.36274   0.58144   0.00000  Uiso   1.00
H76    H     0.34528   0.66675   0.66514   0.00000  Uiso   1.00
H77    H     0.17202   0.29357   0.53414   0.00000  Uiso   1.00
H78    H     0.00425   0.31494   0.38479   0.00000  Uiso   1.00
H79    H     0.33141   0.45967   0.59211   0.00000  Uiso   1.00
H80    H     0.16469   0.12962   0.63180   0.00000  Uiso   1.00
H81    H     0.84313   0.30168   0.20934   0.00000  Uiso   1.00
H82    H     0.53295   0.60682   0.64652   0.00000  Uiso   1.00
H83    H     0.18141   0.91084   0.73021   0.00000  Uiso   1.00
O84    O     0.81817   0.18858   0.07718   0.00000  Uiso   1.00
O85    O     0.72320   0.58890   0.65075   0.00000  Uiso   1.00
O86    O     0.26198   0.67579   0.76055   0.00000  Uiso   1.00
N87    N     0.99144   0.11208   0.18008   0.00000  Uiso   1.00
N88    N     0.63638   0.39739   0.58880   0.00000  Uiso   1.00
N89    N     0.30775   0.74671   0.66707   0.00000  Uiso   1.00
N90    N     0.90326   0.24343   0.21510   0.00000  Uiso   1.00
N91    N     0.54820   0.52873   0.62381   0.00000  Uiso   1.00
N92    N     0.21957   0.87805   0.70208   0.00000  Uiso   1.00
C93    C     0.31956   0.42621   0.97554   0.00000  Uiso   1.00
C94    C     0.20758   0.38357   0.90267   0.00000  Uiso   1.00
C95    C     0.16254   0.42087   0.82190   0.00000  Uiso   1.00
C96    C     0.05907   0.37125   0.76421   0.00000  Uiso   1.00
C97    C     0.89378   0.31776   0.64765   0.00000  Uiso   1.00
C98    C     0.38532   0.30493   0.01531   0.00000  Uiso   1.00
C99    C     0.48974   0.27612   0.02924   0.00000  Uiso   1.00
C100   C     0.53589   0.16029   0.06638   0.00000  Uiso   1.00
C101   C     0.64658   0.98475   0.12474   0.00000  Uiso   1.00
C102   C     0.29473   0.48426   0.03687   0.00000  Uiso   1.00
C103   C     0.32301   0.60622   0.06895   0.00000  Uiso   1.00
C104   C     0.29292   0.64138   0.12425   0.00000  Uiso   1.00
C105   C     0.26296   0.74427   0.21609   0.00000  Uiso   1.00
C106   C     0.21587   0.27175   0.01672   0.00000  Uiso   1.00
C107   C     0.15126   0.29967   0.92504   0.00000  Uiso   1.00
C108   C     0.04782   0.24998   0.86746   0.00000  Uiso   1.00
C109   C     0.00264   0.28721   0.78661   0.00000  Uiso   1.00
C110   C     0.32900   0.22103   0.03767   0.00000  Uiso   1.00
C111   C     0.37501   0.10523   0.07480   0.00000  Uiso   1.00
C112   C     0.47947   0.07624   0.08879   0.00000  Uiso   1.00
C113   C     0.23841   0.40036   0.05923   0.00000  Uiso   1.00
C114   C     0.20828   0.43533   0.11450   0.00000  Uiso   1.00
C115   C     0.23650   0.55733   0.14666   0.00000  Uiso   1.00
H116   H     0.36342   0.49152   0.95813   0.00000  Uiso   1.00
H117   H     0.20616   0.48579   0.80461   0.00000  Uiso   1.00
H118   H     0.53331   0.34106   0.01193   0.00000  Uiso   1.00
H119   H     0.36660   0.67112   0.05162   0.00000  Uiso   1.00
H120   H     0.00700   0.44241   0.64427   0.00000  Uiso   1.00
H121   H     0.69682   0.13726   0.08144   0.00000  Uiso   1.00
H122   H     0.34528   0.83325   0.16514   0.00000  Uiso   1.00
H123   H     0.17202   0.20643   0.03414   0.00000  Uiso   1.00
H124   H     0.00425   0.18506   0.88479   0.00000  Uiso   1.00
H125   H     0.33141   0.04033   0.09211   0.00000  Uiso   1.00
H126   H     0.16469   0.37038   0.13180   0.00000  Uiso   1.00
H127   H     0.84313   0.19832   0.70934   0.00000  Uiso   1.00
H128   H     0.53295   0.89318   0.14652   0.00000  Uiso   1.00
H129   H     0.18141   0.58916   0.23021   0.00000  Uiso   1.00
O130   O     0.81817   0.31142   0.57718   0.00000  Uiso   1.00
O131   O     0.72320   0.91110   0.15075   0.00000  Uiso   1.00
O132   O     0.26198   0.82421   0.26055   0.00000  Uiso   1.00
N133   N     0.99144   0.38792   0.68008   0.00000  Uiso   1.00
N134   N     0.63638   0.10261   0.08880   0.00000  Uiso   1.00
N135   N     0.30775   0.75329   0.16707   0.00000  Uiso   1.00
N136   N     0.90326   0.25657   0.71510   0.00000  Uiso   1.00
N137   N     0.54820   0.97127   0.12381   0.00000  Uiso   1.00
N138   N     0.21957   0.62195   0.20208   0.00000  Uiso   1.00
C139   C     0.68044   0.92621   0.52446   0.00000  Uiso   1.00
C140   C     0.79242   0.88357   0.59733   0.00000  Uiso   1.00
C141   C     0.83746   0.92087   0.67810   0.00000  Uiso   1.00
C142   C     0.94093   0.87125   0.73579   0.00000  Uiso   1.00
C143   C     0.10622   0.81776   0.85235   0.00000  Uiso   1.00
C144   C     0.61468   0.80493   0.48469   0.00000  Uiso   1.00
C145   C     0.51026   0.77612   0.47076   0.00000  Uiso   1.00
C146   C     0.46411   0.66029   0.43362   0.00000  Uiso   1.00
C147   C     0.35342   0.48475   0.37526   0.00000  Uiso   1.00
C148   C     0.70527   0.98426   0.46313   0.00000  Uiso   1.00
C149   C     0.67699   0.10622   0.43105   0.00000  Uiso   1.00
C150   C     0.70708   0.14138   0.37575   0.00000  Uiso   1.00
C151   C     0.73704   0.24427   0.28391   0.00000  Uiso   1.00
C152   C     0.78413   0.77175   0.48328   0.00000  Uiso   1.00
C153   C     0.84874   0.79967   0.57496   0.00000  Uiso   1.00
C154   C     0.95218   0.74998   0.63254   0.00000  Uiso   1.00
C155   C     0.99736   0.78721   0.71339   0.00000  Uiso   1.00
C156   C     0.67100   0.72103   0.46233   0.00000  Uiso   1.00
C157   C     0.62499   0.60523   0.42520   0.00000  Uiso   1.00
C158   C     0.52053   0.57624   0.41121   0.00000  Uiso   1.00
C159   C     0.76159   0.90036   0.44077   0.00000  Uiso   1.00
C160   C     0.79172   0.93533   0.38550   0.00000  Uiso   1.00
C161   C     0.76350   0.05733   0.35334   0.00000  Uiso   1.00
H162   H     0.63658   0.99152   0.54187   0.00000  Uiso   1.00
H163   H     0.79384   0.98579   0.69539   0.00000  Uiso   1.00
H164   H     0.46669   0.84106   0.48807   0.00000  Uiso   1.00
H165   H     0.63340   0.17112   0.44838   0.00000  Uiso   1.00
H166   H     0.99300   0.94241   0.85573   0.00000  Uiso   1.00
H167   H     0.30318   0.63726   0.41856   0.00000  Uiso   1.00
H168   H     0.65472   0.33325   0.33486   0.00000  Uiso   1.00
H169   H     0.82798   0.70643   0.46586   0.00000  Uiso   1.00
H170   H     0.99575   0.68506   0.61521   0.00000  Uiso   1.00
H171   H     0.66859   0.54033   0.40789   0.00000  Uiso   1.00
H172   H     0.83531   0.87038   0.36820   0.00000  Uiso   1.00
H173   H     0.15687   0.69832   0.79066   0.00000  Uiso   1.00
H174   H     0.46705   0.39318   0.35348   0.00000  Uiso   1.00
H175   H     0.81859   0.08916   0.26979   0.00000  Uiso   1.00
O176   O     0.18183   0.81142   0.92282   0.00000  Uiso   1.00
O177   O     0.27680   0.41110   0.34925   0.00000  Uiso   1.00
O178   O     0.73802   0.32421   0.23945   0.00000  Uiso   1.00
N179   N     0.00856   0.88792   0.81992   0.00000  Uiso   1.00
N180   N     0.36362   0.60261   0.41120   0.00000  Uiso   1.00
N181   N     0.69225   0.25329   0.33293   0.00000  Uiso   1.00
N182   N     0.09674   0.75657   0.78490   0.00000  Uiso   1.00
N183   N     0.45180   0.47127   0.37619   0.00000  Uiso   1.00
N184   N     0.78043   0.12195   0.29792   0.00000  Uiso   1.00
