data_job_02091
_audit_creation_date              2018-12-19
_audit_creation_method            'Materials Studio'
_symmetry_space_group_name_H-M    'P1'
_symmetry_Int_Tables_number       1
_symmetry_cell_setting            triclinic
loop_
_symmetry_equiv_pos_as_xyz
  x,y,z
_cell_length_a                    32.4058
_cell_length_b                    32.4058
_cell_length_c                    7.1719
_cell_angle_alpha                 90.0000
_cell_angle_beta                  90.0000
_cell_angle_gamma                 120.0000
loop_
_atom_site_label
_atom_site_type_symbol
_atom_site_fract_x
_atom_site_fract_y
_atom_site_fract_z
_atom_site_U_iso_or_equiv
_atom_site_adp_type
_atom_site_occupancy
C1     C     0.13900   0.67234   0.50081   0.00000  Uiso   1.00
C2     C     0.17202   0.71736   0.60998   0.00000  Uiso   1.00
C3     C     0.20289   0.76163   0.53335   0.00000  Uiso   1.00
C4     C     0.23013   0.79832   0.65682   0.00000  Uiso   1.00
C5     C     0.28197   0.86934   0.79695   0.00000  Uiso   1.00
C6     C     0.15157   0.63486   0.56151   0.00000  Uiso   1.00
C7     C     0.16522   0.60976   0.44412   0.00000  Uiso   1.00
C8     C     0.17523   0.57700   0.52680   0.00000  Uiso   1.00
C9     C     0.19527   0.51991   0.59167   0.00000  Uiso   1.00
C10    C     0.08893   0.65551   0.57461   0.00000  Uiso   1.00
C11    C     0.04991   0.64776   0.46823   0.00000  Uiso   1.00
C12    C     0.00718   0.63237   0.56193   0.00000  Uiso   1.00
C13    C     0.92996   0.60734   0.64713   0.00000  Uiso   1.00
C14    C     0.13247   0.65878   0.85637   0.00000  Uiso   1.00
C15    C     0.16848   0.70999   0.80311   0.00000  Uiso   1.00
C16    C     0.19567   0.74663   0.92673   0.00000  Uiso   1.00
C17    C     0.22657   0.79095   0.85030   0.00000  Uiso   1.00
C18    C     0.14802   0.62749   0.75463   0.00000  Uiso   1.00
C19    C     0.15800   0.59476   0.83751   0.00000  Uiso   1.00
C20    C     0.17167   0.56962   0.72028   0.00000  Uiso   1.00
C21    C     0.08538   0.64814   0.76774   0.00000  Uiso   1.00
C22    C     0.04269   0.63276   0.86162   0.00000  Uiso   1.00
C23    C     0.00362   0.62499   0.75540   0.00000  Uiso   1.00
H24    H     0.14176   0.67807   0.35046   0.00000  Uiso   1.00
H25    H     0.20563   0.76731   0.38388   0.00000  Uiso   1.00
H26    H     0.16796   0.61547   0.29467   0.00000  Uiso   1.00
H27    H     0.05267   0.65346   0.31878   0.00000  Uiso   1.00
H28    H     0.27489   0.86301   0.50610   0.00000  Uiso   1.00
H29    H     0.19545   0.54281   0.31800   0.00000  Uiso   1.00
H30    H     0.95234   0.62293   0.36883   0.00000  Uiso   1.00
H31    H     0.12970   0.65304   0.00673   0.00000  Uiso   1.00
H32    H     0.19292   0.74092   0.07618   0.00000  Uiso   1.00
H33    H     0.15525   0.58907   0.98696   0.00000  Uiso   1.00
H34    H     0.03996   0.62706   0.01107   0.00000  Uiso   1.00
H35    H     0.26458   0.84158   0.06800   0.00000  Uiso   1.00
H36    H     0.18513   0.52138   0.87988   0.00000  Uiso   1.00
H37    H     0.94202   0.60151   0.93072   0.00000  Uiso   1.00
O38    O     0.31155   0.91055   0.82089   0.00000  Uiso   1.00
O39    O     0.20731   0.49046   0.57408   0.00000  Uiso   1.00
O40    O     0.88836   0.59558   0.64078   0.00000  Uiso   1.00
N41    N     0.26378   0.84591   0.62882   0.00000  Uiso   1.00
N42    N     0.18952   0.54655   0.45295   0.00000  Uiso   1.00
N43    N     0.96222   0.62144   0.50046   0.00000  Uiso   1.00
N44    N     0.25823   0.83438   0.93117   0.00000  Uiso   1.00
N45    N     0.18397   0.53502   0.75530   0.00000  Uiso   1.00
N46    N     0.95667   0.60991   0.80281   0.00000  Uiso   1.00
C47    C     0.32766   0.46666   0.83415   0.00000  Uiso   1.00
C48    C     0.28264   0.45467   0.94331   0.00000  Uiso   1.00
C49    C     0.23837   0.44126   0.86668   0.00000  Uiso   1.00
C50    C     0.20168   0.43180   0.99016   0.00000  Uiso   1.00
C51    C     0.13066   0.41262   0.13028   0.00000  Uiso   1.00
C52    C     0.36514   0.51671   0.89485   0.00000  Uiso   1.00
C53    C     0.39024   0.55546   0.77745   0.00000  Uiso   1.00
C54    C     0.42300   0.59823   0.86014   0.00000  Uiso   1.00
C55    C     0.48009   0.67536   0.92500   0.00000  Uiso   1.00
C56    C     0.34449   0.43342   0.90794   0.00000  Uiso   1.00
C57    C     0.35224   0.40216   0.80156   0.00000  Uiso   1.00
C58    C     0.36763   0.37480   0.89526   0.00000  Uiso   1.00
C59    C     0.39266   0.32262   0.98046   0.00000  Uiso   1.00
C60    C     0.34122   0.47369   0.18971   0.00000  Uiso   1.00
C61    C     0.29001   0.45849   0.13644   0.00000  Uiso   1.00
C62    C     0.25337   0.44904   0.26007   0.00000  Uiso   1.00
C63    C     0.20905   0.43562   0.18363   0.00000  Uiso   1.00
C64    C     0.37251   0.52053   0.08796   0.00000  Uiso   1.00
C65    C     0.40524   0.56324   0.17084   0.00000  Uiso   1.00
C66    C     0.43038   0.60205   0.05361   0.00000  Uiso   1.00
C67    C     0.35186   0.43724   0.10107   0.00000  Uiso   1.00
C68    C     0.36724   0.40993   0.19495   0.00000  Uiso   1.00
C69    C     0.37501   0.37863   0.08874   0.00000  Uiso   1.00
H70    H     0.32193   0.46369   0.68379   0.00000  Uiso   1.00
H71    H     0.23269   0.43832   0.71721   0.00000  Uiso   1.00
H72    H     0.38453   0.55250   0.62801   0.00000  Uiso   1.00
H73    H     0.34654   0.39921   0.65212   0.00000  Uiso   1.00
H74    H     0.13699   0.41189   0.83944   0.00000  Uiso   1.00
H75    H     0.45719   0.65264   0.65133   0.00000  Uiso   1.00
H76    H     0.37707   0.32941   0.70216   0.00000  Uiso   1.00
H77    H     0.34696   0.47666   0.34007   0.00000  Uiso   1.00
H78    H     0.25908   0.45200   0.40951   0.00000  Uiso   1.00
H79    H     0.41093   0.56618   0.32029   0.00000  Uiso   1.00
H80    H     0.37294   0.41290   0.34440   0.00000  Uiso   1.00
H81    H     0.15842   0.42300   0.40133   0.00000  Uiso   1.00
H82    H     0.47862   0.66375   0.21321   0.00000  Uiso   1.00
H83    H     0.39849   0.34051   0.26405   0.00000  Uiso   1.00
O84    O     0.08945   0.40100   0.15422   0.00000  Uiso   1.00
O85    O     0.50954   0.71685   0.90742   0.00000  Uiso   1.00
O86    O     0.40442   0.29278   0.97411   0.00000  Uiso   1.00
N87    N     0.15409   0.41788   0.96215   0.00000  Uiso   1.00
N88    N     0.45345   0.64297   0.78628   0.00000  Uiso   1.00
N89    N     0.37856   0.34078   0.83380   0.00000  Uiso   1.00
N90    N     0.16562   0.42385   0.26450   0.00000  Uiso   1.00
N91    N     0.46498   0.64894   0.08863   0.00000  Uiso   1.00
N92    N     0.39009   0.34676   0.13614   0.00000  Uiso   1.00
C93    C     0.53334   0.86100   0.16748   0.00000  Uiso   1.00
C94    C     0.54533   0.82798   0.27665   0.00000  Uiso   1.00
C95    C     0.55874   0.79711   0.20002   0.00000  Uiso   1.00
C96    C     0.56820   0.76987   0.32349   0.00000  Uiso   1.00
C97    C     0.58738   0.71803   0.46361   0.00000  Uiso   1.00
C98    C     0.48329   0.84843   0.22818   0.00000  Uiso   1.00
C99    C     0.44454   0.83478   0.11079   0.00000  Uiso   1.00
C100   C     0.40177   0.82477   0.19347   0.00000  Uiso   1.00
C101   C     0.32464   0.80473   0.25833   0.00000  Uiso   1.00
C102   C     0.56658   0.91107   0.24128   0.00000  Uiso   1.00
C103   C     0.59784   0.95009   0.13489   0.00000  Uiso   1.00
C104   C     0.62520   0.99282   0.22860   0.00000  Uiso   1.00
C105   C     0.67738   0.07004   0.31379   0.00000  Uiso   1.00
C106   C     0.52631   0.86753   0.52304   0.00000  Uiso   1.00
C107   C     0.54151   0.83152   0.46977   0.00000  Uiso   1.00
C108   C     0.55096   0.80433   0.59340   0.00000  Uiso   1.00
C109   C     0.56438   0.77343   0.51696   0.00000  Uiso   1.00
C110   C     0.47947   0.85198   0.42130   0.00000  Uiso   1.00
C111   C     0.43676   0.84200   0.50417   0.00000  Uiso   1.00
C112   C     0.39795   0.82833   0.38694   0.00000  Uiso   1.00
C113   C     0.56276   0.91462   0.43440   0.00000  Uiso   1.00
C114   C     0.59007   0.95731   0.52828   0.00000  Uiso   1.00
C115   C     0.62137   0.99638   0.42207   0.00000  Uiso   1.00
H116   H     0.53631   0.85824   0.01713   0.00000  Uiso   1.00
H117   H     0.56168   0.79437   0.05055   0.00000  Uiso   1.00
H118   H     0.44750   0.83204   0.96134   0.00000  Uiso   1.00
H119   H     0.60079   0.94733   0.98545   0.00000  Uiso   1.00
H120   H     0.58811   0.72511   0.17277   0.00000  Uiso   1.00
H121   H     0.34736   0.80455   0.98466   0.00000  Uiso   1.00
H122   H     0.67059   0.04766   0.03549   0.00000  Uiso   1.00
H123   H     0.52334   0.87030   0.67340   0.00000  Uiso   1.00
H124   H     0.54800   0.80708   0.74284   0.00000  Uiso   1.00
H125   H     0.43382   0.84475   0.65363   0.00000  Uiso   1.00
H126   H     0.58710   0.96004   0.67774   0.00000  Uiso   1.00
H127   H     0.57700   0.73542   0.73466   0.00000  Uiso   1.00
H128   H     0.33625   0.81487   0.54655   0.00000  Uiso   1.00
H129   H     0.65949   0.05798   0.59738   0.00000  Uiso   1.00
O130   O     0.59900   0.68845   0.48755   0.00000  Uiso   1.00
O131   O     0.28315   0.79269   0.24075   0.00000  Uiso   1.00
O132   O     0.70722   0.11164   0.30744   0.00000  Uiso   1.00
N133   N     0.58212   0.73622   0.29548   0.00000  Uiso   1.00
N134   N     0.35703   0.81048   0.11961   0.00000  Uiso   1.00
N135   N     0.65922   0.03778   0.16713   0.00000  Uiso   1.00
N136   N     0.57615   0.74177   0.59783   0.00000  Uiso   1.00
N137   N     0.35106   0.81603   0.42196   0.00000  Uiso   1.00
N138   N     0.65324   0.04333   0.46948   0.00000  Uiso   1.00
C139   C     0.86100   0.32766   0.50081   0.00000  Uiso   1.00
C140   C     0.82798   0.28264   0.60998   0.00000  Uiso   1.00
C141   C     0.79711   0.23837   0.53335   0.00000  Uiso   1.00
C142   C     0.76987   0.20168   0.65682   0.00000  Uiso   1.00
C143   C     0.71803   0.13066   0.79695   0.00000  Uiso   1.00
C144   C     0.84843   0.36514   0.56151   0.00000  Uiso   1.00
C145   C     0.83478   0.39024   0.44412   0.00000  Uiso   1.00
C146   C     0.82477   0.42300   0.52680   0.00000  Uiso   1.00
C147   C     0.80473   0.48009   0.59167   0.00000  Uiso   1.00
C148   C     0.91107   0.34449   0.57461   0.00000  Uiso   1.00
C149   C     0.95009   0.35224   0.46823   0.00000  Uiso   1.00
C150   C     0.99282   0.36763   0.56193   0.00000  Uiso   1.00
C151   C     0.07004   0.39266   0.64713   0.00000  Uiso   1.00
C152   C     0.86753   0.34122   0.85637   0.00000  Uiso   1.00
C153   C     0.83152   0.29001   0.80311   0.00000  Uiso   1.00
C154   C     0.80433   0.25337   0.92673   0.00000  Uiso   1.00
C155   C     0.77343   0.20905   0.85030   0.00000  Uiso   1.00
C156   C     0.85198   0.37251   0.75463   0.00000  Uiso   1.00
C157   C     0.84200   0.40524   0.83751   0.00000  Uiso   1.00
C158   C     0.82833   0.43038   0.72028   0.00000  Uiso   1.00
C159   C     0.91462   0.35186   0.76774   0.00000  Uiso   1.00
C160   C     0.95731   0.36724   0.86162   0.00000  Uiso   1.00
C161   C     0.99638   0.37501   0.75540   0.00000  Uiso   1.00
H162   H     0.85824   0.32193   0.35046   0.00000  Uiso   1.00
H163   H     0.79437   0.23269   0.38388   0.00000  Uiso   1.00
H164   H     0.83204   0.38453   0.29467   0.00000  Uiso   1.00
H165   H     0.94733   0.34654   0.31878   0.00000  Uiso   1.00
H166   H     0.72511   0.13699   0.50610   0.00000  Uiso   1.00
H167   H     0.80455   0.45719   0.31800   0.00000  Uiso   1.00
H168   H     0.04766   0.37707   0.36883   0.00000  Uiso   1.00
H169   H     0.87030   0.34696   0.00673   0.00000  Uiso   1.00
H170   H     0.80708   0.25908   0.07618   0.00000  Uiso   1.00
H171   H     0.84475   0.41093   0.98696   0.00000  Uiso   1.00
H172   H     0.96004   0.37294   0.01107   0.00000  Uiso   1.00
H173   H     0.73542   0.15842   0.06800   0.00000  Uiso   1.00
H174   H     0.81487   0.47862   0.87988   0.00000  Uiso   1.00
H175   H     0.05798   0.39849   0.93072   0.00000  Uiso   1.00
O176   O     0.68845   0.08945   0.82089   0.00000  Uiso   1.00
O177   O     0.79269   0.50954   0.57408   0.00000  Uiso   1.00
O178   O     0.11164   0.40442   0.64078   0.00000  Uiso   1.00
N179   N     0.73622   0.15409   0.62882   0.00000  Uiso   1.00
N180   N     0.81048   0.45345   0.45295   0.00000  Uiso   1.00
N181   N     0.03778   0.37856   0.50046   0.00000  Uiso   1.00
N182   N     0.74177   0.16562   0.93117   0.00000  Uiso   1.00
N183   N     0.81603   0.46498   0.75530   0.00000  Uiso   1.00
N184   N     0.04333   0.39009   0.80281   0.00000  Uiso   1.00
C185   C     0.67234   0.53334   0.83415   0.00000  Uiso   1.00
C186   C     0.71736   0.54533   0.94331   0.00000  Uiso   1.00
C187   C     0.76163   0.55874   0.86668   0.00000  Uiso   1.00
C188   C     0.79832   0.56820   0.99016   0.00000  Uiso   1.00
C189   C     0.86934   0.58738   0.13028   0.00000  Uiso   1.00
C190   C     0.63486   0.48329   0.89485   0.00000  Uiso   1.00
C191   C     0.60976   0.44454   0.77745   0.00000  Uiso   1.00
C192   C     0.57700   0.40177   0.86014   0.00000  Uiso   1.00
C193   C     0.51991   0.32464   0.92500   0.00000  Uiso   1.00
C194   C     0.65551   0.56658   0.90794   0.00000  Uiso   1.00
C195   C     0.64776   0.59784   0.80156   0.00000  Uiso   1.00
C196   C     0.63237   0.62520   0.89526   0.00000  Uiso   1.00
C197   C     0.60734   0.67738   0.98046   0.00000  Uiso   1.00
C198   C     0.65878   0.52631   0.18971   0.00000  Uiso   1.00
C199   C     0.70999   0.54151   0.13644   0.00000  Uiso   1.00
C200   C     0.74663   0.55096   0.26007   0.00000  Uiso   1.00
C201   C     0.79095   0.56438   0.18363   0.00000  Uiso   1.00
C202   C     0.62749   0.47947   0.08796   0.00000  Uiso   1.00
C203   C     0.59476   0.43676   0.17084   0.00000  Uiso   1.00
C204   C     0.56962   0.39795   0.05361   0.00000  Uiso   1.00
C205   C     0.64814   0.56276   0.10107   0.00000  Uiso   1.00
C206   C     0.63276   0.59007   0.19495   0.00000  Uiso   1.00
C207   C     0.62499   0.62137   0.08874   0.00000  Uiso   1.00
H208   H     0.67807   0.53631   0.68379   0.00000  Uiso   1.00
H209   H     0.76731   0.56168   0.71721   0.00000  Uiso   1.00
H210   H     0.61547   0.44750   0.62801   0.00000  Uiso   1.00
H211   H     0.65346   0.60079   0.65212   0.00000  Uiso   1.00
H212   H     0.86301   0.58811   0.83944   0.00000  Uiso   1.00
H213   H     0.54281   0.34736   0.65133   0.00000  Uiso   1.00
H214   H     0.62293   0.67059   0.70216   0.00000  Uiso   1.00
H215   H     0.65304   0.52334   0.34007   0.00000  Uiso   1.00
H216   H     0.74092   0.54800   0.40951   0.00000  Uiso   1.00
H217   H     0.58907   0.43382   0.32029   0.00000  Uiso   1.00
H218   H     0.62706   0.58710   0.34440   0.00000  Uiso   1.00
H219   H     0.84158   0.57700   0.40133   0.00000  Uiso   1.00
H220   H     0.52138   0.33625   0.21321   0.00000  Uiso   1.00
H221   H     0.60151   0.65949   0.26405   0.00000  Uiso   1.00
O222   O     0.91055   0.59900   0.15422   0.00000  Uiso   1.00
O223   O     0.49046   0.28315   0.90742   0.00000  Uiso   1.00
O224   O     0.59558   0.70722   0.97411   0.00000  Uiso   1.00
N225   N     0.84591   0.58212   0.96215   0.00000  Uiso   1.00
N226   N     0.54655   0.35703   0.78628   0.00000  Uiso   1.00
N227   N     0.62144   0.65922   0.83380   0.00000  Uiso   1.00
N228   N     0.83438   0.57615   0.26450   0.00000  Uiso   1.00
N229   N     0.53502   0.35106   0.08863   0.00000  Uiso   1.00
N230   N     0.60991   0.65324   0.13614   0.00000  Uiso   1.00
C231   C     0.46666   0.13900   0.16748   0.00000  Uiso   1.00
C232   C     0.45467   0.17202   0.27665   0.00000  Uiso   1.00
C233   C     0.44126   0.20289   0.20002   0.00000  Uiso   1.00
C234   C     0.43180   0.23013   0.32349   0.00000  Uiso   1.00
C235   C     0.41262   0.28197   0.46361   0.00000  Uiso   1.00
C236   C     0.51671   0.15157   0.22818   0.00000  Uiso   1.00
C237   C     0.55546   0.16522   0.11079   0.00000  Uiso   1.00
C238   C     0.59823   0.17523   0.19347   0.00000  Uiso   1.00
C239   C     0.67536   0.19527   0.25833   0.00000  Uiso   1.00
C240   C     0.43342   0.08893   0.24128   0.00000  Uiso   1.00
C241   C     0.40216   0.04991   0.13489   0.00000  Uiso   1.00
C242   C     0.37480   0.00718   0.22860   0.00000  Uiso   1.00
C243   C     0.32262   0.92996   0.31379   0.00000  Uiso   1.00
C244   C     0.47369   0.13247   0.52304   0.00000  Uiso   1.00
C245   C     0.45849   0.16848   0.46977   0.00000  Uiso   1.00
C246   C     0.44904   0.19567   0.59340   0.00000  Uiso   1.00
C247   C     0.43562   0.22657   0.51696   0.00000  Uiso   1.00
C248   C     0.52053   0.14802   0.42130   0.00000  Uiso   1.00
C249   C     0.56324   0.15800   0.50417   0.00000  Uiso   1.00
C250   C     0.60205   0.17167   0.38694   0.00000  Uiso   1.00
C251   C     0.43724   0.08538   0.43440   0.00000  Uiso   1.00
C252   C     0.40993   0.04269   0.52828   0.00000  Uiso   1.00
C253   C     0.37863   0.00362   0.42207   0.00000  Uiso   1.00
H254   H     0.46369   0.14176   0.01713   0.00000  Uiso   1.00
H255   H     0.43832   0.20563   0.05055   0.00000  Uiso   1.00
H256   H     0.55250   0.16796   0.96134   0.00000  Uiso   1.00
H257   H     0.39921   0.05267   0.98545   0.00000  Uiso   1.00
H258   H     0.41189   0.27489   0.17277   0.00000  Uiso   1.00
H259   H     0.65264   0.19545   0.98466   0.00000  Uiso   1.00
H260   H     0.32941   0.95234   0.03549   0.00000  Uiso   1.00
H261   H     0.47666   0.12970   0.67340   0.00000  Uiso   1.00
H262   H     0.45200   0.19292   0.74284   0.00000  Uiso   1.00
H263   H     0.56618   0.15525   0.65363   0.00000  Uiso   1.00
H264   H     0.41290   0.03996   0.67774   0.00000  Uiso   1.00
H265   H     0.42300   0.26458   0.73466   0.00000  Uiso   1.00
H266   H     0.66375   0.18513   0.54655   0.00000  Uiso   1.00
H267   H     0.34051   0.94202   0.59738   0.00000  Uiso   1.00
O268   O     0.40100   0.31155   0.48755   0.00000  Uiso   1.00
O269   O     0.71685   0.20731   0.24075   0.00000  Uiso   1.00
O270   O     0.29278   0.88836   0.30744   0.00000  Uiso   1.00
N271   N     0.41788   0.26378   0.29548   0.00000  Uiso   1.00
N272   N     0.64297   0.18952   0.11961   0.00000  Uiso   1.00
N273   N     0.34078   0.96222   0.16713   0.00000  Uiso   1.00
N274   N     0.42385   0.25823   0.59783   0.00000  Uiso   1.00
N275   N     0.64894   0.18397   0.42196   0.00000  Uiso   1.00
N276   N     0.34676   0.95667   0.46948   0.00000  Uiso   1.00
