data_job_02637
_audit_creation_date              2018-12-19
_audit_creation_method            'Materials Studio'
_symmetry_space_group_name_H-M    'P1'
_symmetry_Int_Tables_number       1
_symmetry_cell_setting            triclinic
loop_
_symmetry_equiv_pos_as_xyz
  x,y,z
_cell_length_a                    19.9077
_cell_length_b                    27.3129
_cell_length_c                    9.8986
_cell_angle_alpha                 90.0000
_cell_angle_beta                  90.0000
_cell_angle_gamma                 90.0000
loop_
_atom_site_label
_atom_site_type_symbol
_atom_site_fract_x
_atom_site_fract_y
_atom_site_fract_z
_atom_site_U_iso_or_equiv
_atom_site_adp_type
_atom_site_occupancy
C1     C     0.71514   0.65817   0.60190   0.00000  Uiso   1.00
C2     C     0.69064   0.60755   0.55949   0.00000  Uiso   1.00
C3     C     0.64160   0.59801   0.46338   0.00000  Uiso   1.00
C4     C     0.62629   0.54921   0.43904   0.00000  Uiso   1.00
C5     C     0.58326   0.47637   0.36269   0.00000  Uiso   1.00
C6     C     0.70500   0.66101   0.75439   0.00000  Uiso   1.00
C7     C     0.66805   0.69641   0.82215   0.00000  Uiso   1.00
C8     C     0.66483   0.69261   0.96188   0.00000  Uiso   1.00
C9     C     0.64414   0.70279   0.18813   0.00000  Uiso   1.00
C10    C     0.79091   0.65818   0.57930   0.00000  Uiso   1.00
C11    C     0.82620   0.69122   0.49987   0.00000  Uiso   1.00
C12    C     0.89533   0.68505   0.49220   0.00000  Uiso   1.00
C13    C     0.00802   0.69084   0.44659   0.00000  Uiso   1.00
C14    C     0.77515   0.58847   0.72956   0.00000  Uiso   1.00
C15    C     0.72323   0.56970   0.62884   0.00000  Uiso   1.00
C16    C     0.70799   0.52090   0.60463   0.00000  Uiso   1.00
C17    C     0.65894   0.51128   0.50850   0.00000  Uiso   1.00
C18    C     0.73759   0.62315   0.82374   0.00000  Uiso   1.00
C19    C     0.73444   0.61930   0.96339   0.00000  Uiso   1.00
C20    C     0.69748   0.65469   0.03135   0.00000  Uiso   1.00
C21    C     0.82351   0.62033   0.64864   0.00000  Uiso   1.00
C22    C     0.89259   0.61411   0.64111   0.00000  Uiso   1.00
C23    C     0.92798   0.64713   0.56167   0.00000  Uiso   1.00
H24    H     0.68977   0.68764   0.54792   0.00000  Uiso   1.00
H25    H     0.61638   0.62731   0.40975   0.00000  Uiso   1.00
H26    H     0.64283   0.72571   0.76847   0.00000  Uiso   1.00
H27    H     0.80096   0.72051   0.44622   0.00000  Uiso   1.00
H28    H     0.54938   0.54374   0.28718   0.00000  Uiso   1.00
H29    H     0.60517   0.75121   0.04355   0.00000  Uiso   1.00
H30    H     0.93862   0.74026   0.36405   0.00000  Uiso   1.00
H31    H     0.80053   0.55900   0.78355   0.00000  Uiso   1.00
H32    H     0.73322   0.49161   0.65830   0.00000  Uiso   1.00
H33    H     0.75967   0.59000   0.01702   0.00000  Uiso   1.00
H34    H     0.91780   0.58481   0.69478   0.00000  Uiso   1.00
H35    H     0.64421   0.43359   0.48892   0.00000  Uiso   1.00
H36    H     0.70000   0.64107   0.24529   0.00000  Uiso   1.00
H37    H     0.03344   0.63011   0.56578   0.00000  Uiso   1.00
O38    O     0.55051   0.44666   0.30144   0.00000  Uiso   1.00
O39    O     0.62371   0.71886   0.29377   0.00000  Uiso   1.00
O40    O     0.06118   0.70449   0.40227   0.00000  Uiso   1.00
N41    N     0.58095   0.52706   0.35183   0.00000  Uiso   1.00
N42    N     0.63309   0.72103   0.05899   0.00000  Uiso   1.00
N43    N     0.94484   0.71080   0.42374   0.00000  Uiso   1.00
N44    N     0.63197   0.46779   0.46038   0.00000  Uiso   1.00
N45    N     0.68412   0.66177   0.16754   0.00000  Uiso   1.00
N46    N     0.99587   0.65153   0.53229   0.00000  Uiso   1.00
C47    C     0.21514   0.15817   0.60190   0.00000  Uiso   1.00
C48    C     0.19064   0.10755   0.55949   0.00000  Uiso   1.00
C49    C     0.14160   0.09801   0.46338   0.00000  Uiso   1.00
C50    C     0.12629   0.04921   0.43904   0.00000  Uiso   1.00
C51    C     0.08326   0.97637   0.36269   0.00000  Uiso   1.00
C52    C     0.20500   0.16101   0.75439   0.00000  Uiso   1.00
C53    C     0.16805   0.19641   0.82215   0.00000  Uiso   1.00
C54    C     0.16483   0.19261   0.96188   0.00000  Uiso   1.00
C55    C     0.14414   0.20279   0.18813   0.00000  Uiso   1.00
C56    C     0.29091   0.15818   0.57930   0.00000  Uiso   1.00
C57    C     0.32620   0.19122   0.49987   0.00000  Uiso   1.00
C58    C     0.39533   0.18505   0.49220   0.00000  Uiso   1.00
C59    C     0.50802   0.19084   0.44659   0.00000  Uiso   1.00
C60    C     0.27515   0.08847   0.72956   0.00000  Uiso   1.00
C61    C     0.22323   0.06970   0.62884   0.00000  Uiso   1.00
C62    C     0.20799   0.02090   0.60463   0.00000  Uiso   1.00
C63    C     0.15894   0.01128   0.50850   0.00000  Uiso   1.00
C64    C     0.23759   0.12315   0.82374   0.00000  Uiso   1.00
C65    C     0.23444   0.11930   0.96339   0.00000  Uiso   1.00
C66    C     0.19748   0.15469   0.03135   0.00000  Uiso   1.00
C67    C     0.32351   0.12033   0.64864   0.00000  Uiso   1.00
C68    C     0.39259   0.11411   0.64111   0.00000  Uiso   1.00
C69    C     0.42798   0.14713   0.56167   0.00000  Uiso   1.00
H70    H     0.18977   0.18764   0.54792   0.00000  Uiso   1.00
H71    H     0.11638   0.12731   0.40975   0.00000  Uiso   1.00
H72    H     0.14283   0.22571   0.76847   0.00000  Uiso   1.00
H73    H     0.30096   0.22051   0.44622   0.00000  Uiso   1.00
H74    H     0.04938   0.04374   0.28718   0.00000  Uiso   1.00
H75    H     0.10517   0.25121   0.04355   0.00000  Uiso   1.00
H76    H     0.43862   0.24026   0.36405   0.00000  Uiso   1.00
H77    H     0.30053   0.05900   0.78355   0.00000  Uiso   1.00
H78    H     0.23322   0.99161   0.65830   0.00000  Uiso   1.00
H79    H     0.25967   0.09000   0.01702   0.00000  Uiso   1.00
H80    H     0.41780   0.08481   0.69478   0.00000  Uiso   1.00
H81    H     0.14421   0.93359   0.48892   0.00000  Uiso   1.00
H82    H     0.20000   0.14107   0.24529   0.00000  Uiso   1.00
H83    H     0.53344   0.13011   0.56578   0.00000  Uiso   1.00
O84    O     0.05051   0.94666   0.30144   0.00000  Uiso   1.00
O85    O     0.12371   0.21886   0.29377   0.00000  Uiso   1.00
O86    O     0.56118   0.20449   0.40227   0.00000  Uiso   1.00
N87    N     0.08095   0.02706   0.35183   0.00000  Uiso   1.00
N88    N     0.13309   0.22103   0.05899   0.00000  Uiso   1.00
N89    N     0.44484   0.21080   0.42374   0.00000  Uiso   1.00
N90    N     0.13197   0.96779   0.46038   0.00000  Uiso   1.00
N91    N     0.18412   0.16177   0.16754   0.00000  Uiso   1.00
N92    N     0.49587   0.15153   0.53229   0.00000  Uiso   1.00
C93    C     0.28486   0.34183   0.60190   0.00000  Uiso   1.00
C94    C     0.30936   0.39245   0.55949   0.00000  Uiso   1.00
C95    C     0.35840   0.40199   0.46338   0.00000  Uiso   1.00
C96    C     0.37371   0.45079   0.43904   0.00000  Uiso   1.00
C97    C     0.41674   0.52363   0.36269   0.00000  Uiso   1.00
C98    C     0.29500   0.33899   0.75439   0.00000  Uiso   1.00
C99    C     0.33195   0.30359   0.82215   0.00000  Uiso   1.00
C100   C     0.33517   0.30739   0.96188   0.00000  Uiso   1.00
C101   C     0.35586   0.29721   0.18813   0.00000  Uiso   1.00
C102   C     0.20909   0.34182   0.57930   0.00000  Uiso   1.00
C103   C     0.17380   0.30878   0.49987   0.00000  Uiso   1.00
C104   C     0.10467   0.31495   0.49220   0.00000  Uiso   1.00
C105   C     0.99198   0.30916   0.44659   0.00000  Uiso   1.00
C106   C     0.22485   0.41153   0.72956   0.00000  Uiso   1.00
C107   C     0.27677   0.43030   0.62884   0.00000  Uiso   1.00
C108   C     0.29201   0.47910   0.60463   0.00000  Uiso   1.00
C109   C     0.34106   0.48872   0.50850   0.00000  Uiso   1.00
C110   C     0.26241   0.37685   0.82374   0.00000  Uiso   1.00
C111   C     0.26556   0.38070   0.96339   0.00000  Uiso   1.00
C112   C     0.30252   0.34531   0.03135   0.00000  Uiso   1.00
C113   C     0.17649   0.37967   0.64864   0.00000  Uiso   1.00
C114   C     0.10741   0.38589   0.64111   0.00000  Uiso   1.00
C115   C     0.07202   0.35287   0.56167   0.00000  Uiso   1.00
H116   H     0.31023   0.31236   0.54792   0.00000  Uiso   1.00
H117   H     0.38362   0.37269   0.40975   0.00000  Uiso   1.00
H118   H     0.35717   0.27429   0.76847   0.00000  Uiso   1.00
H119   H     0.19904   0.27949   0.44622   0.00000  Uiso   1.00
H120   H     0.45062   0.45626   0.28718   0.00000  Uiso   1.00
H121   H     0.39483   0.24879   0.04355   0.00000  Uiso   1.00
H122   H     0.06138   0.25974   0.36405   0.00000  Uiso   1.00
H123   H     0.19947   0.44100   0.78355   0.00000  Uiso   1.00
H124   H     0.26678   0.50839   0.65830   0.00000  Uiso   1.00
H125   H     0.24033   0.41000   0.01702   0.00000  Uiso   1.00
H126   H     0.08220   0.41519   0.69478   0.00000  Uiso   1.00
H127   H     0.35579   0.56641   0.48892   0.00000  Uiso   1.00
H128   H     0.30000   0.35893   0.24529   0.00000  Uiso   1.00
H129   H     0.96656   0.36989   0.56578   0.00000  Uiso   1.00
O130   O     0.44949   0.55334   0.30144   0.00000  Uiso   1.00
O131   O     0.37629   0.28114   0.29377   0.00000  Uiso   1.00
O132   O     0.93882   0.29551   0.40227   0.00000  Uiso   1.00
N133   N     0.41905   0.47294   0.35183   0.00000  Uiso   1.00
N134   N     0.36691   0.27897   0.05899   0.00000  Uiso   1.00
N135   N     0.05516   0.28920   0.42374   0.00000  Uiso   1.00
N136   N     0.36803   0.53221   0.46038   0.00000  Uiso   1.00
N137   N     0.31588   0.33823   0.16754   0.00000  Uiso   1.00
N138   N     0.00413   0.34847   0.53229   0.00000  Uiso   1.00
C139   C     0.78486   0.84183   0.60190   0.00000  Uiso   1.00
C140   C     0.80936   0.89245   0.55949   0.00000  Uiso   1.00
C141   C     0.85840   0.90199   0.46338   0.00000  Uiso   1.00
C142   C     0.87371   0.95079   0.43904   0.00000  Uiso   1.00
C143   C     0.91674   0.02363   0.36269   0.00000  Uiso   1.00
C144   C     0.79500   0.83899   0.75439   0.00000  Uiso   1.00
C145   C     0.83195   0.80359   0.82215   0.00000  Uiso   1.00
C146   C     0.83517   0.80739   0.96188   0.00000  Uiso   1.00
C147   C     0.85586   0.79721   0.18813   0.00000  Uiso   1.00
C148   C     0.70909   0.84182   0.57930   0.00000  Uiso   1.00
C149   C     0.67380   0.80878   0.49987   0.00000  Uiso   1.00
C150   C     0.60467   0.81495   0.49220   0.00000  Uiso   1.00
C151   C     0.49198   0.80916   0.44659   0.00000  Uiso   1.00
C152   C     0.72485   0.91153   0.72956   0.00000  Uiso   1.00
C153   C     0.77677   0.93030   0.62884   0.00000  Uiso   1.00
C154   C     0.79201   0.97910   0.60463   0.00000  Uiso   1.00
C155   C     0.84106   0.98872   0.50850   0.00000  Uiso   1.00
C156   C     0.76241   0.87685   0.82374   0.00000  Uiso   1.00
C157   C     0.76556   0.88070   0.96339   0.00000  Uiso   1.00
C158   C     0.80252   0.84531   0.03135   0.00000  Uiso   1.00
C159   C     0.67649   0.87967   0.64864   0.00000  Uiso   1.00
C160   C     0.60741   0.88589   0.64111   0.00000  Uiso   1.00
C161   C     0.57202   0.85287   0.56167   0.00000  Uiso   1.00
H162   H     0.81023   0.81236   0.54792   0.00000  Uiso   1.00
H163   H     0.88362   0.87269   0.40975   0.00000  Uiso   1.00
H164   H     0.85717   0.77429   0.76847   0.00000  Uiso   1.00
H165   H     0.69904   0.77949   0.44622   0.00000  Uiso   1.00
H166   H     0.95062   0.95626   0.28718   0.00000  Uiso   1.00
H167   H     0.89483   0.74879   0.04355   0.00000  Uiso   1.00
H168   H     0.56138   0.75974   0.36405   0.00000  Uiso   1.00
H169   H     0.69947   0.94100   0.78355   0.00000  Uiso   1.00
H170   H     0.76678   0.00839   0.65830   0.00000  Uiso   1.00
H171   H     0.74033   0.91000   0.01702   0.00000  Uiso   1.00
H172   H     0.58220   0.91519   0.69478   0.00000  Uiso   1.00
H173   H     0.85579   0.06641   0.48892   0.00000  Uiso   1.00
H174   H     0.80000   0.85893   0.24529   0.00000  Uiso   1.00
H175   H     0.46656   0.86989   0.56578   0.00000  Uiso   1.00
O176   O     0.94949   0.05334   0.30144   0.00000  Uiso   1.00
O177   O     0.87629   0.78114   0.29377   0.00000  Uiso   1.00
O178   O     0.43882   0.79551   0.40227   0.00000  Uiso   1.00
N179   N     0.91905   0.97294   0.35183   0.00000  Uiso   1.00
N180   N     0.86691   0.77897   0.05899   0.00000  Uiso   1.00
N181   N     0.55516   0.78920   0.42374   0.00000  Uiso   1.00
N182   N     0.86803   0.03221   0.46038   0.00000  Uiso   1.00
N183   N     0.81588   0.83823   0.16754   0.00000  Uiso   1.00
N184   N     0.50413   0.84847   0.53229   0.00000  Uiso   1.00
C185   C     0.71514   0.34183   0.10190   0.00000  Uiso   1.00
C186   C     0.69064   0.39245   0.05949   0.00000  Uiso   1.00
C187   C     0.64160   0.40199   0.96338   0.00000  Uiso   1.00
C188   C     0.62629   0.45079   0.93904   0.00000  Uiso   1.00
C189   C     0.58326   0.52363   0.86269   0.00000  Uiso   1.00
C190   C     0.70500   0.33899   0.25439   0.00000  Uiso   1.00
C191   C     0.66805   0.30359   0.32215   0.00000  Uiso   1.00
C192   C     0.66483   0.30739   0.46188   0.00000  Uiso   1.00
C193   C     0.64414   0.29721   0.68813   0.00000  Uiso   1.00
C194   C     0.79091   0.34182   0.07930   0.00000  Uiso   1.00
C195   C     0.82620   0.30878   0.99987   0.00000  Uiso   1.00
C196   C     0.89533   0.31495   0.99220   0.00000  Uiso   1.00
C197   C     0.00802   0.30916   0.94659   0.00000  Uiso   1.00
C198   C     0.77515   0.41153   0.22956   0.00000  Uiso   1.00
C199   C     0.72323   0.43030   0.12884   0.00000  Uiso   1.00
C200   C     0.70799   0.47910   0.10463   0.00000  Uiso   1.00
C201   C     0.65894   0.48872   0.00850   0.00000  Uiso   1.00
C202   C     0.73759   0.37685   0.32374   0.00000  Uiso   1.00
C203   C     0.73444   0.38070   0.46339   0.00000  Uiso   1.00
C204   C     0.69748   0.34531   0.53135   0.00000  Uiso   1.00
C205   C     0.82351   0.37967   0.14864   0.00000  Uiso   1.00
C206   C     0.89259   0.38589   0.14111   0.00000  Uiso   1.00
C207   C     0.92798   0.35287   0.06167   0.00000  Uiso   1.00
H208   H     0.68977   0.31236   0.04792   0.00000  Uiso   1.00
H209   H     0.61638   0.37269   0.90975   0.00000  Uiso   1.00
H210   H     0.64283   0.27429   0.26847   0.00000  Uiso   1.00
H211   H     0.80096   0.27949   0.94622   0.00000  Uiso   1.00
H212   H     0.54938   0.45626   0.78718   0.00000  Uiso   1.00
H213   H     0.60517   0.24879   0.54355   0.00000  Uiso   1.00
H214   H     0.93862   0.25974   0.86405   0.00000  Uiso   1.00
H215   H     0.80053   0.44100   0.28355   0.00000  Uiso   1.00
H216   H     0.73322   0.50839   0.15830   0.00000  Uiso   1.00
H217   H     0.75967   0.41000   0.51702   0.00000  Uiso   1.00
H218   H     0.91780   0.41519   0.19478   0.00000  Uiso   1.00
H219   H     0.64421   0.56641   0.98892   0.00000  Uiso   1.00
H220   H     0.70000   0.35893   0.74529   0.00000  Uiso   1.00
H221   H     0.03344   0.36989   0.06578   0.00000  Uiso   1.00
O222   O     0.55051   0.55334   0.80144   0.00000  Uiso   1.00
O223   O     0.62371   0.28114   0.79377   0.00000  Uiso   1.00
O224   O     0.06118   0.29551   0.90227   0.00000  Uiso   1.00
N225   N     0.58095   0.47294   0.85183   0.00000  Uiso   1.00
N226   N     0.63309   0.27897   0.55899   0.00000  Uiso   1.00
N227   N     0.94484   0.28920   0.92374   0.00000  Uiso   1.00
N228   N     0.63197   0.53221   0.96038   0.00000  Uiso   1.00
N229   N     0.68412   0.33823   0.66754   0.00000  Uiso   1.00
N230   N     0.99587   0.34847   0.03229   0.00000  Uiso   1.00
C231   C     0.21514   0.84183   0.10190   0.00000  Uiso   1.00
C232   C     0.19064   0.89245   0.05949   0.00000  Uiso   1.00
C233   C     0.14160   0.90199   0.96338   0.00000  Uiso   1.00
C234   C     0.12629   0.95079   0.93904   0.00000  Uiso   1.00
C235   C     0.08326   0.02363   0.86269   0.00000  Uiso   1.00
C236   C     0.20500   0.83899   0.25439   0.00000  Uiso   1.00
C237   C     0.16805   0.80359   0.32215   0.00000  Uiso   1.00
C238   C     0.16483   0.80739   0.46188   0.00000  Uiso   1.00
C239   C     0.14414   0.79721   0.68813   0.00000  Uiso   1.00
C240   C     0.29091   0.84182   0.07930   0.00000  Uiso   1.00
C241   C     0.32620   0.80878   0.99987   0.00000  Uiso   1.00
C242   C     0.39533   0.81495   0.99220   0.00000  Uiso   1.00
C243   C     0.50802   0.80916   0.94659   0.00000  Uiso   1.00
C244   C     0.27515   0.91153   0.22956   0.00000  Uiso   1.00
C245   C     0.22323   0.93030   0.12884   0.00000  Uiso   1.00
C246   C     0.20799   0.97910   0.10463   0.00000  Uiso   1.00
C247   C     0.15894   0.98872   0.00850   0.00000  Uiso   1.00
C248   C     0.23759   0.87685   0.32374   0.00000  Uiso   1.00
C249   C     0.23444   0.88070   0.46339   0.00000  Uiso   1.00
C250   C     0.19748   0.84531   0.53135   0.00000  Uiso   1.00
C251   C     0.32351   0.87967   0.14864   0.00000  Uiso   1.00
C252   C     0.39259   0.88589   0.14111   0.00000  Uiso   1.00
C253   C     0.42798   0.85287   0.06167   0.00000  Uiso   1.00
H254   H     0.18977   0.81236   0.04792   0.00000  Uiso   1.00
H255   H     0.11638   0.87269   0.90975   0.00000  Uiso   1.00
H256   H     0.14283   0.77429   0.26847   0.00000  Uiso   1.00
H257   H     0.30096   0.77949   0.94622   0.00000  Uiso   1.00
H258   H     0.04938   0.95626   0.78718   0.00000  Uiso   1.00
H259   H     0.10517   0.74879   0.54355   0.00000  Uiso   1.00
H260   H     0.43862   0.75974   0.86405   0.00000  Uiso   1.00
H261   H     0.30053   0.94100   0.28355   0.00000  Uiso   1.00
H262   H     0.23322   0.00839   0.15830   0.00000  Uiso   1.00
H263   H     0.25967   0.91000   0.51702   0.00000  Uiso   1.00
H264   H     0.41780   0.91519   0.19478   0.00000  Uiso   1.00
H265   H     0.14421   0.06641   0.98892   0.00000  Uiso   1.00
H266   H     0.20000   0.85893   0.74529   0.00000  Uiso   1.00
H267   H     0.53344   0.86989   0.06578   0.00000  Uiso   1.00
O268   O     0.05051   0.05334   0.80144   0.00000  Uiso   1.00
O269   O     0.12371   0.78114   0.79377   0.00000  Uiso   1.00
O270   O     0.56118   0.79551   0.90227   0.00000  Uiso   1.00
N271   N     0.08095   0.97294   0.85183   0.00000  Uiso   1.00
N272   N     0.13309   0.77897   0.55899   0.00000  Uiso   1.00
N273   N     0.44484   0.78920   0.92374   0.00000  Uiso   1.00
N274   N     0.13197   0.03221   0.96038   0.00000  Uiso   1.00
N275   N     0.18412   0.83823   0.66754   0.00000  Uiso   1.00
N276   N     0.49587   0.84847   0.03229   0.00000  Uiso   1.00
C277   C     0.28486   0.65817   0.10190   0.00000  Uiso   1.00
C278   C     0.30936   0.60755   0.05949   0.00000  Uiso   1.00
C279   C     0.35840   0.59801   0.96338   0.00000  Uiso   1.00
C280   C     0.37371   0.54921   0.93904   0.00000  Uiso   1.00
C281   C     0.41674   0.47637   0.86269   0.00000  Uiso   1.00
C282   C     0.29500   0.66101   0.25439   0.00000  Uiso   1.00
C283   C     0.33195   0.69641   0.32215   0.00000  Uiso   1.00
C284   C     0.33517   0.69261   0.46188   0.00000  Uiso   1.00
C285   C     0.35586   0.70279   0.68813   0.00000  Uiso   1.00
C286   C     0.20909   0.65818   0.07930   0.00000  Uiso   1.00
C287   C     0.17380   0.69122   0.99987   0.00000  Uiso   1.00
C288   C     0.10467   0.68505   0.99220   0.00000  Uiso   1.00
C289   C     0.99198   0.69084   0.94659   0.00000  Uiso   1.00
C290   C     0.22485   0.58847   0.22956   0.00000  Uiso   1.00
C291   C     0.27677   0.56970   0.12884   0.00000  Uiso   1.00
C292   C     0.29201   0.52090   0.10463   0.00000  Uiso   1.00
C293   C     0.34106   0.51128   0.00850   0.00000  Uiso   1.00
C294   C     0.26241   0.62315   0.32374   0.00000  Uiso   1.00
C295   C     0.26556   0.61930   0.46339   0.00000  Uiso   1.00
C296   C     0.30252   0.65469   0.53135   0.00000  Uiso   1.00
C297   C     0.17649   0.62033   0.14864   0.00000  Uiso   1.00
C298   C     0.10741   0.61411   0.14111   0.00000  Uiso   1.00
C299   C     0.07202   0.64713   0.06167   0.00000  Uiso   1.00
H300   H     0.31023   0.68764   0.04792   0.00000  Uiso   1.00
H301   H     0.38362   0.62731   0.90975   0.00000  Uiso   1.00
H302   H     0.35717   0.72571   0.26847   0.00000  Uiso   1.00
H303   H     0.19904   0.72051   0.94622   0.00000  Uiso   1.00
H304   H     0.45062   0.54374   0.78718   0.00000  Uiso   1.00
H305   H     0.39483   0.75121   0.54355   0.00000  Uiso   1.00
H306   H     0.06138   0.74026   0.86405   0.00000  Uiso   1.00
H307   H     0.19947   0.55900   0.28355   0.00000  Uiso   1.00
H308   H     0.26678   0.49161   0.15830   0.00000  Uiso   1.00
H309   H     0.24033   0.59000   0.51702   0.00000  Uiso   1.00
H310   H     0.08220   0.58481   0.19478   0.00000  Uiso   1.00
H311   H     0.35579   0.43359   0.98892   0.00000  Uiso   1.00
H312   H     0.30000   0.64107   0.74529   0.00000  Uiso   1.00
H313   H     0.96656   0.63011   0.06578   0.00000  Uiso   1.00
O314   O     0.44949   0.44666   0.80144   0.00000  Uiso   1.00
O315   O     0.37629   0.71886   0.79377   0.00000  Uiso   1.00
O316   O     0.93882   0.70449   0.90227   0.00000  Uiso   1.00
N317   N     0.41905   0.52706   0.85183   0.00000  Uiso   1.00
N318   N     0.36691   0.72103   0.55899   0.00000  Uiso   1.00
N319   N     0.05516   0.71080   0.92374   0.00000  Uiso   1.00
N320   N     0.36803   0.46779   0.96038   0.00000  Uiso   1.00
N321   N     0.31588   0.66177   0.66754   0.00000  Uiso   1.00
N322   N     0.00413   0.65153   0.03229   0.00000  Uiso   1.00
C323   C     0.78486   0.15817   0.10190   0.00000  Uiso   1.00
C324   C     0.80936   0.10755   0.05949   0.00000  Uiso   1.00
C325   C     0.85840   0.09801   0.96338   0.00000  Uiso   1.00
C326   C     0.87371   0.04921   0.93904   0.00000  Uiso   1.00
C327   C     0.91674   0.97637   0.86269   0.00000  Uiso   1.00
C328   C     0.79500   0.16101   0.25439   0.00000  Uiso   1.00
C329   C     0.83195   0.19641   0.32215   0.00000  Uiso   1.00
C330   C     0.83517   0.19261   0.46188   0.00000  Uiso   1.00
C331   C     0.85586   0.20279   0.68813   0.00000  Uiso   1.00
C332   C     0.70909   0.15818   0.07930   0.00000  Uiso   1.00
C333   C     0.67380   0.19122   0.99987   0.00000  Uiso   1.00
C334   C     0.60467   0.18505   0.99220   0.00000  Uiso   1.00
C335   C     0.49198   0.19084   0.94659   0.00000  Uiso   1.00
C336   C     0.72485   0.08847   0.22956   0.00000  Uiso   1.00
C337   C     0.77677   0.06970   0.12884   0.00000  Uiso   1.00
C338   C     0.79201   0.02090   0.10463   0.00000  Uiso   1.00
C339   C     0.84106   0.01128   0.00850   0.00000  Uiso   1.00
C340   C     0.76241   0.12315   0.32374   0.00000  Uiso   1.00
C341   C     0.76556   0.11930   0.46339   0.00000  Uiso   1.00
C342   C     0.80252   0.15469   0.53135   0.00000  Uiso   1.00
C343   C     0.67649   0.12033   0.14864   0.00000  Uiso   1.00
C344   C     0.60741   0.11411   0.14111   0.00000  Uiso   1.00
C345   C     0.57202   0.14713   0.06167   0.00000  Uiso   1.00
H346   H     0.81023   0.18764   0.04792   0.00000  Uiso   1.00
H347   H     0.88362   0.12731   0.90975   0.00000  Uiso   1.00
H348   H     0.85717   0.22571   0.26847   0.00000  Uiso   1.00
H349   H     0.69904   0.22051   0.94622   0.00000  Uiso   1.00
H350   H     0.95062   0.04374   0.78718   0.00000  Uiso   1.00
H351   H     0.89483   0.25121   0.54355   0.00000  Uiso   1.00
H352   H     0.56138   0.24026   0.86405   0.00000  Uiso   1.00
H353   H     0.69947   0.05900   0.28355   0.00000  Uiso   1.00
H354   H     0.76678   0.99161   0.15830   0.00000  Uiso   1.00
H355   H     0.74033   0.09000   0.51702   0.00000  Uiso   1.00
H356   H     0.58220   0.08481   0.19478   0.00000  Uiso   1.00
H357   H     0.85579   0.93359   0.98892   0.00000  Uiso   1.00
H358   H     0.80000   0.14107   0.74529   0.00000  Uiso   1.00
H359   H     0.46656   0.13011   0.06578   0.00000  Uiso   1.00
O360   O     0.94949   0.94666   0.80144   0.00000  Uiso   1.00
O361   O     0.87629   0.21886   0.79377   0.00000  Uiso   1.00
O362   O     0.43882   0.20449   0.90227   0.00000  Uiso   1.00
N363   N     0.91905   0.02706   0.85183   0.00000  Uiso   1.00
N364   N     0.86691   0.22103   0.55899   0.00000  Uiso   1.00
N365   N     0.55516   0.21080   0.92374   0.00000  Uiso   1.00
N366   N     0.86803   0.96779   0.96038   0.00000  Uiso   1.00
N367   N     0.81588   0.16177   0.66754   0.00000  Uiso   1.00
N368   N     0.50413   0.15153   0.03229   0.00000  Uiso   1.00
