data_job_00868
_audit_creation_date              2018-12-19
_audit_creation_method            'Materials Studio'
_symmetry_space_group_name_H-M    'P1'
_symmetry_Int_Tables_number       1
_symmetry_cell_setting            triclinic
loop_
_symmetry_equiv_pos_as_xyz
  x,y,z
_cell_length_a                    40.7927
_cell_length_b                    40.7927
_cell_length_c                    6.9784
_cell_angle_alpha                 90.0000
_cell_angle_beta                  90.0000
_cell_angle_gamma                 120.0000
loop_
_atom_site_label
_atom_site_type_symbol
_atom_site_fract_x
_atom_site_fract_y
_atom_site_fract_z
_atom_site_U_iso_or_equiv
_atom_site_adp_type
_atom_site_occupancy
C1     C     0.99257   0.66217   0.93086   0.00000  Uiso   1.00
C2     C     0.96220   0.66422   0.81270   0.00000  Uiso   1.00
C3     C     0.92962   0.66242   0.88468   0.00000  Uiso   1.00
C4     C     0.90537   0.66479   0.75307   0.00000  Uiso   1.00
C5     C     0.85697   0.66734   0.59947   0.00000  Uiso   1.00
C6     C     0.99597   0.62939   0.84823   0.00000  Uiso   1.00
C7     C     0.99180   0.59831   0.95010   0.00000  Uiso   1.00
C8     C     0.99598   0.57138   0.84841   0.00000  Uiso   1.00
C9     C     0.00005   0.51987   0.75001   0.00000  Uiso   1.00
C10    C     0.02972   0.69799   0.88377   0.00000  Uiso   1.00
C11    C     0.05392   0.72459   0.01552   0.00000  Uiso   1.00
C12    C     0.08653   0.75540   0.94375   0.00000  Uiso   1.00
C13    C     0.14299   0.81040   0.90053   0.00000  Uiso   1.00
C14    C     0.00743   0.66960   0.56913   0.00000  Uiso   1.00
C15    C     0.97027   0.66826   0.61622   0.00000  Uiso   1.00
C16    C     0.94606   0.67064   0.48447   0.00000  Uiso   1.00
C17    C     0.91345   0.66884   0.55624   0.00000  Uiso   1.00
C18    C     0.00404   0.63343   0.65176   0.00000  Uiso   1.00
C19    C     0.00824   0.60653   0.54990   0.00000  Uiso   1.00
C20    C     0.00407   0.57542   0.65158   0.00000  Uiso   1.00
C21    C     0.03779   0.70203   0.68729   0.00000  Uiso   1.00
C22    C     0.07036   0.73281   0.61531   0.00000  Uiso   1.00
C23    C     0.09461   0.75945   0.74692   0.00000  Uiso   1.00
H24    H     0.98629   0.65903   0.08382   0.00000  Uiso   1.00
H25    H     0.92338   0.65929   0.03674   0.00000  Uiso   1.00
H26    H     0.98556   0.59520   0.10215   0.00000  Uiso   1.00
H27    H     0.04767   0.72145   0.16755   0.00000  Uiso   1.00
H28    H     0.85720   0.66134   0.89787   0.00000  Uiso   1.00
H29    H     0.98831   0.52621   0.03582   0.00000  Uiso   1.00
H30    H     0.11928   0.79245   0.17374   0.00000  Uiso   1.00
H31    H     0.01371   0.67275   0.41616   0.00000  Uiso   1.00
H32    H     0.95231   0.67376   0.33243   0.00000  Uiso   1.00
H33    H     0.01449   0.60967   0.39786   0.00000  Uiso   1.00
H34    H     0.07660   0.73592   0.46326   0.00000  Uiso   1.00
H35    H     0.88067   0.67309   0.32624   0.00000  Uiso   1.00
H36    H     0.01179   0.53795   0.46419   0.00000  Uiso   1.00
H37    H     0.14276   0.80419   0.60210   0.00000  Uiso   1.00
O38    O     0.82804   0.66762   0.56902   0.00000  Uiso   1.00
O39    O     0.00006   0.49034   0.75001   0.00000  Uiso   1.00
O40    O     0.17190   0.83963   0.93096   0.00000  Uiso   1.00
N41    N     0.87115   0.66398   0.77483   0.00000  Uiso   1.00
N42    N     0.99372   0.53763   0.90380   0.00000  Uiso   1.00
N43    N     0.11618   0.78653   0.03275   0.00000  Uiso   1.00
N44    N     0.88379   0.67030   0.46724   0.00000  Uiso   1.00
N45    N     0.00636   0.54395   0.59621   0.00000  Uiso   1.00
N46    N     0.12882   0.79285   0.72516   0.00000  Uiso   1.00
C47    C     0.33783   0.33040   0.59753   0.00000  Uiso   1.00
C48    C     0.33578   0.29798   0.47936   0.00000  Uiso   1.00
C49    C     0.33758   0.26721   0.55134   0.00000  Uiso   1.00
C50    C     0.33521   0.24058   0.41974   0.00000  Uiso   1.00
C51    C     0.33266   0.18963   0.26613   0.00000  Uiso   1.00
C52    C     0.37061   0.36658   0.51490   0.00000  Uiso   1.00
C53    C     0.40169   0.39349   0.61677   0.00000  Uiso   1.00
C54    C     0.42862   0.42461   0.51508   0.00000  Uiso   1.00
C55    C     0.48013   0.48019   0.41667   0.00000  Uiso   1.00
C56    C     0.30201   0.33172   0.55044   0.00000  Uiso   1.00
C57    C     0.27541   0.32934   0.68219   0.00000  Uiso   1.00
C58    C     0.24460   0.33112   0.61042   0.00000  Uiso   1.00
C59    C     0.18960   0.33258   0.56719   0.00000  Uiso   1.00
C60    C     0.33040   0.33782   0.23580   0.00000  Uiso   1.00
C61    C     0.33174   0.30201   0.28289   0.00000  Uiso   1.00
C62    C     0.32936   0.27542   0.15113   0.00000  Uiso   1.00
C63    C     0.33116   0.24461   0.22291   0.00000  Uiso   1.00
C64    C     0.36657   0.37061   0.31843   0.00000  Uiso   1.00
C65    C     0.39347   0.40170   0.21656   0.00000  Uiso   1.00
C66    C     0.42458   0.42865   0.31825   0.00000  Uiso   1.00
C67    C     0.29797   0.33576   0.35396   0.00000  Uiso   1.00
C68    C     0.26719   0.33755   0.28198   0.00000  Uiso   1.00
C69    C     0.24055   0.33517   0.41359   0.00000  Uiso   1.00
H70    H     0.34097   0.32726   0.75049   0.00000  Uiso   1.00
H71    H     0.34071   0.26410   0.70340   0.00000  Uiso   1.00
H72    H     0.40480   0.39036   0.76882   0.00000  Uiso   1.00
H73    H     0.27855   0.32622   0.83422   0.00000  Uiso   1.00
H74    H     0.33866   0.19585   0.56454   0.00000  Uiso   1.00
H75    H     0.47379   0.46209   0.70249   0.00000  Uiso   1.00
H76    H     0.20755   0.32684   0.84041   0.00000  Uiso   1.00
H77    H     0.32725   0.34097   0.08283   0.00000  Uiso   1.00
H78    H     0.32624   0.27855   0.99910   0.00000  Uiso   1.00
H79    H     0.39033   0.40482   0.06452   0.00000  Uiso   1.00
H80    H     0.26408   0.34067   0.12992   0.00000  Uiso   1.00
H81    H     0.32691   0.20759   0.99290   0.00000  Uiso   1.00
H82    H     0.46205   0.47383   0.13086   0.00000  Uiso   1.00
H83    H     0.19581   0.33857   0.26877   0.00000  Uiso   1.00
O84    O     0.33238   0.16042   0.23568   0.00000  Uiso   1.00
O85    O     0.50966   0.50972   0.41668   0.00000  Uiso   1.00
O86    O     0.16037   0.33227   0.59762   0.00000  Uiso   1.00
N87    N     0.33602   0.20718   0.44150   0.00000  Uiso   1.00
N88    N     0.46237   0.45609   0.57047   0.00000  Uiso   1.00
N89    N     0.21347   0.32965   0.69942   0.00000  Uiso   1.00
N90    N     0.32970   0.21349   0.13391   0.00000  Uiso   1.00
N91    N     0.45605   0.46241   0.26288   0.00000  Uiso   1.00
N92    N     0.20715   0.33596   0.39183   0.00000  Uiso   1.00
C93    C     0.66960   0.00743   0.26420   0.00000  Uiso   1.00
C94    C     0.70202   0.03780   0.14603   0.00000  Uiso   1.00
C95    C     0.73279   0.07038   0.21801   0.00000  Uiso   1.00
C96    C     0.75942   0.09463   0.08641   0.00000  Uiso   1.00
C97    C     0.81037   0.14303   0.93280   0.00000  Uiso   1.00
C98    C     0.63342   0.00403   0.18156   0.00000  Uiso   1.00
C99    C     0.60651   0.00820   0.28344   0.00000  Uiso   1.00
C100   C     0.57539   0.00402   0.18174   0.00000  Uiso   1.00
C101   C     0.51981   0.99995   0.08334   0.00000  Uiso   1.00
C102   C     0.66828   0.97028   0.21710   0.00000  Uiso   1.00
C103   C     0.67066   0.94608   0.34886   0.00000  Uiso   1.00
C104   C     0.66888   0.91347   0.27709   0.00000  Uiso   1.00
C105   C     0.66742   0.85701   0.23386   0.00000  Uiso   1.00
C106   C     0.66218   0.99257   0.90247   0.00000  Uiso   1.00
C107   C     0.69799   0.02973   0.94955   0.00000  Uiso   1.00
C108   C     0.72458   0.05394   0.81780   0.00000  Uiso   1.00
C109   C     0.75539   0.08655   0.88958   0.00000  Uiso   1.00
C110   C     0.62939   0.99596   0.98510   0.00000  Uiso   1.00
C111   C     0.59830   0.99176   0.88323   0.00000  Uiso   1.00
C112   C     0.57135   0.99593   0.98491   0.00000  Uiso   1.00
C113   C     0.66424   0.96221   0.02063   0.00000  Uiso   1.00
C114   C     0.66245   0.92964   0.94864   0.00000  Uiso   1.00
C115   C     0.66483   0.90539   0.08026   0.00000  Uiso   1.00
H116   H     0.67274   0.01371   0.41716   0.00000  Uiso   1.00
H117   H     0.73590   0.07662   0.37007   0.00000  Uiso   1.00
H118   H     0.60964   0.01444   0.43548   0.00000  Uiso   1.00
H119   H     0.67378   0.95233   0.50089   0.00000  Uiso   1.00
H120   H     0.80415   0.14280   0.23121   0.00000  Uiso   1.00
H121   H     0.53791   0.01169   0.36916   0.00000  Uiso   1.00
H122   H     0.67316   0.88072   0.50708   0.00000  Uiso   1.00
H123   H     0.65903   0.98629   0.74950   0.00000  Uiso   1.00
H124   H     0.72145   0.04769   0.66577   0.00000  Uiso   1.00
H125   H     0.59518   0.98551   0.73119   0.00000  Uiso   1.00
H126   H     0.65933   0.92340   0.79659   0.00000  Uiso   1.00
H127   H     0.79241   0.11933   0.65957   0.00000  Uiso   1.00
H128   H     0.52617   0.98821   0.79752   0.00000  Uiso   1.00
H129   H     0.66143   0.85724   0.93544   0.00000  Uiso   1.00
O130   O     0.83958   0.17196   0.90235   0.00000  Uiso   1.00
O131   O     0.49028   0.99994   0.08335   0.00000  Uiso   1.00
O132   O     0.66773   0.82810   0.26429   0.00000  Uiso   1.00
N133   N     0.79282   0.12885   0.10817   0.00000  Uiso   1.00
N134   N     0.54391   0.00628   0.23714   0.00000  Uiso   1.00
N135   N     0.67035   0.88382   0.36609   0.00000  Uiso   1.00
N136   N     0.78651   0.11621   0.80057   0.00000  Uiso   1.00
N137   N     0.53759   0.99364   0.92954   0.00000  Uiso   1.00
N138   N     0.66404   0.87118   0.05849   0.00000  Uiso   1.00
C139   C     0.33783   0.00743   0.40247   0.00000  Uiso   1.00
C140   C     0.33578   0.03780   0.52064   0.00000  Uiso   1.00
C141   C     0.33758   0.07038   0.44866   0.00000  Uiso   1.00
C142   C     0.33521   0.09463   0.58026   0.00000  Uiso   1.00
C143   C     0.33266   0.14303   0.73387   0.00000  Uiso   1.00
C144   C     0.37061   0.00403   0.48510   0.00000  Uiso   1.00
C145   C     0.40169   0.00820   0.38323   0.00000  Uiso   1.00
C146   C     0.42862   0.00402   0.48492   0.00000  Uiso   1.00
C147   C     0.48013   0.99995   0.58333   0.00000  Uiso   1.00
C148   C     0.30201   0.97028   0.44956   0.00000  Uiso   1.00
C149   C     0.27541   0.94608   0.31781   0.00000  Uiso   1.00
C150   C     0.24460   0.91347   0.38958   0.00000  Uiso   1.00
C151   C     0.18960   0.85701   0.43281   0.00000  Uiso   1.00
C152   C     0.33040   0.99257   0.76420   0.00000  Uiso   1.00
C153   C     0.33174   0.02973   0.71711   0.00000  Uiso   1.00
C154   C     0.32936   0.05394   0.84887   0.00000  Uiso   1.00
C155   C     0.33116   0.08655   0.77709   0.00000  Uiso   1.00
C156   C     0.36657   0.99596   0.68157   0.00000  Uiso   1.00
C157   C     0.39347   0.99176   0.78344   0.00000  Uiso   1.00
C158   C     0.42458   0.99593   0.68175   0.00000  Uiso   1.00
C159   C     0.29797   0.96221   0.64604   0.00000  Uiso   1.00
C160   C     0.26719   0.92964   0.71802   0.00000  Uiso   1.00
C161   C     0.24055   0.90539   0.58641   0.00000  Uiso   1.00
H162   H     0.34097   0.01371   0.24951   0.00000  Uiso   1.00
H163   H     0.34071   0.07662   0.29660   0.00000  Uiso   1.00
H164   H     0.40480   0.01444   0.23118   0.00000  Uiso   1.00
H165   H     0.27855   0.95233   0.16578   0.00000  Uiso   1.00
H166   H     0.33866   0.14280   0.43546   0.00000  Uiso   1.00
H167   H     0.47379   0.01169   0.29751   0.00000  Uiso   1.00
H168   H     0.20755   0.88072   0.15959   0.00000  Uiso   1.00
H169   H     0.32725   0.98629   0.91717   0.00000  Uiso   1.00
H170   H     0.32624   0.04769   0.00090   0.00000  Uiso   1.00
H171   H     0.39033   0.98551   0.93548   0.00000  Uiso   1.00
H172   H     0.26408   0.92340   0.87008   0.00000  Uiso   1.00
H173   H     0.32691   0.11933   0.00710   0.00000  Uiso   1.00
H174   H     0.46205   0.98821   0.86914   0.00000  Uiso   1.00
H175   H     0.19581   0.85724   0.73123   0.00000  Uiso   1.00
O176   O     0.33238   0.17196   0.76432   0.00000  Uiso   1.00
O177   O     0.50966   0.99994   0.58332   0.00000  Uiso   1.00
O178   O     0.16037   0.82810   0.40238   0.00000  Uiso   1.00
N179   N     0.33602   0.12885   0.55850   0.00000  Uiso   1.00
N180   N     0.46237   0.00628   0.42953   0.00000  Uiso   1.00
N181   N     0.21347   0.88382   0.30058   0.00000  Uiso   1.00
N182   N     0.32970   0.11621   0.86609   0.00000  Uiso   1.00
N183   N     0.45605   0.99364   0.73712   0.00000  Uiso   1.00
N184   N     0.20715   0.87118   0.60817   0.00000  Uiso   1.00
C185   C     0.66960   0.66217   0.73580   0.00000  Uiso   1.00
C186   C     0.70202   0.66422   0.85397   0.00000  Uiso   1.00
C187   C     0.73279   0.66242   0.78199   0.00000  Uiso   1.00
C188   C     0.75942   0.66479   0.91359   0.00000  Uiso   1.00
C189   C     0.81037   0.66734   0.06720   0.00000  Uiso   1.00
C190   C     0.63342   0.62939   0.81844   0.00000  Uiso   1.00
C191   C     0.60651   0.59831   0.71656   0.00000  Uiso   1.00
C192   C     0.57539   0.57138   0.81826   0.00000  Uiso   1.00
C193   C     0.51981   0.51987   0.91666   0.00000  Uiso   1.00
C194   C     0.66828   0.69799   0.78290   0.00000  Uiso   1.00
C195   C     0.67066   0.72459   0.65114   0.00000  Uiso   1.00
C196   C     0.66888   0.75540   0.72291   0.00000  Uiso   1.00
C197   C     0.66742   0.81040   0.76614   0.00000  Uiso   1.00
C198   C     0.66218   0.66960   0.09753   0.00000  Uiso   1.00
C199   C     0.69799   0.66826   0.05045   0.00000  Uiso   1.00
C200   C     0.72458   0.67064   0.18220   0.00000  Uiso   1.00
C201   C     0.75539   0.66884   0.11042   0.00000  Uiso   1.00
C202   C     0.62939   0.63343   0.01490   0.00000  Uiso   1.00
C203   C     0.59830   0.60653   0.11677   0.00000  Uiso   1.00
C204   C     0.57135   0.57542   0.01509   0.00000  Uiso   1.00
C205   C     0.66424   0.70203   0.97937   0.00000  Uiso   1.00
C206   C     0.66245   0.73281   0.05136   0.00000  Uiso   1.00
C207   C     0.66483   0.75945   0.91974   0.00000  Uiso   1.00
H208   H     0.67274   0.65903   0.58284   0.00000  Uiso   1.00
H209   H     0.73590   0.65929   0.62993   0.00000  Uiso   1.00
H210   H     0.60964   0.59520   0.56452   0.00000  Uiso   1.00
H211   H     0.67378   0.72145   0.49911   0.00000  Uiso   1.00
H212   H     0.80415   0.66134   0.76879   0.00000  Uiso   1.00
H213   H     0.53791   0.52621   0.63084   0.00000  Uiso   1.00
H214   H     0.67316   0.79245   0.49292   0.00000  Uiso   1.00
H215   H     0.65903   0.67275   0.25050   0.00000  Uiso   1.00
H216   H     0.72145   0.67376   0.33423   0.00000  Uiso   1.00
H217   H     0.59518   0.60967   0.26881   0.00000  Uiso   1.00
H218   H     0.65933   0.73592   0.20341   0.00000  Uiso   1.00
H219   H     0.79241   0.67309   0.34043   0.00000  Uiso   1.00
H220   H     0.52617   0.53795   0.20248   0.00000  Uiso   1.00
H221   H     0.66143   0.80419   0.06456   0.00000  Uiso   1.00
O222   O     0.83958   0.66762   0.09765   0.00000  Uiso   1.00
O223   O     0.49028   0.49034   0.91665   0.00000  Uiso   1.00
O224   O     0.66773   0.83963   0.73571   0.00000  Uiso   1.00
N225   N     0.79282   0.66398   0.89183   0.00000  Uiso   1.00
N226   N     0.54391   0.53763   0.76286   0.00000  Uiso   1.00
N227   N     0.67035   0.78653   0.63391   0.00000  Uiso   1.00
N228   N     0.78651   0.67030   0.19943   0.00000  Uiso   1.00
N229   N     0.53759   0.54395   0.07046   0.00000  Uiso   1.00
N230   N     0.66404   0.79285   0.94151   0.00000  Uiso   1.00
C231   C     0.99257   0.33040   0.06914   0.00000  Uiso   1.00
C232   C     0.96220   0.29798   0.18730   0.00000  Uiso   1.00
C233   C     0.92962   0.26721   0.11532   0.00000  Uiso   1.00
C234   C     0.90537   0.24058   0.24693   0.00000  Uiso   1.00
C235   C     0.85697   0.18963   0.40053   0.00000  Uiso   1.00
C236   C     0.99597   0.36658   0.15177   0.00000  Uiso   1.00
C237   C     0.99180   0.39349   0.04990   0.00000  Uiso   1.00
C238   C     0.99598   0.42461   0.15159   0.00000  Uiso   1.00
C239   C     0.00005   0.48019   0.24999   0.00000  Uiso   1.00
C240   C     0.02972   0.33172   0.11623   0.00000  Uiso   1.00
C241   C     0.05392   0.32934   0.98448   0.00000  Uiso   1.00
C242   C     0.08653   0.33112   0.05625   0.00000  Uiso   1.00
C243   C     0.14299   0.33258   0.09947   0.00000  Uiso   1.00
C244   C     0.00743   0.33782   0.43087   0.00000  Uiso   1.00
C245   C     0.97027   0.30201   0.38378   0.00000  Uiso   1.00
C246   C     0.94606   0.27542   0.51553   0.00000  Uiso   1.00
C247   C     0.91345   0.24461   0.44376   0.00000  Uiso   1.00
C248   C     0.00404   0.37061   0.34824   0.00000  Uiso   1.00
C249   C     0.00824   0.40170   0.45010   0.00000  Uiso   1.00
C250   C     0.00407   0.42865   0.34842   0.00000  Uiso   1.00
C251   C     0.03779   0.33576   0.31271   0.00000  Uiso   1.00
C252   C     0.07036   0.33755   0.38469   0.00000  Uiso   1.00
C253   C     0.09461   0.33517   0.25308   0.00000  Uiso   1.00
H254   H     0.98629   0.32726   0.91618   0.00000  Uiso   1.00
H255   H     0.92338   0.26410   0.96326   0.00000  Uiso   1.00
H256   H     0.98556   0.39036   0.89785   0.00000  Uiso   1.00
H257   H     0.04767   0.32622   0.83245   0.00000  Uiso   1.00
H258   H     0.85720   0.19585   0.10213   0.00000  Uiso   1.00
H259   H     0.98831   0.46209   0.96418   0.00000  Uiso   1.00
H260   H     0.11928   0.32684   0.82626   0.00000  Uiso   1.00
H261   H     0.01371   0.34097   0.58384   0.00000  Uiso   1.00
H262   H     0.95231   0.27855   0.66757   0.00000  Uiso   1.00
H263   H     0.01449   0.40482   0.60214   0.00000  Uiso   1.00
H264   H     0.07660   0.34067   0.53674   0.00000  Uiso   1.00
H265   H     0.88067   0.20759   0.67376   0.00000  Uiso   1.00
H266   H     0.01179   0.47383   0.53581   0.00000  Uiso   1.00
H267   H     0.14276   0.33857   0.39790   0.00000  Uiso   1.00
O268   O     0.82804   0.16042   0.43098   0.00000  Uiso   1.00
O269   O     0.00006   0.50972   0.24999   0.00000  Uiso   1.00
O270   O     0.17190   0.33227   0.06904   0.00000  Uiso   1.00
N271   N     0.87115   0.20718   0.22517   0.00000  Uiso   1.00
N272   N     0.99372   0.45609   0.09620   0.00000  Uiso   1.00
N273   N     0.11618   0.32965   0.96725   0.00000  Uiso   1.00
N274   N     0.88379   0.21349   0.53276   0.00000  Uiso   1.00
N275   N     0.00636   0.46241   0.40379   0.00000  Uiso   1.00
N276   N     0.12882   0.33596   0.27484   0.00000  Uiso   1.00
