data_job_05864
_audit_creation_date              2018-12-19
_audit_creation_method            'Materials Studio'
_symmetry_space_group_name_H-M    'P1'
_symmetry_Int_Tables_number       1
_symmetry_cell_setting            triclinic
loop_
_symmetry_equiv_pos_as_xyz
  x,y,z
_cell_length_a                    21.3084
_cell_length_b                    18.5141
_cell_length_c                    16.4035
_cell_angle_alpha                 90.0000
_cell_angle_beta                  90.0000
_cell_angle_gamma                 90.0000
loop_
_atom_site_label
_atom_site_type_symbol
_atom_site_fract_x
_atom_site_fract_y
_atom_site_fract_z
_atom_site_U_iso_or_equiv
_atom_site_adp_type
_atom_site_occupancy
C1     C     0.28657   0.56289   0.36005   0.00000  Uiso   1.00
C2     C     0.32004   0.55385   0.27851   0.00000  Uiso   1.00
C3     C     0.34580   0.49016   0.24902   0.00000  Uiso   1.00
C4     C     0.37443   0.49306   0.17306   0.00000  Uiso   1.00
C5     C     0.42601   0.46924   0.05329   0.00000  Uiso   1.00
C6     C     0.32136   0.62288   0.40495   0.00000  Uiso   1.00
C7     C     0.34822   0.61722   0.48176   0.00000  Uiso   1.00
C8     C     0.37796   0.67823   0.51224   0.00000  Uiso   1.00
C9     C     0.43156   0.76159   0.58879   0.00000  Uiso   1.00
C10    C     0.22178   0.59311   0.34018   0.00000  Uiso   1.00
C11    C     0.16490   0.56244   0.36256   0.00000  Uiso   1.00
C12    C     0.11080   0.59841   0.33853   0.00000  Uiso   1.00
C13    C     0.00977   0.63555   0.31452   0.00000  Uiso   1.00
C14    C     0.29163   0.68132   0.27760   0.00000  Uiso   1.00
C15    C     0.32279   0.61818   0.23374   0.00000  Uiso   1.00
C16    C     0.35139   0.62118   0.15780   0.00000  Uiso   1.00
C17    C     0.37718   0.55750   0.12820   0.00000  Uiso   1.00
C18    C     0.32411   0.68720   0.36017   0.00000  Uiso   1.00
C19    C     0.35381   0.74824   0.39055   0.00000  Uiso   1.00
C20    C     0.38071   0.74267   0.46739   0.00000  Uiso   1.00
C21    C     0.22452   0.65744   0.29540   0.00000  Uiso   1.00
C22    C     0.17050   0.69346   0.27134   0.00000  Uiso   1.00
C23    C     0.11355   0.66285   0.29367   0.00000  Uiso   1.00
H24    H     0.28443   0.51282   0.39491   0.00000  Uiso   1.00
H25    H     0.34367   0.44039   0.28369   0.00000  Uiso   1.00
H26    H     0.34608   0.56743   0.51640   0.00000  Uiso   1.00
H27    H     0.16280   0.51266   0.39721   0.00000  Uiso   1.00
H28    H     0.41057   0.38846   0.14065   0.00000  Uiso   1.00
H29    H     0.41565   0.65635   0.63135   0.00000  Uiso   1.00
H30    H     0.02914   0.54085   0.38002   0.00000  Uiso   1.00
H31    H     0.29377   0.73140   0.24274   0.00000  Uiso   1.00
H32    H     0.35351   0.67096   0.12316   0.00000  Uiso   1.00
H33    H     0.35593   0.79801   0.35588   0.00000  Uiso   1.00
H34    H     0.17264   0.74324   0.23669   0.00000  Uiso   1.00
H35    H     0.41856   0.57561   0.01036   0.00000  Uiso   1.00
H36    H     0.42363   0.84349   0.50106   0.00000  Uiso   1.00
H37    H     0.03714   0.72800   0.24973   0.00000  Uiso   1.00
O38    O     0.45371   0.43834   0.99960   0.00000  Uiso   1.00
O39    O     0.46036   0.78980   0.64339   0.00000  Uiso   1.00
O40    O     0.95329   0.63827   0.31364   0.00000  Uiso   1.00
N41    N     0.40424   0.44080   0.12639   0.00000  Uiso   1.00
N42    N     0.40899   0.69125   0.58516   0.00000  Uiso   1.00
N43    N     0.04765   0.58328   0.35020   0.00000  Uiso   1.00
N44    N     0.40854   0.54150   0.05628   0.00000  Uiso   1.00
N45    N     0.41329   0.79195   0.51505   0.00000  Uiso   1.00
N46    N     0.05195   0.68398   0.28009   0.00000  Uiso   1.00
C47    C     0.28657   0.06289   0.86005   0.00000  Uiso   1.00
C48    C     0.32004   0.05385   0.77851   0.00000  Uiso   1.00
C49    C     0.34580   0.99016   0.74902   0.00000  Uiso   1.00
C50    C     0.37443   0.99306   0.67306   0.00000  Uiso   1.00
C51    C     0.42601   0.96924   0.55329   0.00000  Uiso   1.00
C52    C     0.32136   0.12288   0.90495   0.00000  Uiso   1.00
C53    C     0.34822   0.11722   0.98176   0.00000  Uiso   1.00
C54    C     0.37796   0.17823   0.01224   0.00000  Uiso   1.00
C55    C     0.43156   0.26159   0.08879   0.00000  Uiso   1.00
C56    C     0.22178   0.09311   0.84018   0.00000  Uiso   1.00
C57    C     0.16490   0.06244   0.86256   0.00000  Uiso   1.00
C58    C     0.11080   0.09841   0.83853   0.00000  Uiso   1.00
C59    C     0.00977   0.13555   0.81452   0.00000  Uiso   1.00
C60    C     0.29163   0.18132   0.77760   0.00000  Uiso   1.00
C61    C     0.32279   0.11818   0.73374   0.00000  Uiso   1.00
C62    C     0.35139   0.12118   0.65780   0.00000  Uiso   1.00
C63    C     0.37718   0.05750   0.62820   0.00000  Uiso   1.00
C64    C     0.32411   0.18720   0.86017   0.00000  Uiso   1.00
C65    C     0.35381   0.24824   0.89055   0.00000  Uiso   1.00
C66    C     0.38071   0.24267   0.96739   0.00000  Uiso   1.00
C67    C     0.22452   0.15744   0.79540   0.00000  Uiso   1.00
C68    C     0.17050   0.19346   0.77134   0.00000  Uiso   1.00
C69    C     0.11355   0.16285   0.79367   0.00000  Uiso   1.00
H70    H     0.28443   0.01282   0.89491   0.00000  Uiso   1.00
H71    H     0.34367   0.94039   0.78369   0.00000  Uiso   1.00
H72    H     0.34608   0.06743   0.01640   0.00000  Uiso   1.00
H73    H     0.16280   0.01266   0.89721   0.00000  Uiso   1.00
H74    H     0.41057   0.88846   0.64065   0.00000  Uiso   1.00
H75    H     0.41565   0.15635   0.13135   0.00000  Uiso   1.00
H76    H     0.02914   0.04085   0.88002   0.00000  Uiso   1.00
H77    H     0.29377   0.23140   0.74274   0.00000  Uiso   1.00
H78    H     0.35351   0.17096   0.62316   0.00000  Uiso   1.00
H79    H     0.35593   0.29801   0.85588   0.00000  Uiso   1.00
H80    H     0.17264   0.24324   0.73669   0.00000  Uiso   1.00
H81    H     0.41856   0.07561   0.51036   0.00000  Uiso   1.00
H82    H     0.42363   0.34349   0.00106   0.00000  Uiso   1.00
H83    H     0.03714   0.22800   0.74973   0.00000  Uiso   1.00
O84    O     0.45371   0.93834   0.49960   0.00000  Uiso   1.00
O85    O     0.46036   0.28980   0.14339   0.00000  Uiso   1.00
O86    O     0.95329   0.13827   0.81364   0.00000  Uiso   1.00
N87    N     0.40424   0.94080   0.62639   0.00000  Uiso   1.00
N88    N     0.40899   0.19125   0.08516   0.00000  Uiso   1.00
N89    N     0.04765   0.08328   0.85020   0.00000  Uiso   1.00
N90    N     0.40854   0.04150   0.55628   0.00000  Uiso   1.00
N91    N     0.41329   0.29195   0.01505   0.00000  Uiso   1.00
N92    N     0.05195   0.18398   0.78009   0.00000  Uiso   1.00
C93    C     0.71343   0.43711   0.36005   0.00000  Uiso   1.00
C94    C     0.67996   0.44615   0.27851   0.00000  Uiso   1.00
C95    C     0.65420   0.50984   0.24902   0.00000  Uiso   1.00
C96    C     0.62557   0.50694   0.17306   0.00000  Uiso   1.00
C97    C     0.57399   0.53076   0.05329   0.00000  Uiso   1.00
C98    C     0.67864   0.37712   0.40495   0.00000  Uiso   1.00
C99    C     0.65178   0.38278   0.48176   0.00000  Uiso   1.00
C100   C     0.62204   0.32177   0.51224   0.00000  Uiso   1.00
C101   C     0.56844   0.23841   0.58879   0.00000  Uiso   1.00
C102   C     0.77822   0.40689   0.34018   0.00000  Uiso   1.00
C103   C     0.83510   0.43756   0.36256   0.00000  Uiso   1.00
C104   C     0.88920   0.40159   0.33853   0.00000  Uiso   1.00
C105   C     0.99023   0.36445   0.31452   0.00000  Uiso   1.00
C106   C     0.70837   0.31868   0.27760   0.00000  Uiso   1.00
C107   C     0.67721   0.38182   0.23374   0.00000  Uiso   1.00
C108   C     0.64861   0.37882   0.15780   0.00000  Uiso   1.00
C109   C     0.62282   0.44250   0.12820   0.00000  Uiso   1.00
C110   C     0.67589   0.31280   0.36017   0.00000  Uiso   1.00
C111   C     0.64619   0.25176   0.39055   0.00000  Uiso   1.00
C112   C     0.61929   0.25733   0.46739   0.00000  Uiso   1.00
C113   C     0.77548   0.34256   0.29540   0.00000  Uiso   1.00
C114   C     0.82950   0.30654   0.27134   0.00000  Uiso   1.00
C115   C     0.88645   0.33715   0.29367   0.00000  Uiso   1.00
H116   H     0.71557   0.48718   0.39491   0.00000  Uiso   1.00
H117   H     0.65633   0.55961   0.28369   0.00000  Uiso   1.00
H118   H     0.65392   0.43257   0.51640   0.00000  Uiso   1.00
H119   H     0.83720   0.48734   0.39721   0.00000  Uiso   1.00
H120   H     0.58943   0.61154   0.14065   0.00000  Uiso   1.00
H121   H     0.58435   0.34365   0.63135   0.00000  Uiso   1.00
H122   H     0.97086   0.45915   0.38002   0.00000  Uiso   1.00
H123   H     0.70623   0.26860   0.24274   0.00000  Uiso   1.00
H124   H     0.64649   0.32904   0.12316   0.00000  Uiso   1.00
H125   H     0.64407   0.20199   0.35588   0.00000  Uiso   1.00
H126   H     0.82736   0.25676   0.23669   0.00000  Uiso   1.00
H127   H     0.58144   0.42439   0.01036   0.00000  Uiso   1.00
H128   H     0.57637   0.15651   0.50106   0.00000  Uiso   1.00
H129   H     0.96286   0.27200   0.24973   0.00000  Uiso   1.00
O130   O     0.54629   0.56166   0.99960   0.00000  Uiso   1.00
O131   O     0.53964   0.21020   0.64339   0.00000  Uiso   1.00
O132   O     0.04671   0.36173   0.31364   0.00000  Uiso   1.00
N133   N     0.59576   0.55920   0.12639   0.00000  Uiso   1.00
N134   N     0.59101   0.30875   0.58516   0.00000  Uiso   1.00
N135   N     0.95235   0.41672   0.35020   0.00000  Uiso   1.00
N136   N     0.59146   0.45850   0.05628   0.00000  Uiso   1.00
N137   N     0.58671   0.20805   0.51505   0.00000  Uiso   1.00
N138   N     0.94805   0.31602   0.28009   0.00000  Uiso   1.00
C139   C     0.71343   0.93711   0.86005   0.00000  Uiso   1.00
C140   C     0.67996   0.94615   0.77851   0.00000  Uiso   1.00
C141   C     0.65420   0.00984   0.74902   0.00000  Uiso   1.00
C142   C     0.62557   0.00694   0.67306   0.00000  Uiso   1.00
C143   C     0.57399   0.03076   0.55329   0.00000  Uiso   1.00
C144   C     0.67864   0.87712   0.90495   0.00000  Uiso   1.00
C145   C     0.65178   0.88278   0.98176   0.00000  Uiso   1.00
C146   C     0.62204   0.82177   0.01224   0.00000  Uiso   1.00
C147   C     0.56844   0.73841   0.08879   0.00000  Uiso   1.00
C148   C     0.77822   0.90689   0.84018   0.00000  Uiso   1.00
C149   C     0.83510   0.93756   0.86256   0.00000  Uiso   1.00
C150   C     0.88920   0.90159   0.83853   0.00000  Uiso   1.00
C151   C     0.99023   0.86445   0.81452   0.00000  Uiso   1.00
C152   C     0.70837   0.81868   0.77760   0.00000  Uiso   1.00
C153   C     0.67721   0.88182   0.73374   0.00000  Uiso   1.00
C154   C     0.64861   0.87882   0.65780   0.00000  Uiso   1.00
C155   C     0.62282   0.94250   0.62820   0.00000  Uiso   1.00
C156   C     0.67589   0.81280   0.86017   0.00000  Uiso   1.00
C157   C     0.64619   0.75176   0.89055   0.00000  Uiso   1.00
C158   C     0.61929   0.75733   0.96739   0.00000  Uiso   1.00
C159   C     0.77548   0.84256   0.79540   0.00000  Uiso   1.00
C160   C     0.82950   0.80654   0.77134   0.00000  Uiso   1.00
C161   C     0.88645   0.83715   0.79367   0.00000  Uiso   1.00
H162   H     0.71557   0.98718   0.89491   0.00000  Uiso   1.00
H163   H     0.65633   0.05961   0.78369   0.00000  Uiso   1.00
H164   H     0.65392   0.93257   0.01640   0.00000  Uiso   1.00
H165   H     0.83720   0.98734   0.89721   0.00000  Uiso   1.00
H166   H     0.58943   0.11154   0.64065   0.00000  Uiso   1.00
H167   H     0.58435   0.84365   0.13135   0.00000  Uiso   1.00
H168   H     0.97086   0.95915   0.88002   0.00000  Uiso   1.00
H169   H     0.70623   0.76860   0.74274   0.00000  Uiso   1.00
H170   H     0.64649   0.82904   0.62316   0.00000  Uiso   1.00
H171   H     0.64407   0.70199   0.85588   0.00000  Uiso   1.00
H172   H     0.82736   0.75676   0.73669   0.00000  Uiso   1.00
H173   H     0.58144   0.92439   0.51036   0.00000  Uiso   1.00
H174   H     0.57637   0.65651   0.00106   0.00000  Uiso   1.00
H175   H     0.96286   0.77200   0.74973   0.00000  Uiso   1.00
O176   O     0.54629   0.06166   0.49960   0.00000  Uiso   1.00
O177   O     0.53964   0.71020   0.14339   0.00000  Uiso   1.00
O178   O     0.04671   0.86173   0.81364   0.00000  Uiso   1.00
N179   N     0.59576   0.05920   0.62639   0.00000  Uiso   1.00
N180   N     0.59101   0.80875   0.08516   0.00000  Uiso   1.00
N181   N     0.95235   0.91672   0.85020   0.00000  Uiso   1.00
N182   N     0.59146   0.95850   0.55628   0.00000  Uiso   1.00
N183   N     0.58671   0.70805   0.01505   0.00000  Uiso   1.00
N184   N     0.94805   0.81602   0.78009   0.00000  Uiso   1.00
C185   C     0.78657   0.93711   0.36005   0.00000  Uiso   1.00
C186   C     0.82004   0.94615   0.27851   0.00000  Uiso   1.00
C187   C     0.84580   0.00984   0.24902   0.00000  Uiso   1.00
C188   C     0.87443   0.00694   0.17306   0.00000  Uiso   1.00
C189   C     0.92601   0.03076   0.05329   0.00000  Uiso   1.00
C190   C     0.82136   0.87712   0.40495   0.00000  Uiso   1.00
C191   C     0.84822   0.88278   0.48176   0.00000  Uiso   1.00
C192   C     0.87796   0.82177   0.51224   0.00000  Uiso   1.00
C193   C     0.93156   0.73841   0.58879   0.00000  Uiso   1.00
C194   C     0.72178   0.90689   0.34018   0.00000  Uiso   1.00
C195   C     0.66490   0.93756   0.36256   0.00000  Uiso   1.00
C196   C     0.61080   0.90159   0.33853   0.00000  Uiso   1.00
C197   C     0.50977   0.86445   0.31452   0.00000  Uiso   1.00
C198   C     0.79163   0.81868   0.27760   0.00000  Uiso   1.00
C199   C     0.82279   0.88182   0.23374   0.00000  Uiso   1.00
C200   C     0.85139   0.87882   0.15780   0.00000  Uiso   1.00
C201   C     0.87718   0.94250   0.12820   0.00000  Uiso   1.00
C202   C     0.82411   0.81280   0.36017   0.00000  Uiso   1.00
C203   C     0.85381   0.75176   0.39055   0.00000  Uiso   1.00
C204   C     0.88071   0.75733   0.46739   0.00000  Uiso   1.00
C205   C     0.72452   0.84256   0.29540   0.00000  Uiso   1.00
C206   C     0.67050   0.80654   0.27134   0.00000  Uiso   1.00
C207   C     0.61355   0.83715   0.29367   0.00000  Uiso   1.00
H208   H     0.78443   0.98718   0.39491   0.00000  Uiso   1.00
H209   H     0.84367   0.05961   0.28369   0.00000  Uiso   1.00
H210   H     0.84608   0.93257   0.51640   0.00000  Uiso   1.00
H211   H     0.66280   0.98734   0.39721   0.00000  Uiso   1.00
H212   H     0.91057   0.11154   0.14065   0.00000  Uiso   1.00
H213   H     0.91565   0.84365   0.63135   0.00000  Uiso   1.00
H214   H     0.52914   0.95915   0.38002   0.00000  Uiso   1.00
H215   H     0.79377   0.76860   0.24274   0.00000  Uiso   1.00
H216   H     0.85351   0.82904   0.12316   0.00000  Uiso   1.00
H217   H     0.85593   0.70199   0.35588   0.00000  Uiso   1.00
H218   H     0.67264   0.75676   0.23669   0.00000  Uiso   1.00
H219   H     0.91856   0.92439   0.01036   0.00000  Uiso   1.00
H220   H     0.92363   0.65651   0.50106   0.00000  Uiso   1.00
H221   H     0.53714   0.77200   0.24973   0.00000  Uiso   1.00
O222   O     0.95371   0.06166   0.99960   0.00000  Uiso   1.00
O223   O     0.96036   0.71020   0.64339   0.00000  Uiso   1.00
O224   O     0.45329   0.86173   0.31364   0.00000  Uiso   1.00
N225   N     0.90424   0.05920   0.12639   0.00000  Uiso   1.00
N226   N     0.90899   0.80875   0.58516   0.00000  Uiso   1.00
N227   N     0.54765   0.91672   0.35020   0.00000  Uiso   1.00
N228   N     0.90854   0.95850   0.05628   0.00000  Uiso   1.00
N229   N     0.91329   0.70805   0.51505   0.00000  Uiso   1.00
N230   N     0.55195   0.81602   0.28009   0.00000  Uiso   1.00
C231   C     0.78657   0.43711   0.86005   0.00000  Uiso   1.00
C232   C     0.82004   0.44615   0.77851   0.00000  Uiso   1.00
C233   C     0.84580   0.50984   0.74902   0.00000  Uiso   1.00
C234   C     0.87443   0.50694   0.67306   0.00000  Uiso   1.00
C235   C     0.92601   0.53076   0.55329   0.00000  Uiso   1.00
C236   C     0.82136   0.37712   0.90495   0.00000  Uiso   1.00
C237   C     0.84822   0.38278   0.98176   0.00000  Uiso   1.00
C238   C     0.87796   0.32177   0.01224   0.00000  Uiso   1.00
C239   C     0.93156   0.23841   0.08879   0.00000  Uiso   1.00
C240   C     0.72178   0.40689   0.84018   0.00000  Uiso   1.00
C241   C     0.66490   0.43756   0.86256   0.00000  Uiso   1.00
C242   C     0.61080   0.40159   0.83853   0.00000  Uiso   1.00
C243   C     0.50977   0.36445   0.81452   0.00000  Uiso   1.00
C244   C     0.79163   0.31868   0.77760   0.00000  Uiso   1.00
C245   C     0.82279   0.38182   0.73374   0.00000  Uiso   1.00
C246   C     0.85139   0.37882   0.65780   0.00000  Uiso   1.00
C247   C     0.87718   0.44250   0.62820   0.00000  Uiso   1.00
C248   C     0.82411   0.31280   0.86017   0.00000  Uiso   1.00
C249   C     0.85381   0.25176   0.89055   0.00000  Uiso   1.00
C250   C     0.88071   0.25733   0.96739   0.00000  Uiso   1.00
C251   C     0.72452   0.34256   0.79540   0.00000  Uiso   1.00
C252   C     0.67050   0.30654   0.77134   0.00000  Uiso   1.00
C253   C     0.61355   0.33715   0.79367   0.00000  Uiso   1.00
H254   H     0.78443   0.48718   0.89491   0.00000  Uiso   1.00
H255   H     0.84367   0.55961   0.78369   0.00000  Uiso   1.00
H256   H     0.84608   0.43257   0.01640   0.00000  Uiso   1.00
H257   H     0.66280   0.48734   0.89721   0.00000  Uiso   1.00
H258   H     0.91057   0.61154   0.64065   0.00000  Uiso   1.00
H259   H     0.91565   0.34365   0.13135   0.00000  Uiso   1.00
H260   H     0.52914   0.45915   0.88002   0.00000  Uiso   1.00
H261   H     0.79377   0.26860   0.74274   0.00000  Uiso   1.00
H262   H     0.85351   0.32904   0.62316   0.00000  Uiso   1.00
H263   H     0.85593   0.20199   0.85588   0.00000  Uiso   1.00
H264   H     0.67264   0.25676   0.73669   0.00000  Uiso   1.00
H265   H     0.91856   0.42439   0.51036   0.00000  Uiso   1.00
H266   H     0.92363   0.15651   0.00106   0.00000  Uiso   1.00
H267   H     0.53714   0.27200   0.74973   0.00000  Uiso   1.00
O268   O     0.95371   0.56166   0.49960   0.00000  Uiso   1.00
O269   O     0.96036   0.21020   0.14339   0.00000  Uiso   1.00
O270   O     0.45329   0.36173   0.81364   0.00000  Uiso   1.00
N271   N     0.90424   0.55920   0.62639   0.00000  Uiso   1.00
N272   N     0.90899   0.30875   0.08516   0.00000  Uiso   1.00
N273   N     0.54765   0.41672   0.85020   0.00000  Uiso   1.00
N274   N     0.90854   0.45850   0.55628   0.00000  Uiso   1.00
N275   N     0.91329   0.20805   0.01505   0.00000  Uiso   1.00
N276   N     0.55195   0.31602   0.78009   0.00000  Uiso   1.00
C277   C     0.21343   0.06289   0.36005   0.00000  Uiso   1.00
C278   C     0.17996   0.05385   0.27851   0.00000  Uiso   1.00
C279   C     0.15420   0.99016   0.24902   0.00000  Uiso   1.00
C280   C     0.12557   0.99306   0.17306   0.00000  Uiso   1.00
C281   C     0.07399   0.96924   0.05329   0.00000  Uiso   1.00
C282   C     0.17864   0.12288   0.40495   0.00000  Uiso   1.00
C283   C     0.15178   0.11722   0.48176   0.00000  Uiso   1.00
C284   C     0.12204   0.17823   0.51224   0.00000  Uiso   1.00
C285   C     0.06844   0.26159   0.58879   0.00000  Uiso   1.00
C286   C     0.27822   0.09311   0.34018   0.00000  Uiso   1.00
C287   C     0.33510   0.06244   0.36256   0.00000  Uiso   1.00
C288   C     0.38920   0.09841   0.33853   0.00000  Uiso   1.00
C289   C     0.49023   0.13555   0.31452   0.00000  Uiso   1.00
C290   C     0.20837   0.18132   0.27760   0.00000  Uiso   1.00
C291   C     0.17721   0.11818   0.23374   0.00000  Uiso   1.00
C292   C     0.14861   0.12118   0.15780   0.00000  Uiso   1.00
C293   C     0.12282   0.05750   0.12820   0.00000  Uiso   1.00
C294   C     0.17589   0.18720   0.36017   0.00000  Uiso   1.00
C295   C     0.14619   0.24824   0.39055   0.00000  Uiso   1.00
C296   C     0.11929   0.24267   0.46739   0.00000  Uiso   1.00
C297   C     0.27548   0.15744   0.29540   0.00000  Uiso   1.00
C298   C     0.32950   0.19346   0.27134   0.00000  Uiso   1.00
C299   C     0.38645   0.16285   0.29367   0.00000  Uiso   1.00
H300   H     0.21557   0.01282   0.39491   0.00000  Uiso   1.00
H301   H     0.15633   0.94039   0.28369   0.00000  Uiso   1.00
H302   H     0.15392   0.06743   0.51640   0.00000  Uiso   1.00
H303   H     0.33720   0.01266   0.39721   0.00000  Uiso   1.00
H304   H     0.08943   0.88846   0.14065   0.00000  Uiso   1.00
H305   H     0.08435   0.15635   0.63135   0.00000  Uiso   1.00
H306   H     0.47086   0.04085   0.38002   0.00000  Uiso   1.00
H307   H     0.20623   0.23140   0.24274   0.00000  Uiso   1.00
H308   H     0.14649   0.17096   0.12316   0.00000  Uiso   1.00
H309   H     0.14407   0.29801   0.35588   0.00000  Uiso   1.00
H310   H     0.32736   0.24324   0.23669   0.00000  Uiso   1.00
H311   H     0.08144   0.07561   0.01036   0.00000  Uiso   1.00
H312   H     0.07637   0.34349   0.50106   0.00000  Uiso   1.00
H313   H     0.46286   0.22800   0.24973   0.00000  Uiso   1.00
O314   O     0.04629   0.93834   0.99960   0.00000  Uiso   1.00
O315   O     0.03964   0.28980   0.64339   0.00000  Uiso   1.00
O316   O     0.54671   0.13827   0.31364   0.00000  Uiso   1.00
N317   N     0.09576   0.94080   0.12639   0.00000  Uiso   1.00
N318   N     0.09101   0.19125   0.58516   0.00000  Uiso   1.00
N319   N     0.45235   0.08328   0.35020   0.00000  Uiso   1.00
N320   N     0.09146   0.04150   0.05628   0.00000  Uiso   1.00
N321   N     0.08671   0.29195   0.51505   0.00000  Uiso   1.00
N322   N     0.44805   0.18398   0.28009   0.00000  Uiso   1.00
C323   C     0.21343   0.56289   0.86005   0.00000  Uiso   1.00
C324   C     0.17996   0.55385   0.77851   0.00000  Uiso   1.00
C325   C     0.15420   0.49016   0.74902   0.00000  Uiso   1.00
C326   C     0.12557   0.49306   0.67306   0.00000  Uiso   1.00
C327   C     0.07399   0.46924   0.55329   0.00000  Uiso   1.00
C328   C     0.17864   0.62288   0.90495   0.00000  Uiso   1.00
C329   C     0.15178   0.61722   0.98176   0.00000  Uiso   1.00
C330   C     0.12204   0.67823   0.01224   0.00000  Uiso   1.00
C331   C     0.06844   0.76159   0.08879   0.00000  Uiso   1.00
C332   C     0.27822   0.59311   0.84018   0.00000  Uiso   1.00
C333   C     0.33510   0.56244   0.86256   0.00000  Uiso   1.00
C334   C     0.38920   0.59841   0.83853   0.00000  Uiso   1.00
C335   C     0.49023   0.63555   0.81452   0.00000  Uiso   1.00
C336   C     0.20837   0.68132   0.77760   0.00000  Uiso   1.00
C337   C     0.17721   0.61818   0.73374   0.00000  Uiso   1.00
C338   C     0.14861   0.62118   0.65780   0.00000  Uiso   1.00
C339   C     0.12282   0.55750   0.62820   0.00000  Uiso   1.00
C340   C     0.17589   0.68720   0.86017   0.00000  Uiso   1.00
C341   C     0.14619   0.74824   0.89055   0.00000  Uiso   1.00
C342   C     0.11929   0.74267   0.96739   0.00000  Uiso   1.00
C343   C     0.27548   0.65744   0.79540   0.00000  Uiso   1.00
C344   C     0.32950   0.69346   0.77134   0.00000  Uiso   1.00
C345   C     0.38645   0.66285   0.79367   0.00000  Uiso   1.00
H346   H     0.21557   0.51282   0.89491   0.00000  Uiso   1.00
H347   H     0.15633   0.44039   0.78369   0.00000  Uiso   1.00
H348   H     0.15392   0.56743   0.01640   0.00000  Uiso   1.00
H349   H     0.33720   0.51266   0.89721   0.00000  Uiso   1.00
H350   H     0.08943   0.38846   0.64065   0.00000  Uiso   1.00
H351   H     0.08435   0.65635   0.13135   0.00000  Uiso   1.00
H352   H     0.47086   0.54085   0.88002   0.00000  Uiso   1.00
H353   H     0.20623   0.73140   0.74274   0.00000  Uiso   1.00
H354   H     0.14649   0.67096   0.62316   0.00000  Uiso   1.00
H355   H     0.14407   0.79801   0.85588   0.00000  Uiso   1.00
H356   H     0.32736   0.74324   0.73669   0.00000  Uiso   1.00
H357   H     0.08144   0.57561   0.51036   0.00000  Uiso   1.00
H358   H     0.07637   0.84349   0.00106   0.00000  Uiso   1.00
H359   H     0.46286   0.72800   0.74973   0.00000  Uiso   1.00
O360   O     0.04629   0.43834   0.49960   0.00000  Uiso   1.00
O361   O     0.03964   0.78980   0.14339   0.00000  Uiso   1.00
O362   O     0.54671   0.63827   0.81364   0.00000  Uiso   1.00
N363   N     0.09576   0.44080   0.62639   0.00000  Uiso   1.00
N364   N     0.09101   0.69125   0.08516   0.00000  Uiso   1.00
N365   N     0.45235   0.58328   0.85020   0.00000  Uiso   1.00
N366   N     0.09146   0.54150   0.55628   0.00000  Uiso   1.00
N367   N     0.08671   0.79195   0.01505   0.00000  Uiso   1.00
N368   N     0.44805   0.68398   0.78009   0.00000  Uiso   1.00
