data_job_05785
_audit_creation_date              2018-12-19
_audit_creation_method            'Materials Studio'
_symmetry_space_group_name_H-M    'P1'
_symmetry_Int_Tables_number       1
_symmetry_cell_setting            triclinic
loop_
_symmetry_equiv_pos_as_xyz
  x,y,z
_cell_length_a                    24.6849
_cell_length_b                    24.6849
_cell_length_c                    12.4238
_cell_angle_alpha                 90.0000
_cell_angle_beta                  90.0000
_cell_angle_gamma                 90.0000
loop_
_atom_site_label
_atom_site_type_symbol
_atom_site_fract_x
_atom_site_fract_y
_atom_site_fract_z
_atom_site_U_iso_or_equiv
_atom_site_adp_type
_atom_site_occupancy
C1     C     0.40643   0.23013   0.05329   0.00000  Uiso   1.00
C2     C     0.38579   0.21034   0.16209   0.00000  Uiso   1.00
C3     C     0.34733   0.23614   0.22542   0.00000  Uiso   1.00
C4     C     0.33392   0.21152   0.32230   0.00000  Uiso   1.00
C5     C     0.29821   0.18820   0.48635   0.00000  Uiso   1.00
C6     C     0.46779   0.23468   0.06426   0.00000  Uiso   1.00
C7     C     0.49827   0.28095   0.04533   0.00000  Uiso   1.00
C8     C     0.55389   0.27683   0.05985   0.00000  Uiso   1.00
C9     C     0.64549   0.29129   0.07194   0.00000  Uiso   1.00
C10    C     0.39625   0.18398   0.97425   0.00000  Uiso   1.00
C11    C     0.36660   0.18762   0.87962   0.00000  Uiso   1.00
C12    C     0.36200   0.14080   0.81834   0.00000  Uiso   1.00
C13    C     0.34253   0.07654   0.69069   0.00000  Uiso   1.00
C14    C     0.45099   0.14053   0.11273   0.00000  Uiso   1.00
C15    C     0.41000   0.16167   0.19437   0.00000  Uiso   1.00
C16    C     0.39664   0.13701   0.29118   0.00000  Uiso   1.00
C17    C     0.35816   0.16277   0.35464   0.00000  Uiso   1.00
C18    C     0.49199   0.18602   0.09655   0.00000  Uiso   1.00
C19    C     0.54758   0.18182   0.11109   0.00000  Uiso   1.00
C20    C     0.57814   0.22807   0.09219   0.00000  Uiso   1.00
C21    C     0.42046   0.13531   0.00654   0.00000  Uiso   1.00
C22    C     0.41591   0.08848   0.94539   0.00000  Uiso   1.00
C23    C     0.38626   0.09205   0.85069   0.00000  Uiso   1.00
H24    H     0.38758   0.26802   0.02815   0.00000  Uiso   1.00
H25    H     0.32861   0.27381   0.20041   0.00000  Uiso   1.00
H26    H     0.47953   0.31861   0.02033   0.00000  Uiso   1.00
H27    H     0.34788   0.22529   0.85466   0.00000  Uiso   1.00
H28    H     0.27391   0.25876   0.40564   0.00000  Uiso   1.00
H29    H     0.59213   0.35323   0.02591   0.00000  Uiso   1.00
H30    H     0.31452   0.15644   0.67655   0.00000  Uiso   1.00
H31    H     0.46984   0.10264   0.13786   0.00000  Uiso   1.00
H32    H     0.41538   0.09935   0.31615   0.00000  Uiso   1.00
H33    H     0.56630   0.14415   0.13607   0.00000  Uiso   1.00
H34    H     0.43465   0.05083   0.97040   0.00000  Uiso   1.00
H35    H     0.34434   0.11717   0.49958   0.00000  Uiso   1.00
H36    H     0.66256   0.21163   0.11984   0.00000  Uiso   1.00
H37    H     0.38495   0.01484   0.77049   0.00000  Uiso   1.00
O38    O     0.27183   0.18879   0.56793   0.00000  Uiso   1.00
O39    O     0.68932   0.31272   0.06971   0.00000  Uiso   1.00
O40    O     0.32510   0.05454   0.61137   0.00000  Uiso   1.00
N41    N     0.29795   0.22588   0.40327   0.00000  Uiso   1.00
N42    N     0.59547   0.31421   0.04826   0.00000  Uiso   1.00
N43    N     0.33594   0.13023   0.72163   0.00000  Uiso   1.00
N44    N     0.33585   0.14969   0.45382   0.00000  Uiso   1.00
N45    N     0.63337   0.23801   0.09881   0.00000  Uiso   1.00
N46    N     0.37384   0.05404   0.77218   0.00000  Uiso   1.00
C47    C     0.59357   0.76987   0.05329   0.00000  Uiso   1.00
C48    C     0.61421   0.78966   0.16209   0.00000  Uiso   1.00
C49    C     0.65267   0.76386   0.22542   0.00000  Uiso   1.00
C50    C     0.66608   0.78848   0.32230   0.00000  Uiso   1.00
C51    C     0.70179   0.81180   0.48635   0.00000  Uiso   1.00
C52    C     0.53221   0.76532   0.06426   0.00000  Uiso   1.00
C53    C     0.50173   0.71905   0.04533   0.00000  Uiso   1.00
C54    C     0.44611   0.72317   0.05985   0.00000  Uiso   1.00
C55    C     0.35451   0.70871   0.07194   0.00000  Uiso   1.00
C56    C     0.60375   0.81602   0.97425   0.00000  Uiso   1.00
C57    C     0.63340   0.81238   0.87962   0.00000  Uiso   1.00
C58    C     0.63800   0.85920   0.81834   0.00000  Uiso   1.00
C59    C     0.65747   0.92346   0.69069   0.00000  Uiso   1.00
C60    C     0.54901   0.85947   0.11273   0.00000  Uiso   1.00
C61    C     0.59000   0.83833   0.19437   0.00000  Uiso   1.00
C62    C     0.60336   0.86299   0.29118   0.00000  Uiso   1.00
C63    C     0.64184   0.83723   0.35464   0.00000  Uiso   1.00
C64    C     0.50801   0.81398   0.09655   0.00000  Uiso   1.00
C65    C     0.45242   0.81818   0.11109   0.00000  Uiso   1.00
C66    C     0.42186   0.77193   0.09219   0.00000  Uiso   1.00
C67    C     0.57954   0.86469   0.00654   0.00000  Uiso   1.00
C68    C     0.58409   0.91152   0.94539   0.00000  Uiso   1.00
C69    C     0.61374   0.90795   0.85069   0.00000  Uiso   1.00
H70    H     0.61242   0.73198   0.02815   0.00000  Uiso   1.00
H71    H     0.67139   0.72619   0.20041   0.00000  Uiso   1.00
H72    H     0.52047   0.68139   0.02033   0.00000  Uiso   1.00
H73    H     0.65212   0.77471   0.85466   0.00000  Uiso   1.00
H74    H     0.72609   0.74124   0.40564   0.00000  Uiso   1.00
H75    H     0.40787   0.64677   0.02591   0.00000  Uiso   1.00
H76    H     0.68548   0.84356   0.67655   0.00000  Uiso   1.00
H77    H     0.53016   0.89736   0.13786   0.00000  Uiso   1.00
H78    H     0.58462   0.90065   0.31615   0.00000  Uiso   1.00
H79    H     0.43370   0.85585   0.13607   0.00000  Uiso   1.00
H80    H     0.56535   0.94917   0.97040   0.00000  Uiso   1.00
H81    H     0.65566   0.88283   0.49958   0.00000  Uiso   1.00
H82    H     0.33744   0.78837   0.11984   0.00000  Uiso   1.00
H83    H     0.61505   0.98516   0.77049   0.00000  Uiso   1.00
O84    O     0.72817   0.81121   0.56793   0.00000  Uiso   1.00
O85    O     0.31068   0.68728   0.06971   0.00000  Uiso   1.00
O86    O     0.67490   0.94546   0.61137   0.00000  Uiso   1.00
N87    N     0.70205   0.77412   0.40327   0.00000  Uiso   1.00
N88    N     0.40453   0.68579   0.04826   0.00000  Uiso   1.00
N89    N     0.66406   0.86977   0.72163   0.00000  Uiso   1.00
N90    N     0.66415   0.85031   0.45382   0.00000  Uiso   1.00
N91    N     0.36663   0.76199   0.09881   0.00000  Uiso   1.00
N92    N     0.62616   0.94596   0.77218   0.00000  Uiso   1.00
C93    C     0.26987   0.90643   0.05329   0.00000  Uiso   1.00
C94    C     0.28966   0.88579   0.16209   0.00000  Uiso   1.00
C95    C     0.26386   0.84733   0.22542   0.00000  Uiso   1.00
C96    C     0.28848   0.83392   0.32230   0.00000  Uiso   1.00
C97    C     0.31180   0.79821   0.48635   0.00000  Uiso   1.00
C98    C     0.26532   0.96779   0.06426   0.00000  Uiso   1.00
C99    C     0.21905   0.99827   0.04533   0.00000  Uiso   1.00
C100   C     0.22317   0.05389   0.05985   0.00000  Uiso   1.00
C101   C     0.20871   0.14549   0.07194   0.00000  Uiso   1.00
C102   C     0.31602   0.89625   0.97425   0.00000  Uiso   1.00
C103   C     0.31238   0.86660   0.87962   0.00000  Uiso   1.00
C104   C     0.35920   0.86200   0.81834   0.00000  Uiso   1.00
C105   C     0.42346   0.84253   0.69069   0.00000  Uiso   1.00
C106   C     0.35947   0.95099   0.11273   0.00000  Uiso   1.00
C107   C     0.33833   0.91000   0.19437   0.00000  Uiso   1.00
C108   C     0.36299   0.89664   0.29118   0.00000  Uiso   1.00
C109   C     0.33723   0.85816   0.35464   0.00000  Uiso   1.00
C110   C     0.31398   0.99199   0.09655   0.00000  Uiso   1.00
C111   C     0.31818   0.04758   0.11109   0.00000  Uiso   1.00
C112   C     0.27193   0.07814   0.09219   0.00000  Uiso   1.00
C113   C     0.36469   0.92046   0.00654   0.00000  Uiso   1.00
C114   C     0.41152   0.91591   0.94539   0.00000  Uiso   1.00
C115   C     0.40795   0.88626   0.85069   0.00000  Uiso   1.00
H116   H     0.23198   0.88758   0.02815   0.00000  Uiso   1.00
H117   H     0.22619   0.82861   0.20041   0.00000  Uiso   1.00
H118   H     0.18139   0.97953   0.02033   0.00000  Uiso   1.00
H119   H     0.27471   0.84788   0.85466   0.00000  Uiso   1.00
H120   H     0.24124   0.77391   0.40564   0.00000  Uiso   1.00
H121   H     0.14677   0.09213   0.02591   0.00000  Uiso   1.00
H122   H     0.34356   0.81452   0.67655   0.00000  Uiso   1.00
H123   H     0.39736   0.96984   0.13786   0.00000  Uiso   1.00
H124   H     0.40065   0.91538   0.31615   0.00000  Uiso   1.00
H125   H     0.35585   0.06630   0.13607   0.00000  Uiso   1.00
H126   H     0.44917   0.93465   0.97040   0.00000  Uiso   1.00
H127   H     0.38283   0.84434   0.49958   0.00000  Uiso   1.00
H128   H     0.28837   0.16256   0.11984   0.00000  Uiso   1.00
H129   H     0.48516   0.88495   0.77049   0.00000  Uiso   1.00
O130   O     0.31121   0.77183   0.56793   0.00000  Uiso   1.00
O131   O     0.18728   0.18932   0.06971   0.00000  Uiso   1.00
O132   O     0.44546   0.82510   0.61137   0.00000  Uiso   1.00
N133   N     0.27412   0.79795   0.40327   0.00000  Uiso   1.00
N134   N     0.18579   0.09547   0.04826   0.00000  Uiso   1.00
N135   N     0.36977   0.83594   0.72163   0.00000  Uiso   1.00
N136   N     0.35031   0.83585   0.45382   0.00000  Uiso   1.00
N137   N     0.26199   0.13337   0.09881   0.00000  Uiso   1.00
N138   N     0.44596   0.87384   0.77218   0.00000  Uiso   1.00
C139   C     0.73013   0.09357   0.05329   0.00000  Uiso   1.00
C140   C     0.71034   0.11421   0.16209   0.00000  Uiso   1.00
C141   C     0.73614   0.15267   0.22542   0.00000  Uiso   1.00
C142   C     0.71152   0.16608   0.32230   0.00000  Uiso   1.00
C143   C     0.68820   0.20179   0.48635   0.00000  Uiso   1.00
C144   C     0.73468   0.03221   0.06426   0.00000  Uiso   1.00
C145   C     0.78095   0.00173   0.04533   0.00000  Uiso   1.00
C146   C     0.77683   0.94611   0.05985   0.00000  Uiso   1.00
C147   C     0.79129   0.85451   0.07194   0.00000  Uiso   1.00
C148   C     0.68398   0.10375   0.97425   0.00000  Uiso   1.00
C149   C     0.68762   0.13340   0.87962   0.00000  Uiso   1.00
C150   C     0.64080   0.13800   0.81834   0.00000  Uiso   1.00
C151   C     0.57654   0.15747   0.69069   0.00000  Uiso   1.00
C152   C     0.64053   0.04901   0.11273   0.00000  Uiso   1.00
C153   C     0.66167   0.09000   0.19437   0.00000  Uiso   1.00
C154   C     0.63701   0.10336   0.29118   0.00000  Uiso   1.00
C155   C     0.66277   0.14184   0.35464   0.00000  Uiso   1.00
C156   C     0.68602   0.00801   0.09655   0.00000  Uiso   1.00
C157   C     0.68182   0.95242   0.11109   0.00000  Uiso   1.00
C158   C     0.72807   0.92186   0.09219   0.00000  Uiso   1.00
C159   C     0.63531   0.07954   0.00654   0.00000  Uiso   1.00
C160   C     0.58848   0.08409   0.94539   0.00000  Uiso   1.00
C161   C     0.59205   0.11374   0.85069   0.00000  Uiso   1.00
H162   H     0.76802   0.11242   0.02815   0.00000  Uiso   1.00
H163   H     0.77381   0.17139   0.20041   0.00000  Uiso   1.00
H164   H     0.81861   0.02047   0.02033   0.00000  Uiso   1.00
H165   H     0.72529   0.15212   0.85466   0.00000  Uiso   1.00
H166   H     0.75876   0.22609   0.40564   0.00000  Uiso   1.00
H167   H     0.85323   0.90787   0.02591   0.00000  Uiso   1.00
H168   H     0.65644   0.18548   0.67655   0.00000  Uiso   1.00
H169   H     0.60264   0.03016   0.13786   0.00000  Uiso   1.00
H170   H     0.59935   0.08462   0.31615   0.00000  Uiso   1.00
H171   H     0.64415   0.93370   0.13607   0.00000  Uiso   1.00
H172   H     0.55083   0.06535   0.97040   0.00000  Uiso   1.00
H173   H     0.61717   0.15566   0.49958   0.00000  Uiso   1.00
H174   H     0.71163   0.83744   0.11984   0.00000  Uiso   1.00
H175   H     0.51484   0.11505   0.77049   0.00000  Uiso   1.00
O176   O     0.68879   0.22817   0.56793   0.00000  Uiso   1.00
O177   O     0.81272   0.81068   0.06971   0.00000  Uiso   1.00
O178   O     0.55454   0.17490   0.61137   0.00000  Uiso   1.00
N179   N     0.72588   0.20205   0.40327   0.00000  Uiso   1.00
N180   N     0.81421   0.90453   0.04826   0.00000  Uiso   1.00
N181   N     0.63023   0.16406   0.72163   0.00000  Uiso   1.00
N182   N     0.64969   0.16415   0.45382   0.00000  Uiso   1.00
N183   N     0.73801   0.86663   0.09881   0.00000  Uiso   1.00
N184   N     0.55404   0.12616   0.77218   0.00000  Uiso   1.00
C185   C     0.09357   0.26987   0.94671   0.00000  Uiso   1.00
C186   C     0.11421   0.28966   0.83791   0.00000  Uiso   1.00
C187   C     0.15267   0.26386   0.77458   0.00000  Uiso   1.00
C188   C     0.16608   0.28848   0.67770   0.00000  Uiso   1.00
C189   C     0.20179   0.31180   0.51365   0.00000  Uiso   1.00
C190   C     0.03221   0.26532   0.93574   0.00000  Uiso   1.00
C191   C     0.00173   0.21905   0.95467   0.00000  Uiso   1.00
C192   C     0.94611   0.22317   0.94015   0.00000  Uiso   1.00
C193   C     0.85451   0.20871   0.92806   0.00000  Uiso   1.00
C194   C     0.10375   0.31602   0.02575   0.00000  Uiso   1.00
C195   C     0.13340   0.31238   0.12038   0.00000  Uiso   1.00
C196   C     0.13800   0.35920   0.18166   0.00000  Uiso   1.00
C197   C     0.15747   0.42346   0.30931   0.00000  Uiso   1.00
C198   C     0.04901   0.35947   0.88727   0.00000  Uiso   1.00
C199   C     0.09000   0.33833   0.80563   0.00000  Uiso   1.00
C200   C     0.10336   0.36299   0.70882   0.00000  Uiso   1.00
C201   C     0.14184   0.33723   0.64536   0.00000  Uiso   1.00
C202   C     0.00801   0.31398   0.90345   0.00000  Uiso   1.00
C203   C     0.95242   0.31818   0.88891   0.00000  Uiso   1.00
C204   C     0.92186   0.27193   0.90781   0.00000  Uiso   1.00
C205   C     0.07954   0.36469   0.99346   0.00000  Uiso   1.00
C206   C     0.08409   0.41152   0.05461   0.00000  Uiso   1.00
C207   C     0.11374   0.40795   0.14931   0.00000  Uiso   1.00
H208   H     0.11242   0.23198   0.97185   0.00000  Uiso   1.00
H209   H     0.17139   0.22619   0.79959   0.00000  Uiso   1.00
H210   H     0.02047   0.18139   0.97967   0.00000  Uiso   1.00
H211   H     0.15212   0.27471   0.14534   0.00000  Uiso   1.00
H212   H     0.22609   0.24124   0.59436   0.00000  Uiso   1.00
H213   H     0.90787   0.14677   0.97409   0.00000  Uiso   1.00
H214   H     0.18548   0.34356   0.32345   0.00000  Uiso   1.00
H215   H     0.03016   0.39736   0.86214   0.00000  Uiso   1.00
H216   H     0.08462   0.40065   0.68385   0.00000  Uiso   1.00
H217   H     0.93370   0.35585   0.86393   0.00000  Uiso   1.00
H218   H     0.06535   0.44917   0.02960   0.00000  Uiso   1.00
H219   H     0.15566   0.38283   0.50042   0.00000  Uiso   1.00
H220   H     0.83744   0.28837   0.88016   0.00000  Uiso   1.00
H221   H     0.11505   0.48516   0.22951   0.00000  Uiso   1.00
O222   O     0.22817   0.31121   0.43207   0.00000  Uiso   1.00
O223   O     0.81068   0.18728   0.93029   0.00000  Uiso   1.00
O224   O     0.17490   0.44546   0.38863   0.00000  Uiso   1.00
N225   N     0.20205   0.27412   0.59673   0.00000  Uiso   1.00
N226   N     0.90453   0.18579   0.95174   0.00000  Uiso   1.00
N227   N     0.16406   0.36977   0.27837   0.00000  Uiso   1.00
N228   N     0.16415   0.35031   0.54618   0.00000  Uiso   1.00
N229   N     0.86663   0.26199   0.90119   0.00000  Uiso   1.00
N230   N     0.12616   0.44596   0.22782   0.00000  Uiso   1.00
C231   C     0.90643   0.73013   0.94671   0.00000  Uiso   1.00
C232   C     0.88579   0.71034   0.83791   0.00000  Uiso   1.00
C233   C     0.84733   0.73614   0.77458   0.00000  Uiso   1.00
C234   C     0.83392   0.71152   0.67770   0.00000  Uiso   1.00
C235   C     0.79821   0.68820   0.51365   0.00000  Uiso   1.00
C236   C     0.96779   0.73468   0.93574   0.00000  Uiso   1.00
C237   C     0.99827   0.78095   0.95467   0.00000  Uiso   1.00
C238   C     0.05389   0.77683   0.94015   0.00000  Uiso   1.00
C239   C     0.14549   0.79129   0.92806   0.00000  Uiso   1.00
C240   C     0.89625   0.68398   0.02575   0.00000  Uiso   1.00
C241   C     0.86660   0.68762   0.12038   0.00000  Uiso   1.00
C242   C     0.86200   0.64080   0.18166   0.00000  Uiso   1.00
C243   C     0.84253   0.57654   0.30931   0.00000  Uiso   1.00
C244   C     0.95099   0.64053   0.88727   0.00000  Uiso   1.00
C245   C     0.91000   0.66167   0.80563   0.00000  Uiso   1.00
C246   C     0.89664   0.63701   0.70882   0.00000  Uiso   1.00
C247   C     0.85816   0.66277   0.64536   0.00000  Uiso   1.00
C248   C     0.99199   0.68602   0.90345   0.00000  Uiso   1.00
C249   C     0.04758   0.68182   0.88891   0.00000  Uiso   1.00
C250   C     0.07814   0.72807   0.90781   0.00000  Uiso   1.00
C251   C     0.92046   0.63531   0.99346   0.00000  Uiso   1.00
C252   C     0.91591   0.58848   0.05461   0.00000  Uiso   1.00
C253   C     0.88626   0.59205   0.14931   0.00000  Uiso   1.00
H254   H     0.88758   0.76802   0.97185   0.00000  Uiso   1.00
H255   H     0.82861   0.77381   0.79959   0.00000  Uiso   1.00
H256   H     0.97953   0.81861   0.97967   0.00000  Uiso   1.00
H257   H     0.84788   0.72529   0.14534   0.00000  Uiso   1.00
H258   H     0.77391   0.75876   0.59436   0.00000  Uiso   1.00
H259   H     0.09213   0.85323   0.97409   0.00000  Uiso   1.00
H260   H     0.81452   0.65644   0.32345   0.00000  Uiso   1.00
H261   H     0.96984   0.60264   0.86214   0.00000  Uiso   1.00
H262   H     0.91538   0.59935   0.68385   0.00000  Uiso   1.00
H263   H     0.06630   0.64415   0.86393   0.00000  Uiso   1.00
H264   H     0.93465   0.55083   0.02960   0.00000  Uiso   1.00
H265   H     0.84434   0.61717   0.50042   0.00000  Uiso   1.00
H266   H     0.16256   0.71163   0.88016   0.00000  Uiso   1.00
H267   H     0.88495   0.51484   0.22951   0.00000  Uiso   1.00
O268   O     0.77183   0.68879   0.43207   0.00000  Uiso   1.00
O269   O     0.18932   0.81272   0.93029   0.00000  Uiso   1.00
O270   O     0.82510   0.55454   0.38863   0.00000  Uiso   1.00
N271   N     0.79795   0.72588   0.59673   0.00000  Uiso   1.00
N272   N     0.09547   0.81421   0.95174   0.00000  Uiso   1.00
N273   N     0.83594   0.63023   0.27837   0.00000  Uiso   1.00
N274   N     0.83585   0.64969   0.54618   0.00000  Uiso   1.00
N275   N     0.13337   0.73801   0.90119   0.00000  Uiso   1.00
N276   N     0.87384   0.55404   0.22782   0.00000  Uiso   1.00
C277   C     0.23013   0.59357   0.94671   0.00000  Uiso   1.00
C278   C     0.21034   0.61421   0.83791   0.00000  Uiso   1.00
C279   C     0.23614   0.65267   0.77458   0.00000  Uiso   1.00
C280   C     0.21152   0.66608   0.67770   0.00000  Uiso   1.00
C281   C     0.18820   0.70179   0.51365   0.00000  Uiso   1.00
C282   C     0.23468   0.53221   0.93574   0.00000  Uiso   1.00
C283   C     0.28095   0.50173   0.95467   0.00000  Uiso   1.00
C284   C     0.27683   0.44611   0.94015   0.00000  Uiso   1.00
C285   C     0.29129   0.35451   0.92806   0.00000  Uiso   1.00
C286   C     0.18398   0.60375   0.02575   0.00000  Uiso   1.00
C287   C     0.18762   0.63340   0.12038   0.00000  Uiso   1.00
C288   C     0.14080   0.63800   0.18166   0.00000  Uiso   1.00
C289   C     0.07654   0.65747   0.30931   0.00000  Uiso   1.00
C290   C     0.14053   0.54901   0.88727   0.00000  Uiso   1.00
C291   C     0.16167   0.59000   0.80563   0.00000  Uiso   1.00
C292   C     0.13701   0.60336   0.70882   0.00000  Uiso   1.00
C293   C     0.16277   0.64184   0.64536   0.00000  Uiso   1.00
C294   C     0.18602   0.50801   0.90345   0.00000  Uiso   1.00
C295   C     0.18182   0.45242   0.88891   0.00000  Uiso   1.00
C296   C     0.22807   0.42186   0.90781   0.00000  Uiso   1.00
C297   C     0.13531   0.57954   0.99346   0.00000  Uiso   1.00
C298   C     0.08848   0.58409   0.05461   0.00000  Uiso   1.00
C299   C     0.09205   0.61374   0.14931   0.00000  Uiso   1.00
H300   H     0.26802   0.61242   0.97185   0.00000  Uiso   1.00
H301   H     0.27381   0.67139   0.79959   0.00000  Uiso   1.00
H302   H     0.31861   0.52047   0.97967   0.00000  Uiso   1.00
H303   H     0.22529   0.65212   0.14534   0.00000  Uiso   1.00
H304   H     0.25876   0.72609   0.59436   0.00000  Uiso   1.00
H305   H     0.35323   0.40787   0.97409   0.00000  Uiso   1.00
H306   H     0.15644   0.68548   0.32345   0.00000  Uiso   1.00
H307   H     0.10264   0.53016   0.86214   0.00000  Uiso   1.00
H308   H     0.09935   0.58462   0.68385   0.00000  Uiso   1.00
H309   H     0.14415   0.43370   0.86393   0.00000  Uiso   1.00
H310   H     0.05083   0.56535   0.02960   0.00000  Uiso   1.00
H311   H     0.11717   0.65566   0.50042   0.00000  Uiso   1.00
H312   H     0.21163   0.33744   0.88016   0.00000  Uiso   1.00
H313   H     0.01484   0.61505   0.22951   0.00000  Uiso   1.00
O314   O     0.18879   0.72817   0.43207   0.00000  Uiso   1.00
O315   O     0.31272   0.31068   0.93029   0.00000  Uiso   1.00
O316   O     0.05454   0.67490   0.38863   0.00000  Uiso   1.00
N317   N     0.22588   0.70205   0.59673   0.00000  Uiso   1.00
N318   N     0.31421   0.40453   0.95174   0.00000  Uiso   1.00
N319   N     0.13023   0.66406   0.27837   0.00000  Uiso   1.00
N320   N     0.14969   0.66415   0.54618   0.00000  Uiso   1.00
N321   N     0.23801   0.36663   0.90119   0.00000  Uiso   1.00
N322   N     0.05404   0.62616   0.22782   0.00000  Uiso   1.00
C323   C     0.76987   0.40643   0.94671   0.00000  Uiso   1.00
C324   C     0.78966   0.38579   0.83791   0.00000  Uiso   1.00
C325   C     0.76386   0.34733   0.77458   0.00000  Uiso   1.00
C326   C     0.78848   0.33392   0.67770   0.00000  Uiso   1.00
C327   C     0.81180   0.29821   0.51365   0.00000  Uiso   1.00
C328   C     0.76532   0.46779   0.93574   0.00000  Uiso   1.00
C329   C     0.71905   0.49827   0.95467   0.00000  Uiso   1.00
C330   C     0.72317   0.55389   0.94015   0.00000  Uiso   1.00
C331   C     0.70871   0.64549   0.92806   0.00000  Uiso   1.00
C332   C     0.81602   0.39625   0.02575   0.00000  Uiso   1.00
C333   C     0.81238   0.36660   0.12038   0.00000  Uiso   1.00
C334   C     0.85920   0.36200   0.18166   0.00000  Uiso   1.00
C335   C     0.92346   0.34253   0.30931   0.00000  Uiso   1.00
C336   C     0.85947   0.45099   0.88727   0.00000  Uiso   1.00
C337   C     0.83833   0.41000   0.80563   0.00000  Uiso   1.00
C338   C     0.86299   0.39664   0.70882   0.00000  Uiso   1.00
C339   C     0.83723   0.35816   0.64536   0.00000  Uiso   1.00
C340   C     0.81398   0.49199   0.90345   0.00000  Uiso   1.00
C341   C     0.81818   0.54758   0.88891   0.00000  Uiso   1.00
C342   C     0.77193   0.57814   0.90781   0.00000  Uiso   1.00
C343   C     0.86469   0.42046   0.99346   0.00000  Uiso   1.00
C344   C     0.91152   0.41591   0.05461   0.00000  Uiso   1.00
C345   C     0.90795   0.38626   0.14931   0.00000  Uiso   1.00
H346   H     0.73198   0.38758   0.97185   0.00000  Uiso   1.00
H347   H     0.72619   0.32861   0.79959   0.00000  Uiso   1.00
H348   H     0.68139   0.47953   0.97967   0.00000  Uiso   1.00
H349   H     0.77471   0.34788   0.14534   0.00000  Uiso   1.00
H350   H     0.74124   0.27391   0.59436   0.00000  Uiso   1.00
H351   H     0.64677   0.59213   0.97409   0.00000  Uiso   1.00
H352   H     0.84356   0.31452   0.32345   0.00000  Uiso   1.00
H353   H     0.89736   0.46984   0.86214   0.00000  Uiso   1.00
H354   H     0.90065   0.41538   0.68385   0.00000  Uiso   1.00
H355   H     0.85585   0.56630   0.86393   0.00000  Uiso   1.00
H356   H     0.94917   0.43465   0.02960   0.00000  Uiso   1.00
H357   H     0.88283   0.34434   0.50042   0.00000  Uiso   1.00
H358   H     0.78837   0.66256   0.88016   0.00000  Uiso   1.00
H359   H     0.98516   0.38495   0.22951   0.00000  Uiso   1.00
O360   O     0.81121   0.27183   0.43207   0.00000  Uiso   1.00
O361   O     0.68728   0.68932   0.93029   0.00000  Uiso   1.00
O362   O     0.94546   0.32510   0.38863   0.00000  Uiso   1.00
N363   N     0.77412   0.29795   0.59673   0.00000  Uiso   1.00
N364   N     0.68579   0.59547   0.95174   0.00000  Uiso   1.00
N365   N     0.86977   0.33594   0.27837   0.00000  Uiso   1.00
N366   N     0.85031   0.33585   0.54618   0.00000  Uiso   1.00
N367   N     0.76199   0.63337   0.90119   0.00000  Uiso   1.00
N368   N     0.94596   0.37384   0.22782   0.00000  Uiso   1.00
