data_job_06992
_audit_creation_date              2018-12-19
_audit_creation_method            'Materials Studio'
_symmetry_space_group_name_H-M    'P1'
_symmetry_Int_Tables_number       1
_symmetry_cell_setting            triclinic
loop_
_symmetry_equiv_pos_as_xyz
  x,y,z
_cell_length_a                    21.6496
_cell_length_b                    19.3268
_cell_length_c                    21.8293
_cell_angle_alpha                 75.5133
_cell_angle_beta                  71.7267
_cell_angle_gamma                 96.5619
loop_
_atom_site_label
_atom_site_type_symbol
_atom_site_fract_x
_atom_site_fract_y
_atom_site_fract_z
_atom_site_U_iso_or_equiv
_atom_site_adp_type
_atom_site_occupancy
C1     C     0.42914   0.16605   0.46568   0.00000  Uiso   1.00
C2     C     0.42872   0.10486   0.43313   0.00000  Uiso   1.00
C3     C     0.37580   0.07401   0.41885   0.00000  Uiso   1.00
C4     C     0.38529   0.01862   0.38901   0.00000  Uiso   1.00
C5     C     0.37544   0.92718   0.34079   0.00000  Uiso   1.00
C6     C     0.44672   0.13656   0.52832   0.00000  Uiso   1.00
C7     C     0.40895   0.13238   0.59407   0.00000  Uiso   1.00
C8     C     0.43360   0.10370   0.64436   0.00000  Uiso   1.00
C9     C     0.45173   0.06153   0.74391   0.00000  Uiso   1.00
C10    C     0.48802   0.22690   0.41668   0.00000  Uiso   1.00
C11    C     0.48498   0.29869   0.38857   0.00000  Uiso   1.00
C12    C     0.54442   0.34606   0.34487   0.00000  Uiso   1.00
C13    C     0.62668   0.44415   0.27107   0.00000  Uiso   1.00
C14    C     0.54009   0.12254   0.43808   0.00000  Uiso   1.00
C15    C     0.48898   0.08122   0.41815   0.00000  Uiso   1.00
C16    C     0.49855   0.02587   0.38831   0.00000  Uiso   1.00
C17    C     0.44566   0.99495   0.37399   0.00000  Uiso   1.00
C18    C     0.50698   0.11293   0.51333   0.00000  Uiso   1.00
C19    C     0.53170   0.08424   0.56353   0.00000  Uiso   1.00
C20    C     0.49397   0.08002   0.62934   0.00000  Uiso   1.00
C21    C     0.54829   0.20327   0.40169   0.00000  Uiso   1.00
C22    C     0.60774   0.25054   0.35803   0.00000  Uiso   1.00
C23    C     0.60479   0.32238   0.32985   0.00000  Uiso   1.00
H24    H     0.38223   0.18445   0.47736   0.00000  Uiso   1.00
H25    H     0.32917   0.09231   0.43047   0.00000  Uiso   1.00
H26    H     0.36231   0.15068   0.60566   0.00000  Uiso   1.00
H27    H     0.43834   0.31696   0.40018   0.00000  Uiso   1.00
H28    H     0.29691   0.97972   0.37189   0.00000  Uiso   1.00
H29    H     0.36681   0.10283   0.74129   0.00000  Uiso   1.00
H30    H     0.52713   0.45345   0.30800   0.00000  Uiso   1.00
H31    H     0.58701   0.10413   0.42641   0.00000  Uiso   1.00
H32    H     0.54519   0.00759   0.37672   0.00000  Uiso   1.00
H33    H     0.57834   0.06596   0.55191   0.00000  Uiso   1.00
H34    H     0.65436   0.23223   0.34644   0.00000  Uiso   1.00
H35    H     0.47224   0.91096   0.32827   0.00000  Uiso   1.00
H36    H     0.54215   0.03406   0.69767   0.00000  Uiso   1.00
H37    H     0.70246   0.38468   0.26438   0.00000  Uiso   1.00
O38    O     0.35336   0.88327   0.31834   0.00000  Uiso   1.00
O39    O     0.44508   0.04479   0.80296   0.00000  Uiso   1.00
O40    O     0.65541   0.50478   0.23450   0.00000  Uiso   1.00
N41    N     0.34392   0.97680   0.36843   0.00000  Uiso   1.00
N42    N     0.40927   0.09188   0.71380   0.00000  Uiso   1.00
N43    N     0.55915   0.41969   0.30873   0.00000  Uiso   1.00
N44    N     0.43827   0.93980   0.34496   0.00000  Uiso   1.00
N45    N     0.50361   0.05488   0.69032   0.00000  Uiso   1.00
N46    N     0.65350   0.38268   0.28525   0.00000  Uiso   1.00
C47    C     0.52916   0.50032   0.13334   0.00000  Uiso   1.00
C48    C     0.48740   0.43616   0.12568   0.00000  Uiso   1.00
C49    C     0.48097   0.36285   0.15862   0.00000  Uiso   1.00
C50    C     0.44044   0.31246   0.14478   0.00000  Uiso   1.00
C51    C     0.38062   0.20946   0.13973   0.00000  Uiso   1.00
C52    C     0.57693   0.54342   0.06217   0.00000  Uiso   1.00
C53    C     0.64577   0.56032   0.04170   0.00000  Uiso   1.00
C54    C     0.68061   0.60023   0.97439   0.00000  Uiso   1.00
C55    C     0.75979   0.66381   0.87074   0.00000  Uiso   1.00
C56    C     0.48167   0.54938   0.15520   0.00000  Uiso   1.00
C57    C     0.47044   0.57130   0.21294   0.00000  Uiso   1.00
C58    C     0.42508   0.61624   0.22395   0.00000  Uiso   1.00
C59    C     0.35636   0.68906   0.26475   0.00000  Uiso   1.00
C60    C     0.46861   0.54118   0.05020   0.00000  Uiso   1.00
C61    C     0.45451   0.45835   0.08052   0.00000  Uiso   1.00
C62    C     0.41398   0.40806   0.06663   0.00000  Uiso   1.00
C63    C     0.40749   0.33470   0.09954   0.00000  Uiso   1.00
C64    C     0.54404   0.56562   0.01701   0.00000  Uiso   1.00
C65    C     0.57878   0.60553   0.94972   0.00000  Uiso   1.00
C66    C     0.64766   0.62247   0.92915   0.00000  Uiso   1.00
C67    C     0.44878   0.57157   0.11004   0.00000  Uiso   1.00
C68    C     0.40344   0.61650   0.12096   0.00000  Uiso   1.00
C69    C     0.39213   0.63848   0.17871   0.00000  Uiso   1.00
H70    H     0.55477   0.48304   0.16850   0.00000  Uiso   1.00
H71    H     0.50644   0.34570   0.19356   0.00000  Uiso   1.00
H72    H     0.67121   0.54314   0.07666   0.00000  Uiso   1.00
H73    H     0.49590   0.55411   0.24788   0.00000  Uiso   1.00
H74    H     0.43837   0.20322   0.20141   0.00000  Uiso   1.00
H75    H     0.78580   0.61955   0.95493   0.00000  Uiso   1.00
H76    H     0.41612   0.64269   0.31597   0.00000  Uiso   1.00
H77    H     0.44300   0.55846   0.01504   0.00000  Uiso   1.00
H78    H     0.38853   0.42525   0.03168   0.00000  Uiso   1.00
H79    H     0.55331   0.62269   0.91478   0.00000  Uiso   1.00
H80    H     0.37800   0.63366   0.08600   0.00000  Uiso   1.00
H81    H     0.34267   0.26779   0.07002   0.00000  Uiso   1.00
H82    H     0.69011   0.68412   0.82354   0.00000  Uiso   1.00
H83    H     0.32043   0.70726   0.18459   0.00000  Uiso   1.00
O84    O     0.35672   0.14651   0.14941   0.00000  Uiso   1.00
O85    O     0.81255   0.69274   0.82605   0.00000  Uiso   1.00
O86    O     0.32753   0.72309   0.29973   0.00000  Uiso   1.00
N87    N     0.42331   0.23670   0.16821   0.00000  Uiso   1.00
N88    N     0.74814   0.62593   0.93777   0.00000  Uiso   1.00
N89    N     0.40253   0.64758   0.27530   0.00000  Uiso   1.00
N90    N     0.37182   0.27144   0.09752   0.00000  Uiso   1.00
N91    N     0.69665   0.66068   0.86707   0.00000  Uiso   1.00
N92    N     0.35104   0.68232   0.20460   0.00000  Uiso   1.00
C93    C     0.23382   0.53478   0.41183   0.00000  Uiso   1.00
C94    C     0.18589   0.47891   0.40095   0.00000  Uiso   1.00
C95    C     0.18597   0.47353   0.33872   0.00000  Uiso   1.00
C96    C     0.13805   0.41870   0.33952   0.00000  Uiso   1.00
C97    C     0.07065   0.33923   0.31338   0.00000  Uiso   1.00
C98    C     0.19058   0.57447   0.45500   0.00000  Uiso   1.00
C99    C     0.19461   0.64943   0.43821   0.00000  Uiso   1.00
C100   C     0.15064   0.67505   0.48451   0.00000  Uiso   1.00
C101   C     0.09056   0.74394   0.54230   0.00000  Uiso   1.00
C102   C     0.26656   0.49081   0.45634   0.00000  Uiso   1.00
C103   C     0.33447   0.49544   0.44069   0.00000  Uiso   1.00
C104   C     0.35446   0.45063   0.48813   0.00000  Uiso   1.00
C105   C     0.41234   0.38961   0.54799   0.00000  Uiso   1.00
C106   C     0.14857   0.44700   0.52392   0.00000  Uiso   1.00
C107   C     0.13959   0.43123   0.46184   0.00000  Uiso   1.00
C108   C     0.09165   0.37640   0.46274   0.00000  Uiso   1.00
C109   C     0.09166   0.37093   0.40051   0.00000  Uiso   1.00
C110   C     0.14428   0.52679   0.51588   0.00000  Uiso   1.00
C111   C     0.10029   0.55231   0.56223   0.00000  Uiso   1.00
C112   C     0.10425   0.62728   0.54551   0.00000  Uiso   1.00
C113   C     0.22025   0.44312   0.51723   0.00000  Uiso   1.00
C114   C     0.24015   0.39831   0.56470   0.00000  Uiso   1.00
C115   C     0.30807   0.40286   0.54912   0.00000  Uiso   1.00
H116   H     0.26987   0.57191   0.36443   0.00000  Uiso   1.00
H117   H     0.22181   0.51044   0.29161   0.00000  Uiso   1.00
H118   H     0.23046   0.68632   0.39109   0.00000  Uiso   1.00
H119   H     0.37029   0.53234   0.39357   0.00000  Uiso   1.00
H120   H     0.14810   0.42128   0.23773   0.00000  Uiso   1.00
H121   H     0.16634   0.79213   0.44750   0.00000  Uiso   1.00
H122   H     0.46120   0.46744   0.45272   0.00000  Uiso   1.00
H123   H     0.11252   0.40987   0.57133   0.00000  Uiso   1.00
H124   H     0.05582   0.33951   0.50986   0.00000  Uiso   1.00
H125   H     0.06447   0.51539   0.60934   0.00000  Uiso   1.00
H126   H     0.20430   0.36141   0.61181   0.00000  Uiso   1.00
H127   H     0.01337   0.28255   0.41487   0.00000  Uiso   1.00
H128   H     0.03162   0.65340   0.62464   0.00000  Uiso   1.00
H129   H     0.32648   0.32871   0.62986   0.00000  Uiso   1.00
O130   O     0.04626   0.30857   0.28214   0.00000  Uiso   1.00
O131   O     0.07021   0.79511   0.55735   0.00000  Uiso   1.00
O132   O     0.45706   0.36913   0.56419   0.00000  Uiso   1.00
N133   N     0.12418   0.39828   0.28786   0.00000  Uiso   1.00
N134   N     0.14123   0.74500   0.48397   0.00000  Uiso   1.00
N135   N     0.41690   0.44146   0.48886   0.00000  Uiso   1.00
N136   N     0.05168   0.32363   0.38317   0.00000  Uiso   1.00
N137   N     0.06873   0.67035   0.57929   0.00000  Uiso   1.00
N138   N     0.34441   0.36681   0.58418   0.00000  Uiso   1.00
C139   C     0.04693   0.09354   0.60724   0.00000  Uiso   1.00
C140   C     0.99212   0.04121   0.60161   0.00000  Uiso   1.00
C141   C     0.92667   0.04863   0.61425   0.00000  Uiso   1.00
C142   C     0.88416   0.99495   0.60623   0.00000  Uiso   1.00
C143   C     0.79568   0.92268   0.60049   0.00000  Uiso   1.00
C144   C     0.10292   0.11764   0.53834   0.00000  Uiso   1.00
C145   C     0.13064   0.18932   0.49780   0.00000  Uiso   1.00
C146   C     0.18141   0.19997   0.43654   0.00000  Uiso   1.00
C147   C     0.26498   0.24636   0.33260   0.00000  Uiso   1.00
C148   C     0.07378   0.04739   0.65660   0.00000  Uiso   1.00
C149   C     0.07701   0.06002   0.71549   0.00000  Uiso   1.00
C150   C     0.10326   0.01153   0.75379   0.00000  Uiso   1.00
C151   C     0.14159   0.94885   0.83347   0.00000  Uiso   1.00
C152   C     0.08783   0.98499   0.57053   0.00000  Uiso   1.00
C153   C     0.01434   0.98226   0.58167   0.00000  Uiso   1.00
C154   C     0.97192   0.92854   0.57364   0.00000  Uiso   1.00
C155   C     0.90641   0.93588   0.58627   0.00000  Uiso   1.00
C156   C     0.12514   0.05868   0.51841   0.00000  Uiso   1.00
C157   C     0.17589   0.06923   0.45719   0.00000  Uiso   1.00
C158   C     0.20366   0.14090   0.41656   0.00000  Uiso   1.00
C159   C     0.09600   0.98843   0.63667   0.00000  Uiso   1.00
C160   C     0.12226   0.93992   0.67488   0.00000  Uiso   1.00
C161   C     0.12552   0.95247   0.73382   0.00000  Uiso   1.00
H162   H     0.02964   0.13944   0.62275   0.00000  Uiso   1.00
H163   H     0.90950   0.09427   0.62967   0.00000  Uiso   1.00
H164   H     0.11344   0.23493   0.51324   0.00000  Uiso   1.00
H165   H     0.05981   0.10565   0.73090   0.00000  Uiso   1.00
H166   H     0.78610   0.01821   0.62851   0.00000  Uiso   1.00
H167   H     0.21613   0.31480   0.38304   0.00000  Uiso   1.00
H168   H     0.10306   0.04218   0.84201   0.00000  Uiso   1.00
H169   H     0.10513   0.93909   0.55501   0.00000  Uiso   1.00
H170   H     0.98913   0.88292   0.55821   0.00000  Uiso   1.00
H171   H     0.19307   0.02359   0.44178   0.00000  Uiso   1.00
H172   H     0.13945   0.89430   0.65944   0.00000  Uiso   1.00
H173   H     0.85073   0.84667   0.57051   0.00000  Uiso   1.00
H174   H     0.28077   0.14326   0.32504   0.00000  Uiso   1.00
H175   H     0.16769   0.87064   0.78401   0.00000  Uiso   1.00
O176   O     0.74074   0.89912   0.60282   0.00000  Uiso   1.00
O177   O     0.30494   0.28823   0.28077   0.00000  Uiso   1.00
O178   O     0.15659   0.93056   0.88293   0.00000  Uiso   1.00
N179   N     0.81722   0.98554   0.61444   0.00000  Uiso   1.00
N180   N     0.21927   0.26283   0.38493   0.00000  Uiso   1.00
N181   N     0.11358   0.00797   0.81402   0.00000  Uiso   1.00
N182   N     0.85200   0.89323   0.58323   0.00000  Uiso   1.00
N183   N     0.25405   0.17053   0.35372   0.00000  Uiso   1.00
N184   N     0.14836   0.91566   0.78281   0.00000  Uiso   1.00
C185   C     0.02604   0.72710   0.89843   0.00000  Uiso   1.00
C186   C     0.98080   0.66030   0.89886   0.00000  Uiso   1.00
C187   C     0.97414   0.64499   0.84215   0.00000  Uiso   1.00
C188   C     0.93018   0.58109   0.85321   0.00000  Uiso   1.00
C189   C     0.86543   0.48447   0.84392   0.00000  Uiso   1.00
C190   C     0.07084   0.69765   0.93592   0.00000  Uiso   1.00
C191   C     0.13988   0.71376   0.91039   0.00000  Uiso   1.00
C192   C     0.17172   0.68131   0.95265   0.00000  Uiso   1.00
C193   C     0.24675   0.64273   0.00093   0.00000  Uiso   1.00
C194   C     0.98111   0.76422   0.94306   0.00000  Uiso   1.00
C195   C     0.97471   0.83631   0.92354   0.00000  Uiso   1.00
C196   C     0.93101   0.85990   0.97182   0.00000  Uiso   1.00
C197   C     0.86672   0.92467   0.03118   0.00000  Uiso   1.00
C198   C     0.95982   0.64082   0.01890   0.00000  Uiso   1.00
C199   C     0.94483   0.61343   0.96430   0.00000  Uiso   1.00
C200   C     0.90087   0.54953   0.97544   0.00000  Uiso   1.00
C201   C     0.89414   0.53414   0.91876   0.00000  Uiso   1.00
C202   C     0.03487   0.65079   0.00136   0.00000  Uiso   1.00
C203   C     0.06661   0.61830   0.04368   0.00000  Uiso   1.00
C204   C     0.13568   0.63436   0.01821   0.00000  Uiso   1.00
C205   C     0.94514   0.71735   0.00850   0.00000  Uiso   1.00
C206   C     0.90144   0.74084   0.05683   0.00000  Uiso   1.00
C207   C     0.89497   0.81295   0.03738   0.00000  Uiso   1.00
H208   H     0.05405   0.76358   0.84748   0.00000  Uiso   1.00
H209   H     0.00199   0.68127   0.79152   0.00000  Uiso   1.00
H210   H     0.16771   0.75004   0.85975   0.00000  Uiso   1.00
H211   H     0.00256   0.87256   0.87290   0.00000  Uiso   1.00
H212   H     0.92843   0.56933   0.75832   0.00000  Uiso   1.00
H213   H     0.27785   0.71435   0.90220   0.00000  Uiso   1.00
H214   H     0.92960   0.97271   0.92992   0.00000  Uiso   1.00
H215   H     0.93181   0.60433   0.06985   0.00000  Uiso   1.00
H216   H     0.87304   0.51328   0.02609   0.00000  Uiso   1.00
H217   H     0.03876   0.58204   0.09431   0.00000  Uiso   1.00
H218   H     0.87361   0.70456   0.10746   0.00000  Uiso   1.00
H219   H     0.82377   0.43298   0.94871   0.00000  Uiso   1.00
H220   H     0.17319   0.57800   0.09258   0.00000  Uiso   1.00
H221   H     0.82494   0.83635   0.12031   0.00000  Uiso   1.00
O222   O     0.83966   0.44412   0.82071   0.00000  Uiso   1.00
O223   O     0.29808   0.63439   0.00947   0.00000  Uiso   1.00
O224   O     0.84119   0.97334   0.04585   0.00000  Uiso   1.00
N225   N     0.91185   0.54975   0.80914   0.00000  Uiso   1.00
N226   N     0.23854   0.68532   0.94365   0.00000  Uiso   1.00
N227   N     0.91297   0.92687   0.96957   0.00000  Uiso   1.00
N228   N     0.85554   0.47638   0.91158   0.00000  Uiso   1.00
N229   N     0.18222   0.61195   0.04609   0.00000  Uiso   1.00
N230   N     0.85665   0.85350   0.07202   0.00000  Uiso   1.00
C231   C     0.72372   0.93199   0.93720   0.00000  Uiso   1.00
C232   C     0.66711   0.91949   0.91107   0.00000  Uiso   1.00
C233   C     0.64896   0.85871   0.89265   0.00000  Uiso   1.00
C234   C     0.59577   0.85761   0.87000   0.00000  Uiso   1.00
C235   C     0.51298   0.82942   0.83008   0.00000  Uiso   1.00
C236   C     0.69250   0.94449   0.00552   0.00000  Uiso   1.00
C237   C     0.69571   0.90474   0.06651   0.00000  Uiso   1.00
C238   C     0.66390   0.92469   0.12337   0.00000  Uiso   1.00
C239   C     0.62057   0.93536   0.23009   0.00000  Uiso   1.00
C240   C     0.76893   0.00470   0.88989   0.00000  Uiso   1.00
C241   C     0.83641   0.01558   0.85366   0.00000  Uiso   1.00
C242   C     0.86896   0.08623   0.81317   0.00000  Uiso   1.00
C243   C     0.94431   0.19037   0.74034   0.00000  Uiso   1.00
C244   C     0.66153   0.03811   0.92973   0.00000  Uiso   1.00
C245   C     0.63333   0.97713   0.90702   0.00000  Uiso   1.00
C246   C     0.58015   0.97613   0.88439   0.00000  Uiso   1.00
C247   C     0.56193   0.91535   0.86593   0.00000  Uiso   1.00
C248   C     0.65872   0.00213   0.00147   0.00000  Uiso   1.00
C249   C     0.62690   0.02216   0.05825   0.00000  Uiso   1.00
C250   C     0.63006   0.98244   0.11931   0.00000  Uiso   1.00
C251   C     0.73516   0.06235   0.88583   0.00000  Uiso   1.00
C252   C     0.76761   0.13299   0.84540   0.00000  Uiso   1.00
C253   C     0.83512   0.14398   0.80911   0.00000  Uiso   1.00
H254   H     0.75002   0.88711   0.94036   0.00000  Uiso   1.00
H255   H     0.67511   0.81411   0.89580   0.00000  Uiso   1.00
H256   H     0.72185   0.86014   0.06964   0.00000  Uiso   1.00
H257   H     0.86254   0.97096   0.85681   0.00000  Uiso   1.00
H258   H     0.57714   0.75858   0.84464   0.00000  Uiso   1.00
H259   H     0.67573   0.85566   0.21117   0.00000  Uiso   1.00
H260   H     0.97239   0.08934   0.76239   0.00000  Uiso   1.00
H261   H     0.63523   0.08299   0.92657   0.00000  Uiso   1.00
H262   H     0.55402   0.02074   0.88125   0.00000  Uiso   1.00
H263   H     0.60077   0.06677   0.05509   0.00000  Uiso   1.00
H264   H     0.74145   0.17759   0.84227   0.00000  Uiso   1.00
H265   H     0.47887   0.92629   0.83283   0.00000  Uiso   1.00
H266   H     0.57746   0.02337   0.19937   0.00000  Uiso   1.00
H267   H     0.87412   0.25705   0.75059   0.00000  Uiso   1.00
O268   O     0.47664   0.79794   0.80919   0.00000  Uiso   1.00
O269   O     0.60600   0.92531   0.29007   0.00000  Uiso   1.00
O270   O     0.99520   0.23189   0.70128   0.00000  Uiso   1.00
N271   N     0.56517   0.80660   0.84806   0.00000  Uiso   1.00
N272   N     0.65733   0.89735   0.19076   0.00000  Uiso   1.00
N273   N     0.93469   0.11583   0.77120   0.00000  Uiso   1.00
N274   N     0.51228   0.89684   0.84171   0.00000  Uiso   1.00
N275   N     0.60445   0.98760   0.18440   0.00000  Uiso   1.00
N276   N     0.88181   0.20608   0.76485   0.00000  Uiso   1.00
C277   C     0.52590   0.68415   0.52843   0.00000  Uiso   1.00
C278   C     0.52388   0.74451   0.56215   0.00000  Uiso   1.00
C279   C     0.57565   0.77658   0.57729   0.00000  Uiso   1.00
C280   C     0.56393   0.83090   0.60815   0.00000  Uiso   1.00
C281   C     0.57013   0.92138   0.65818   0.00000  Uiso   1.00
C282   C     0.50836   0.71341   0.46572   0.00000  Uiso   1.00
C283   C     0.54708   0.71932   0.39979   0.00000  Uiso   1.00
C284   C     0.52228   0.74745   0.34948   0.00000  Uiso   1.00
C285   C     0.50437   0.78960   0.24980   0.00000  Uiso   1.00
C286   C     0.46811   0.62157   0.57650   0.00000  Uiso   1.00
C287   C     0.47298   0.55026   0.60370   0.00000  Uiso   1.00
C288   C     0.41430   0.50107   0.64665   0.00000  Uiso   1.00
C289   C     0.33390   0.40063   0.71898   0.00000  Uiso   1.00
C290   C     0.41302   0.72358   0.55629   0.00000  Uiso   1.00
C291   C     0.46257   0.76592   0.57728   0.00000  Uiso   1.00
C292   C     0.45077   0.82020   0.60813   0.00000  Uiso   1.00
C293   C     0.50251   0.85235   0.62331   0.00000  Uiso   1.00
C294   C     0.44705   0.73482   0.48085   0.00000  Uiso   1.00
C295   C     0.42219   0.76294   0.43062   0.00000  Uiso   1.00
C296   C     0.46086   0.76891   0.36464   0.00000  Uiso   1.00
C297   C     0.40680   0.64298   0.59164   0.00000  Uiso   1.00
C298   C     0.34810   0.59389   0.63454   0.00000  Uiso   1.00
C299   C     0.35288   0.52252   0.66181   0.00000  Uiso   1.00
H300   H     0.57363   0.66748   0.51664   0.00000  Uiso   1.00
H301   H     0.62309   0.76000   0.56557   0.00000  Uiso   1.00
H302   H     0.59452   0.70274   0.38810   0.00000  Uiso   1.00
H303   H     0.52044   0.53371   0.59198   0.00000  Uiso   1.00
H304   H     0.65090   0.87204   0.62646   0.00000  Uiso   1.00
H305   H     0.59064   0.75128   0.25226   0.00000  Uiso   1.00
H306   H     0.43442   0.39485   0.68219   0.00000  Uiso   1.00
H307   H     0.36529   0.74025   0.56808   0.00000  Uiso   1.00
H308   H     0.40332   0.83676   0.61983   0.00000  Uiso   1.00
H309   H     0.37474   0.77950   0.44236   0.00000  Uiso   1.00
H310   H     0.30067   0.61048   0.64624   0.00000  Uiso   1.00
H311   H     0.47252   0.93434   0.67050   0.00000  Uiso   1.00
H312   H     0.41226   0.81358   0.29630   0.00000  Uiso   1.00
H313   H     0.25605   0.45715   0.72623   0.00000  Uiso   1.00
O314   O     0.59049   0.96538   0.68158   0.00000  Uiso   1.00
O315   O     0.51143   0.80694   0.19064   0.00000  Uiso   1.00
O316   O     0.30648   0.33931   0.75470   0.00000  Uiso   1.00
N317   N     0.60369   0.87345   0.62974   0.00000  Uiso   1.00
N318   N     0.54736   0.76055   0.27988   0.00000  Uiso   1.00
N319   N     0.40131   0.42732   0.68181   0.00000  Uiso   1.00
N320   N     0.50771   0.90697   0.65344   0.00000  Uiso   1.00
N321   N     0.45138   0.79408   0.30358   0.00000  Uiso   1.00
N322   N     0.30533   0.46084   0.70551   0.00000  Uiso   1.00
C323   C     0.50070   0.29765   0.77524   0.00000  Uiso   1.00
C324   C     0.53690   0.36545   0.78318   0.00000  Uiso   1.00
C325   C     0.54341   0.43713   0.74561   0.00000  Uiso   1.00
C326   C     0.57836   0.49146   0.76059   0.00000  Uiso   1.00
C327   C     0.63037   0.59931   0.76522   0.00000  Uiso   1.00
C328   C     0.44844   0.25684   0.84476   0.00000  Uiso   1.00
C329   C     0.38059   0.23720   0.85897   0.00000  Uiso   1.00
C330   C     0.34109   0.20009   0.92580   0.00000  Uiso   1.00
C331   C     0.25578   0.13927   0.02602   0.00000  Uiso   1.00
C332   C     0.55134   0.24943   0.76181   0.00000  Uiso   1.00
C333   C     0.56999   0.22352   0.70627   0.00000  Uiso   1.00
C334   C     0.61710   0.18016   0.70327   0.00000  Uiso   1.00
C335   C     0.69155   0.10783   0.67470   0.00000  Uiso   1.00
C336   C     0.55118   0.26668   0.86866   0.00000  Uiso   1.00
C337   C     0.56431   0.34863   0.83392   0.00000  Uiso   1.00
C338   C     0.59927   0.40287   0.84896   0.00000  Uiso   1.00
C339   C     0.60583   0.47461   0.81142   0.00000  Uiso   1.00
C340   C     0.47586   0.24002   0.89550   0.00000  Uiso   1.00
C341   C     0.43645   0.20294   0.96232   0.00000  Uiso   1.00
C342   C     0.36855   0.18324   0.97663   0.00000  Uiso   1.00
C343   C     0.57876   0.23261   0.81255   0.00000  Uiso   1.00
C344   C     0.62585   0.18927   0.80963   0.00000  Uiso   1.00
C345   C     0.64457   0.16331   0.75410   0.00000  Uiso   1.00
H346   H     0.47934   0.31074   0.73574   0.00000  Uiso   1.00
H347   H     0.52218   0.45012   0.70635   0.00000  Uiso   1.00
H348   H     0.35939   0.25021   0.81969   0.00000  Uiso   1.00
H349   H     0.54876   0.23655   0.66702   0.00000  Uiso   1.00
H350   H     0.58174   0.59724   0.69616   0.00000  Uiso   1.00
H351   H     0.23849   0.17570   0.93514   0.00000  Uiso   1.00
H352   H     0.63781   0.14689   0.61320   0.00000  Uiso   1.00
H353   H     0.57253   0.25358   0.90816   0.00000  Uiso   1.00
H354   H     0.62048   0.38983   0.88823   0.00000  Uiso   1.00
H355   H     0.45769   0.18993   0.00157   0.00000  Uiso   1.00
H356   H     0.64706   0.17626   0.84890   0.00000  Uiso   1.00
H357   H     0.66152   0.54831   0.84378   0.00000  Uiso   1.00
H358   H     0.31827   0.12676   0.08276   0.00000  Uiso   1.00
H359   H     0.71759   0.09795   0.76082   0.00000  Uiso   1.00
O360   O     0.65147   0.66344   0.75376   0.00000  Uiso   1.00
O361   O     0.20115   0.11038   0.06729   0.00000  Uiso   1.00
O362   O     0.72505   0.07258   0.64492   0.00000  Uiso   1.00
N363   N     0.59395   0.56702   0.73363   0.00000  Uiso   1.00
N364   N     0.27303   0.17292   0.95706   0.00000  Uiso   1.00
N365   N     0.64635   0.14596   0.65609   0.00000  Uiso   1.00
N366   N     0.63688   0.54069   0.81306   0.00000  Uiso   1.00
N367   N     0.31596   0.14659   0.03650   0.00000  Uiso   1.00
N368   N     0.68928   0.11963   0.73552   0.00000  Uiso   1.00
C369   C     0.76127   0.35724   0.54943   0.00000  Uiso   1.00
C370   C     0.80885   0.41423   0.55947   0.00000  Uiso   1.00
C371   C     0.80922   0.42038   0.62135   0.00000  Uiso   1.00
C372   C     0.85672   0.47617   0.61979   0.00000  Uiso   1.00
C373   C     0.92371   0.55735   0.64471   0.00000  Uiso   1.00
C374   C     0.80490   0.31796   0.50612   0.00000  Uiso   1.00
C375   C     0.80193   0.24318   0.52314   0.00000  Uiso   1.00
C376   C     0.84610   0.21794   0.47666   0.00000  Uiso   1.00
C377   C     0.90692   0.14966   0.41872   0.00000  Uiso   1.00
C378   C     0.72742   0.39993   0.50538   0.00000  Uiso   1.00
C379   C     0.65931   0.39406   0.52177   0.00000  Uiso   1.00
C380   C     0.63824   0.43782   0.47466   0.00000  Uiso   1.00
C381   C     0.57877   0.49681   0.41559   0.00000  Uiso   1.00
C382   C     0.84498   0.44538   0.43661   0.00000  Uiso   1.00
C383   C     0.85432   0.46210   0.49819   0.00000  Uiso   1.00
C384   C     0.90183   0.51790   0.49654   0.00000  Uiso   1.00
C385   C     0.90227   0.52414   0.55841   0.00000  Uiso   1.00
C386   C     0.85037   0.36583   0.44484   0.00000  Uiso   1.00
C387   C     0.89455   0.34069   0.39832   0.00000  Uiso   1.00
C388   C     0.89165   0.26590   0.41527   0.00000  Uiso   1.00
C389   C     0.77289   0.44781   0.44410   0.00000  Uiso   1.00
C390   C     0.75192   0.49158   0.39696   0.00000  Uiso   1.00
C391   C     0.68379   0.48578   0.41328   0.00000  Uiso   1.00
H392   H     0.72587   0.31997   0.59713   0.00000  Uiso   1.00
H393   H     0.77403   0.38332   0.66876   0.00000  Uiso   1.00
H394   H     0.76674   0.20615   0.57056   0.00000  Uiso   1.00
H395   H     0.62414   0.35701   0.56920   0.00000  Uiso   1.00
H396   H     0.84748   0.47465   0.72116   0.00000  Uiso   1.00
H397   H     0.83210   0.10107   0.51408   0.00000  Uiso   1.00
H398   H     0.53139   0.41919   0.51121   0.00000  Uiso   1.00
H399   H     0.88038   0.48265   0.38890   0.00000  Uiso   1.00
H400   H     0.93701   0.55493   0.44911   0.00000  Uiso   1.00
H401   H     0.92972   0.37775   0.35090   0.00000  Uiso   1.00
H402   H     0.78712   0.52861   0.34954   0.00000  Uiso   1.00
H403   H     0.97977   0.61394   0.54288   0.00000  Uiso   1.00
H404   H     0.96438   0.24035   0.33580   0.00000  Uiso   1.00
H405   H     0.66368   0.55847   0.33293   0.00000  Uiso   1.00
O406   O     0.94811   0.58890   0.67538   0.00000  Uiso   1.00
O407   O     0.92791   0.09877   0.40369   0.00000  Uiso   1.00
O408   O     0.53340   0.51613   0.39993   0.00000  Uiso   1.00
N409   N     0.87084   0.49752   0.67094   0.00000  Uiso   1.00
N410   N     0.85646   0.14825   0.47733   0.00000  Uiso   1.00
N411   N     0.57533   0.44564   0.47464   0.00000  Uiso   1.00
N412   N     0.94202   0.57247   0.57501   0.00000  Uiso   1.00
N413   N     0.92764   0.22319   0.38140   0.00000  Uiso   1.00
N414   N     0.64651   0.52059   0.37871   0.00000  Uiso   1.00
C415   C     0.90019   0.83965   0.31356   0.00000  Uiso   1.00
C416   C     0.95628   0.87633   0.33040   0.00000  Uiso   1.00
C417   C     0.02310   0.87490   0.30309   0.00000  Uiso   1.00
C418   C     0.06663   0.91182   0.32504   0.00000  Uiso   1.00
C419   C     0.15714   0.96312   0.34398   0.00000  Uiso   1.00
C420   C     0.85000   0.78931   0.38080   0.00000  Uiso   1.00
C421   C     0.82746   0.71471   0.39586   0.00000  Uiso   1.00
C422   C     0.78152   0.67838   0.46024   0.00000  Uiso   1.00
C423   C     0.70700   0.59459   0.55740   0.00000  Uiso   1.00
C424   C     0.86584   0.89997   0.28951   0.00000  Uiso   1.00
C425   C     0.85660   0.91842   0.22781   0.00000  Uiso   1.00
C426   C     0.82397   0.97525   0.21534   0.00000  Uiso   1.00
C427   C     0.77404   0.06328   0.17075   0.00000  Uiso   1.00
C428   C     0.85866   0.90776   0.40114   0.00000  Uiso   1.00
C429   C     0.93371   0.91332   0.37797   0.00000  Uiso   1.00
C430   C     0.97715   0.95026   0.39997   0.00000  Uiso   1.00
C431   C     0.04403   0.94889   0.37269   0.00000  Uiso   1.00
C432   C     0.82744   0.82630   0.42837   0.00000  Uiso   1.00
C433   C     0.78151   0.79007   0.49274   0.00000  Uiso   1.00
C434   C     0.75892   0.71544   0.50789   0.00000  Uiso   1.00
C435   C     0.84328   0.93697   0.33707   0.00000  Uiso   1.00
C436   C     0.81065   0.99378   0.32470   0.00000  Uiso   1.00
C437   C     0.80137   0.01231   0.26299   0.00000  Uiso   1.00
H438   H     0.91775   0.81084   0.27654   0.00000  Uiso   1.00
H439   H     0.04054   0.84626   0.26628   0.00000  Uiso   1.00
H440   H     0.84493   0.68610   0.35903   0.00000  Uiso   1.00
H441   H     0.87407   0.88978   0.19101   0.00000  Uiso   1.00
H442   H     0.16672   0.90182   0.27591   0.00000  Uiso   1.00
H443   H     0.75425   0.56412   0.47147   0.00000  Uiso   1.00
H444   H     0.81568   0.99361   0.11717   0.00000  Uiso   1.00
H445   H     0.84109   0.93657   0.43817   0.00000  Uiso   1.00
H446   H     0.95967   0.97889   0.43678   0.00000  Uiso   1.00
H447   H     0.76406   0.81872   0.52954   0.00000  Uiso   1.00
H448   H     0.79320   0.02240   0.36152   0.00000  Uiso   1.00
H449   H     0.10109   0.00946   0.41429   0.00000  Uiso   1.00
H450   H     0.68860   0.67176   0.60986   0.00000  Uiso   1.00
H451   H     0.75005   0.10125   0.25555   0.00000  Uiso   1.00
O452   O     0.21329   0.98119   0.34129   0.00000  Uiso   1.00
O453   O     0.67213   0.53814   0.59786   0.00000  Uiso   1.00
O454   O     0.75274   0.10163   0.13302   0.00000  Uiso   1.00
N455   N     0.13500   0.92136   0.30866   0.00000  Uiso   1.00
N456   N     0.74937   0.60562   0.49150   0.00000  Uiso   1.00
N457   N     0.80679   0.00715   0.16026   0.00000  Uiso   1.00
N458   N     0.09969   0.97928   0.38312   0.00000  Uiso   1.00
N459   N     0.71405   0.66355   0.56597   0.00000  Uiso   1.00
N460   N     0.77148   0.06507   0.23473   0.00000  Uiso   1.00
C461   C     0.02290   0.20675   0.01236   0.00000  Uiso   1.00
C462   C     0.05181   0.27366   0.02732   0.00000  Uiso   1.00
C463   C     0.05556   0.27544   0.08923   0.00000  Uiso   1.00
C464   C     0.08374   0.34199   0.09259   0.00000  Uiso   1.00
C465   C     0.12502   0.43640   0.12443   0.00000  Uiso   1.00
C466   C     0.96871   0.22823   0.98517   0.00000  Uiso   1.00
C467   C     0.90259   0.19180   0.01165   0.00000  Uiso   1.00
C468   C     0.86083   0.22010   0.97951   0.00000  Uiso   1.00
C469   C     0.77310   0.24394   0.94589   0.00000  Uiso   1.00
C470   C     0.07791   0.19717   0.95321   0.00000  Uiso   1.00
C471   C     0.10359   0.13463   0.95280   0.00000  Uiso   1.00
C472   C     0.15375   0.13678   0.89375   0.00000  Uiso   1.00
C473   C     0.23557   0.11240   0.81050   0.00000  Uiso   1.00
C474   C     0.06630   0.32176   0.90820   0.00000  Uiso   1.00
C475   C     0.07538   0.33613   0.97075   0.00000  Uiso   1.00
C476   C     0.10357   0.40269   0.97400   0.00000  Uiso   1.00
C477   C     0.10736   0.40458   0.03591   0.00000  Uiso   1.00
C478   C     0.99228   0.29069   0.92860   0.00000  Uiso   1.00
C479   C     0.95061   0.31905   0.89641   0.00000  Uiso   1.00
C480   C     0.88444   0.28268   0.92283   0.00000  Uiso   1.00
C481   C     0.10148   0.25964   0.89664   0.00000  Uiso   1.00
C482   C     0.15161   0.26188   0.83757   0.00000  Uiso   1.00
C483   C     0.17736   0.19936   0.83707   0.00000  Uiso   1.00
H484   H     0.00454   0.15811   0.05640   0.00000  Uiso   1.00
H485   H     0.03730   0.22709   0.13301   0.00000  Uiso   1.00
H486   H     0.88436   0.14346   0.05542   0.00000  Uiso   1.00
H487   H     0.08533   0.08630   0.99659   0.00000  Uiso   1.00
H488   H     0.08400   0.33112   0.19299   0.00000  Uiso   1.00
H489   H     0.76152   0.15476   0.02939   0.00000  Uiso   1.00
H490   H     0.18530   0.03423   0.90533   0.00000  Uiso   1.00
H491   H     0.08465   0.37040   0.86416   0.00000  Uiso   1.00
H492   H     0.12181   0.45103   0.93021   0.00000  Uiso   1.00
H493   H     0.96887   0.36739   0.85263   0.00000  Uiso   1.00
H494   H     0.16984   0.31023   0.79380   0.00000  Uiso   1.00
H495   H     0.15258   0.51288   0.02840   0.00000  Uiso   1.00
H496   H     0.83011   0.33652   0.86480   0.00000  Uiso   1.00
H497   H     0.25389   0.21599   0.74074   0.00000  Uiso   1.00
O498   O     0.14127   0.47122   0.15763   0.00000  Uiso   1.00
O499   O     0.71820   0.23983   0.94298   0.00000  Uiso   1.00
O500   O     0.27419   0.08170   0.78022   0.00000  Uiso   1.00
N501   N     0.09505   0.36283   0.14519   0.00000  Uiso   1.00
N502   N     0.79355   0.19795   0.99224   0.00000  Uiso   1.00
N503   N     0.18974   0.08525   0.87624   0.00000  Uiso   1.00
N504   N     0.13196   0.46063   0.05662   0.00000  Uiso   1.00
N505   N     0.83046   0.29575   0.90367   0.00000  Uiso   1.00
N506   N     0.22665   0.18306   0.78768   0.00000  Uiso   1.00
C507   C     0.24568   0.88890   0.06854   0.00000  Uiso   1.00
C508   C     0.30250   0.90528   0.09344   0.00000  Uiso   1.00
C509   C     0.31585   0.96489   0.11535   0.00000  Uiso   1.00
C510   C     0.37015   0.97010   0.13611   0.00000  Uiso   1.00
C511   C     0.45240   0.00354   0.17491   0.00000  Uiso   1.00
C512   C     0.27795   0.88266   0.99776   0.00000  Uiso   1.00
C513   C     0.27065   0.92324   0.93923   0.00000  Uiso   1.00
C514   C     0.30428   0.90939   0.87946   0.00000  Uiso   1.00
C515   C     0.34837   0.90767   0.76974   0.00000  Uiso   1.00
C516   C     0.20641   0.81246   0.11298   0.00000  Uiso   1.00
C517   C     0.13894   0.79402   0.15132   0.00000  Uiso   1.00
C518   C     0.11233   0.72106   0.18854   0.00000  Uiso   1.00
C519   C     0.04534   0.61036   0.25771   0.00000  Uiso   1.00
C520   C     0.31838   0.79214   0.06645   0.00000  Uiso   1.00
C521   C     0.34199   0.85272   0.09230   0.00000  Uiso   1.00
C522   C     0.39629   0.85783   0.11304   0.00000  Uiso   1.00
C523   C     0.40971   0.91744   0.13498   0.00000  Uiso   1.00
C524   C     0.31744   0.83010   0.99663   0.00000  Uiso   1.00
C525   C     0.35109   0.81618   0.93693   0.00000  Uiso   1.00
C526   C     0.34384   0.85673   0.87833   0.00000  Uiso   1.00
C527   C     0.24590   0.75990   0.11185   0.00000  Uiso   1.00
C528   C     0.21938   0.68696   0.14901   0.00000  Uiso   1.00
C529   C     0.15189   0.66841   0.18740   0.00000  Uiso   1.00
H530   H     0.21494   0.92982   0.06941   0.00000  Uiso   1.00
H531   H     0.28528   0.00556   0.11621   0.00000  Uiso   1.00
H532   H     0.24008   0.96391   0.94013   0.00000  Uiso   1.00
H533   H     0.10840   0.83471   0.15218   0.00000  Uiso   1.00
H534   H     0.38070   0.06636   0.16757   0.00000  Uiso   1.00
H535   H     0.28538   0.97852   0.79629   0.00000  Uiso   1.00
H536   H     0.00770   0.70607   0.24345   0.00000  Uiso   1.00
H537   H     0.34913   0.75122   0.06557   0.00000  Uiso   1.00
H538   H     0.42684   0.81715   0.11216   0.00000  Uiso   1.00
H539   H     0.38164   0.77550   0.93607   0.00000  Uiso   1.00
H540   H     0.24996   0.64630   0.14812   0.00000  Uiso   1.00
H541   H     0.49560   0.91345   0.16428   0.00000  Uiso   1.00
H542   H     0.40027   0.82560   0.79300   0.00000  Uiso   1.00
H543   H     0.12259   0.55315   0.24015   0.00000  Uiso   1.00
O544   O     0.48686   0.03652   0.19662   0.00000  Uiso   1.00
O545   O     0.36179   0.92126   0.70952   0.00000  Uiso   1.00
O546   O     0.99748   0.56382   0.29618   0.00000  Uiso   1.00
N547   N     0.39707   0.02132   0.16041   0.00000  Uiso   1.00
N548   N     0.30795   0.93920   0.81329   0.00000  Uiso   1.00
N549   N     0.04834   0.68448   0.23133   0.00000  Uiso   1.00
N550   N     0.45889   0.93903   0.15864   0.00000  Uiso   1.00
N551   N     0.36978   0.85691   0.81152   0.00000  Uiso   1.00
N552   N     0.11017   0.60219   0.22956   0.00000  Uiso   1.00
