data_job_02947
_audit_creation_date              2018-12-19
_audit_creation_method            'Materials Studio'
_symmetry_space_group_name_H-M    'P1'
_symmetry_Int_Tables_number       1
_symmetry_cell_setting            triclinic
loop_
_symmetry_equiv_pos_as_xyz
  x,y,z
_cell_length_a                    19.9318
_cell_length_b                    15.0883
_cell_length_c                    37.4287
_cell_angle_alpha                 90.0000
_cell_angle_beta                  133.3879
_cell_angle_gamma                 90.0000
loop_
_atom_site_label
_atom_site_type_symbol
_atom_site_fract_x
_atom_site_fract_y
_atom_site_fract_z
_atom_site_U_iso_or_equiv
_atom_site_adp_type
_atom_site_occupancy
C1     C     0.00997   0.12948   0.43922   0.00000  Uiso   1.00
C2     C     0.03270   0.21344   0.42663   0.00000  Uiso   1.00
C3     C     0.08512   0.28402   0.45820   0.00000  Uiso   1.00
C4     C     0.09800   0.35471   0.43969   0.00000  Uiso   1.00
C5     C     0.13906   0.48509   0.42749   0.00000  Uiso   1.00
C6     C     0.90494   0.12263   0.40115   0.00000  Uiso   1.00
C7     C     0.84994   0.11685   0.41131   0.00000  Uiso   1.00
C8     C     0.75527   0.11108   0.37135   0.00000  Uiso   1.00
C9     C     0.59799   0.10041   0.31960   0.00000  Uiso   1.00
C10    C     0.04406   0.05241   0.42888   0.00000  Uiso   1.00
C11    C     0.10601   0.98756   0.46234   0.00000  Uiso   1.00
C12    C     0.12845   0.92266   0.44572   0.00000  Uiso   1.00
C13    C     0.18717   0.80295   0.43702   0.00000  Uiso   1.00
C14    C     0.93963   0.12952   0.35021   0.00000  Uiso   1.00
C15    C     0.99449   0.21346   0.37828   0.00000  Uiso   1.00
C16    C     0.00729   0.28406   0.35972   0.00000  Uiso   1.00
C17    C     0.05972   0.35473   0.39126   0.00000  Uiso   1.00
C18    C     0.86673   0.12265   0.35280   0.00000  Uiso   1.00
C19    C     0.77211   0.11688   0.31283   0.00000  Uiso   1.00
C20    C     0.71699   0.11110   0.32292   0.00000  Uiso   1.00
C21    C     0.00585   0.05242   0.38053   0.00000  Uiso   1.00
C22    C     0.02819   0.98760   0.36386   0.00000  Uiso   1.00
C23    C     0.09017   0.92267   0.39729   0.00000  Uiso   1.00
H24    H     0.03971   0.12947   0.47686   0.00000  Uiso   1.00
H25    H     0.11467   0.28399   0.49561   0.00000  Uiso   1.00
H26    H     0.87953   0.11683   0.44873   0.00000  Uiso   1.00
H27    H     0.13556   0.98757   0.49975   0.00000  Uiso   1.00
H28    H     0.18090   0.45532   0.49508   0.00000  Uiso   1.00
H29    H     0.68510   0.10282   0.39622   0.00000  Uiso   1.00
H30    H     0.22499   0.83025   0.50381   0.00000  Uiso   1.00
H31    H     0.90988   0.12953   0.31256   0.00000  Uiso   1.00
H32    H     0.97772   0.28405   0.32230   0.00000  Uiso   1.00
H33    H     0.74257   0.11689   0.27542   0.00000  Uiso   1.00
H34    H     0.99861   0.98764   0.32644   0.00000  Uiso   1.00
H35    H     0.06974   0.45538   0.35441   0.00000  Uiso   1.00
H36    H     0.57393   0.10288   0.25555   0.00000  Uiso   1.00
H37    H     0.11383   0.83031   0.36314   0.00000  Uiso   1.00
O38    O     0.17226   0.55701   0.43411   0.00000  Uiso   1.00
O39    O     0.52179   0.09453   0.30441   0.00000  Uiso   1.00
O40    O     0.23013   0.73693   0.44557   0.00000  Uiso   1.00
N41    N     0.14544   0.43412   0.46064   0.00000  Uiso   1.00
N42    N     0.68189   0.10457   0.36821   0.00000  Uiso   1.00
N43    N     0.18664   0.84972   0.46880   0.00000  Uiso   1.00
N44    N     0.08563   0.43415   0.38495   0.00000  Uiso   1.00
N45    N     0.62208   0.10460   0.29252   0.00000  Uiso   1.00
N46    N     0.12682   0.84975   0.39311   0.00000  Uiso   1.00
C47    C     0.50997   0.62948   0.43922   0.00000  Uiso   1.00
C48    C     0.53270   0.71344   0.42663   0.00000  Uiso   1.00
C49    C     0.58512   0.78402   0.45820   0.00000  Uiso   1.00
C50    C     0.59800   0.85471   0.43969   0.00000  Uiso   1.00
C51    C     0.63906   0.98509   0.42749   0.00000  Uiso   1.00
C52    C     0.40494   0.62263   0.40115   0.00000  Uiso   1.00
C53    C     0.34994   0.61685   0.41131   0.00000  Uiso   1.00
C54    C     0.25527   0.61108   0.37135   0.00000  Uiso   1.00
C55    C     0.09799   0.60041   0.31960   0.00000  Uiso   1.00
C56    C     0.54406   0.55241   0.42888   0.00000  Uiso   1.00
C57    C     0.60601   0.48756   0.46234   0.00000  Uiso   1.00
C58    C     0.62845   0.42266   0.44572   0.00000  Uiso   1.00
C59    C     0.68717   0.30295   0.43702   0.00000  Uiso   1.00
C60    C     0.43963   0.62952   0.35021   0.00000  Uiso   1.00
C61    C     0.49449   0.71346   0.37828   0.00000  Uiso   1.00
C62    C     0.50729   0.78406   0.35972   0.00000  Uiso   1.00
C63    C     0.55972   0.85473   0.39126   0.00000  Uiso   1.00
C64    C     0.36673   0.62265   0.35280   0.00000  Uiso   1.00
C65    C     0.27211   0.61688   0.31283   0.00000  Uiso   1.00
C66    C     0.21699   0.61110   0.32292   0.00000  Uiso   1.00
C67    C     0.50585   0.55242   0.38053   0.00000  Uiso   1.00
C68    C     0.52819   0.48760   0.36386   0.00000  Uiso   1.00
C69    C     0.59017   0.42267   0.39729   0.00000  Uiso   1.00
H70    H     0.53971   0.62947   0.47686   0.00000  Uiso   1.00
H71    H     0.61467   0.78399   0.49561   0.00000  Uiso   1.00
H72    H     0.37953   0.61683   0.44873   0.00000  Uiso   1.00
H73    H     0.63556   0.48757   0.49975   0.00000  Uiso   1.00
H74    H     0.68090   0.95532   0.49508   0.00000  Uiso   1.00
H75    H     0.18510   0.60282   0.39622   0.00000  Uiso   1.00
H76    H     0.72499   0.33025   0.50381   0.00000  Uiso   1.00
H77    H     0.40988   0.62953   0.31256   0.00000  Uiso   1.00
H78    H     0.47772   0.78405   0.32230   0.00000  Uiso   1.00
H79    H     0.24257   0.61689   0.27542   0.00000  Uiso   1.00
H80    H     0.49861   0.48764   0.32644   0.00000  Uiso   1.00
H81    H     0.56974   0.95538   0.35441   0.00000  Uiso   1.00
H82    H     0.07393   0.60288   0.25555   0.00000  Uiso   1.00
H83    H     0.61383   0.33031   0.36314   0.00000  Uiso   1.00
O84    O     0.67226   0.05701   0.43411   0.00000  Uiso   1.00
O85    O     0.02179   0.59453   0.30441   0.00000  Uiso   1.00
O86    O     0.73013   0.23693   0.44557   0.00000  Uiso   1.00
N87    N     0.64544   0.93412   0.46064   0.00000  Uiso   1.00
N88    N     0.18189   0.60457   0.36821   0.00000  Uiso   1.00
N89    N     0.68664   0.34972   0.46880   0.00000  Uiso   1.00
N90    N     0.58563   0.93415   0.38495   0.00000  Uiso   1.00
N91    N     0.12208   0.60460   0.29252   0.00000  Uiso   1.00
N92    N     0.62682   0.34975   0.39311   0.00000  Uiso   1.00
C93    C     0.99003   0.12948   0.06078   0.00000  Uiso   1.00
C94    C     0.96730   0.21344   0.07337   0.00000  Uiso   1.00
C95    C     0.91488   0.28402   0.04180   0.00000  Uiso   1.00
C96    C     0.90200   0.35471   0.06031   0.00000  Uiso   1.00
C97    C     0.86094   0.48509   0.07251   0.00000  Uiso   1.00
C98    C     0.09506   0.12263   0.09885   0.00000  Uiso   1.00
C99    C     0.15006   0.11685   0.08869   0.00000  Uiso   1.00
C100   C     0.24473   0.11108   0.12865   0.00000  Uiso   1.00
C101   C     0.40201   0.10041   0.18040   0.00000  Uiso   1.00
C102   C     0.95594   0.05241   0.07112   0.00000  Uiso   1.00
C103   C     0.89399   0.98756   0.03766   0.00000  Uiso   1.00
C104   C     0.87155   0.92266   0.05428   0.00000  Uiso   1.00
C105   C     0.81283   0.80295   0.06298   0.00000  Uiso   1.00
C106   C     0.06037   0.12952   0.14979   0.00000  Uiso   1.00
C107   C     0.00551   0.21346   0.12172   0.00000  Uiso   1.00
C108   C     0.99271   0.28406   0.14028   0.00000  Uiso   1.00
C109   C     0.94028   0.35473   0.10874   0.00000  Uiso   1.00
C110   C     0.13327   0.12265   0.14720   0.00000  Uiso   1.00
C111   C     0.22789   0.11688   0.18717   0.00000  Uiso   1.00
C112   C     0.28301   0.11110   0.17708   0.00000  Uiso   1.00
C113   C     0.99415   0.05242   0.11947   0.00000  Uiso   1.00
C114   C     0.97181   0.98760   0.13614   0.00000  Uiso   1.00
C115   C     0.90983   0.92267   0.10271   0.00000  Uiso   1.00
H116   H     0.96029   0.12947   0.02314   0.00000  Uiso   1.00
H117   H     0.88533   0.28399   0.00439   0.00000  Uiso   1.00
H118   H     0.12047   0.11683   0.05127   0.00000  Uiso   1.00
H119   H     0.86444   0.98757   0.00025   0.00000  Uiso   1.00
H120   H     0.81910   0.45532   0.00492   0.00000  Uiso   1.00
H121   H     0.31490   0.10282   0.10378   0.00000  Uiso   1.00
H122   H     0.77501   0.83025   0.99619   0.00000  Uiso   1.00
H123   H     0.09012   0.12953   0.18744   0.00000  Uiso   1.00
H124   H     0.02228   0.28405   0.17770   0.00000  Uiso   1.00
H125   H     0.25743   0.11689   0.22458   0.00000  Uiso   1.00
H126   H     0.00139   0.98764   0.17356   0.00000  Uiso   1.00
H127   H     0.93026   0.45538   0.14559   0.00000  Uiso   1.00
H128   H     0.42607   0.10288   0.24445   0.00000  Uiso   1.00
H129   H     0.88617   0.83031   0.13686   0.00000  Uiso   1.00
O130   O     0.82774   0.55701   0.06589   0.00000  Uiso   1.00
O131   O     0.47821   0.09453   0.19559   0.00000  Uiso   1.00
O132   O     0.76987   0.73693   0.05443   0.00000  Uiso   1.00
N133   N     0.85456   0.43412   0.03936   0.00000  Uiso   1.00
N134   N     0.31811   0.10457   0.13179   0.00000  Uiso   1.00
N135   N     0.81336   0.84972   0.03120   0.00000  Uiso   1.00
N136   N     0.91437   0.43415   0.11505   0.00000  Uiso   1.00
N137   N     0.37792   0.10460   0.20748   0.00000  Uiso   1.00
N138   N     0.87318   0.84975   0.10689   0.00000  Uiso   1.00
C139   C     0.49003   0.62948   0.06078   0.00000  Uiso   1.00
C140   C     0.46730   0.71344   0.07337   0.00000  Uiso   1.00
C141   C     0.41488   0.78402   0.04180   0.00000  Uiso   1.00
C142   C     0.40200   0.85471   0.06031   0.00000  Uiso   1.00
C143   C     0.36094   0.98509   0.07251   0.00000  Uiso   1.00
C144   C     0.59506   0.62263   0.09885   0.00000  Uiso   1.00
C145   C     0.65006   0.61685   0.08869   0.00000  Uiso   1.00
C146   C     0.74473   0.61108   0.12865   0.00000  Uiso   1.00
C147   C     0.90201   0.60041   0.18040   0.00000  Uiso   1.00
C148   C     0.45594   0.55241   0.07112   0.00000  Uiso   1.00
C149   C     0.39399   0.48756   0.03766   0.00000  Uiso   1.00
C150   C     0.37155   0.42266   0.05428   0.00000  Uiso   1.00
C151   C     0.31283   0.30295   0.06298   0.00000  Uiso   1.00
C152   C     0.56037   0.62952   0.14979   0.00000  Uiso   1.00
C153   C     0.50551   0.71346   0.12172   0.00000  Uiso   1.00
C154   C     0.49271   0.78406   0.14028   0.00000  Uiso   1.00
C155   C     0.44028   0.85473   0.10874   0.00000  Uiso   1.00
C156   C     0.63327   0.62265   0.14720   0.00000  Uiso   1.00
C157   C     0.72789   0.61688   0.18717   0.00000  Uiso   1.00
C158   C     0.78301   0.61110   0.17708   0.00000  Uiso   1.00
C159   C     0.49415   0.55242   0.11947   0.00000  Uiso   1.00
C160   C     0.47181   0.48760   0.13614   0.00000  Uiso   1.00
C161   C     0.40983   0.42267   0.10271   0.00000  Uiso   1.00
H162   H     0.46029   0.62947   0.02314   0.00000  Uiso   1.00
H163   H     0.38533   0.78399   0.00439   0.00000  Uiso   1.00
H164   H     0.62047   0.61683   0.05127   0.00000  Uiso   1.00
H165   H     0.36444   0.48757   0.00025   0.00000  Uiso   1.00
H166   H     0.31910   0.95532   0.00492   0.00000  Uiso   1.00
H167   H     0.81490   0.60282   0.10378   0.00000  Uiso   1.00
H168   H     0.27501   0.33025   0.99619   0.00000  Uiso   1.00
H169   H     0.59012   0.62953   0.18744   0.00000  Uiso   1.00
H170   H     0.52228   0.78405   0.17770   0.00000  Uiso   1.00
H171   H     0.75743   0.61689   0.22458   0.00000  Uiso   1.00
H172   H     0.50139   0.48764   0.17356   0.00000  Uiso   1.00
H173   H     0.43026   0.95538   0.14559   0.00000  Uiso   1.00
H174   H     0.92607   0.60288   0.24445   0.00000  Uiso   1.00
H175   H     0.38617   0.33031   0.13686   0.00000  Uiso   1.00
O176   O     0.32774   0.05701   0.06589   0.00000  Uiso   1.00
O177   O     0.97821   0.59453   0.19559   0.00000  Uiso   1.00
O178   O     0.26987   0.23693   0.05443   0.00000  Uiso   1.00
N179   N     0.35456   0.93412   0.03936   0.00000  Uiso   1.00
N180   N     0.81811   0.60457   0.13179   0.00000  Uiso   1.00
N181   N     0.31336   0.34972   0.03120   0.00000  Uiso   1.00
N182   N     0.41437   0.93415   0.11505   0.00000  Uiso   1.00
N183   N     0.87792   0.60460   0.20748   0.00000  Uiso   1.00
N184   N     0.37318   0.34975   0.10689   0.00000  Uiso   1.00
C185   C     0.99003   0.87052   0.56078   0.00000  Uiso   1.00
C186   C     0.96730   0.78656   0.57337   0.00000  Uiso   1.00
C187   C     0.91488   0.71598   0.54180   0.00000  Uiso   1.00
C188   C     0.90200   0.64529   0.56031   0.00000  Uiso   1.00
C189   C     0.86094   0.51491   0.57251   0.00000  Uiso   1.00
C190   C     0.09506   0.87737   0.59885   0.00000  Uiso   1.00
C191   C     0.15006   0.88315   0.58869   0.00000  Uiso   1.00
C192   C     0.24473   0.88892   0.62865   0.00000  Uiso   1.00
C193   C     0.40201   0.89959   0.68040   0.00000  Uiso   1.00
C194   C     0.95594   0.94759   0.57112   0.00000  Uiso   1.00
C195   C     0.89399   0.01244   0.53766   0.00000  Uiso   1.00
C196   C     0.87155   0.07734   0.55428   0.00000  Uiso   1.00
C197   C     0.81283   0.19705   0.56298   0.00000  Uiso   1.00
C198   C     0.06037   0.87048   0.64979   0.00000  Uiso   1.00
C199   C     0.00551   0.78654   0.62172   0.00000  Uiso   1.00
C200   C     0.99271   0.71594   0.64028   0.00000  Uiso   1.00
C201   C     0.94028   0.64527   0.60874   0.00000  Uiso   1.00
C202   C     0.13327   0.87735   0.64720   0.00000  Uiso   1.00
C203   C     0.22789   0.88312   0.68717   0.00000  Uiso   1.00
C204   C     0.28301   0.88890   0.67708   0.00000  Uiso   1.00
C205   C     0.99415   0.94758   0.61947   0.00000  Uiso   1.00
C206   C     0.97181   0.01240   0.63614   0.00000  Uiso   1.00
C207   C     0.90983   0.07733   0.60271   0.00000  Uiso   1.00
H208   H     0.96029   0.87053   0.52314   0.00000  Uiso   1.00
H209   H     0.88533   0.71601   0.50439   0.00000  Uiso   1.00
H210   H     0.12047   0.88317   0.55127   0.00000  Uiso   1.00
H211   H     0.86444   0.01243   0.50025   0.00000  Uiso   1.00
H212   H     0.81910   0.54468   0.50492   0.00000  Uiso   1.00
H213   H     0.31490   0.89718   0.60378   0.00000  Uiso   1.00
H214   H     0.77501   0.16975   0.49619   0.00000  Uiso   1.00
H215   H     0.09012   0.87047   0.68744   0.00000  Uiso   1.00
H216   H     0.02228   0.71595   0.67770   0.00000  Uiso   1.00
H217   H     0.25743   0.88311   0.72458   0.00000  Uiso   1.00
H218   H     0.00139   0.01236   0.67356   0.00000  Uiso   1.00
H219   H     0.93026   0.54462   0.64559   0.00000  Uiso   1.00
H220   H     0.42607   0.89712   0.74445   0.00000  Uiso   1.00
H221   H     0.88617   0.16969   0.63686   0.00000  Uiso   1.00
O222   O     0.82774   0.44299   0.56589   0.00000  Uiso   1.00
O223   O     0.47821   0.90547   0.69559   0.00000  Uiso   1.00
O224   O     0.76987   0.26307   0.55443   0.00000  Uiso   1.00
N225   N     0.85456   0.56588   0.53936   0.00000  Uiso   1.00
N226   N     0.31811   0.89543   0.63179   0.00000  Uiso   1.00
N227   N     0.81336   0.15028   0.53120   0.00000  Uiso   1.00
N228   N     0.91437   0.56585   0.61505   0.00000  Uiso   1.00
N229   N     0.37792   0.89540   0.70748   0.00000  Uiso   1.00
N230   N     0.87318   0.15025   0.60689   0.00000  Uiso   1.00
C231   C     0.49003   0.37052   0.56078   0.00000  Uiso   1.00
C232   C     0.46730   0.28656   0.57337   0.00000  Uiso   1.00
C233   C     0.41488   0.21598   0.54180   0.00000  Uiso   1.00
C234   C     0.40200   0.14529   0.56031   0.00000  Uiso   1.00
C235   C     0.36094   0.01491   0.57251   0.00000  Uiso   1.00
C236   C     0.59506   0.37737   0.59885   0.00000  Uiso   1.00
C237   C     0.65006   0.38315   0.58869   0.00000  Uiso   1.00
C238   C     0.74473   0.38892   0.62865   0.00000  Uiso   1.00
C239   C     0.90201   0.39959   0.68040   0.00000  Uiso   1.00
C240   C     0.45594   0.44759   0.57112   0.00000  Uiso   1.00
C241   C     0.39399   0.51244   0.53766   0.00000  Uiso   1.00
C242   C     0.37155   0.57734   0.55428   0.00000  Uiso   1.00
C243   C     0.31283   0.69705   0.56298   0.00000  Uiso   1.00
C244   C     0.56037   0.37048   0.64979   0.00000  Uiso   1.00
C245   C     0.50551   0.28654   0.62172   0.00000  Uiso   1.00
C246   C     0.49271   0.21594   0.64028   0.00000  Uiso   1.00
C247   C     0.44028   0.14527   0.60874   0.00000  Uiso   1.00
C248   C     0.63327   0.37735   0.64720   0.00000  Uiso   1.00
C249   C     0.72789   0.38312   0.68717   0.00000  Uiso   1.00
C250   C     0.78301   0.38890   0.67708   0.00000  Uiso   1.00
C251   C     0.49415   0.44758   0.61947   0.00000  Uiso   1.00
C252   C     0.47181   0.51240   0.63614   0.00000  Uiso   1.00
C253   C     0.40983   0.57733   0.60271   0.00000  Uiso   1.00
H254   H     0.46029   0.37053   0.52314   0.00000  Uiso   1.00
H255   H     0.38533   0.21601   0.50439   0.00000  Uiso   1.00
H256   H     0.62047   0.38317   0.55127   0.00000  Uiso   1.00
H257   H     0.36444   0.51243   0.50025   0.00000  Uiso   1.00
H258   H     0.31910   0.04468   0.50492   0.00000  Uiso   1.00
H259   H     0.81490   0.39718   0.60378   0.00000  Uiso   1.00
H260   H     0.27501   0.66975   0.49619   0.00000  Uiso   1.00
H261   H     0.59012   0.37047   0.68744   0.00000  Uiso   1.00
H262   H     0.52228   0.21595   0.67770   0.00000  Uiso   1.00
H263   H     0.75743   0.38311   0.72458   0.00000  Uiso   1.00
H264   H     0.50139   0.51236   0.67356   0.00000  Uiso   1.00
H265   H     0.43026   0.04462   0.64559   0.00000  Uiso   1.00
H266   H     0.92607   0.39712   0.74445   0.00000  Uiso   1.00
H267   H     0.38617   0.66969   0.63686   0.00000  Uiso   1.00
O268   O     0.32774   0.94299   0.56589   0.00000  Uiso   1.00
O269   O     0.97821   0.40547   0.69559   0.00000  Uiso   1.00
O270   O     0.26987   0.76307   0.55443   0.00000  Uiso   1.00
N271   N     0.35456   0.06588   0.53936   0.00000  Uiso   1.00
N272   N     0.81811   0.39543   0.63179   0.00000  Uiso   1.00
N273   N     0.31336   0.65028   0.53120   0.00000  Uiso   1.00
N274   N     0.41437   0.06585   0.61505   0.00000  Uiso   1.00
N275   N     0.87792   0.39540   0.70748   0.00000  Uiso   1.00
N276   N     0.37318   0.65025   0.60689   0.00000  Uiso   1.00
C277   C     0.00997   0.87052   0.93922   0.00000  Uiso   1.00
C278   C     0.03270   0.78656   0.92663   0.00000  Uiso   1.00
C279   C     0.08512   0.71598   0.95820   0.00000  Uiso   1.00
C280   C     0.09800   0.64529   0.93969   0.00000  Uiso   1.00
C281   C     0.13906   0.51491   0.92749   0.00000  Uiso   1.00
C282   C     0.90494   0.87737   0.90115   0.00000  Uiso   1.00
C283   C     0.84994   0.88315   0.91131   0.00000  Uiso   1.00
C284   C     0.75527   0.88892   0.87135   0.00000  Uiso   1.00
C285   C     0.59799   0.89959   0.81960   0.00000  Uiso   1.00
C286   C     0.04406   0.94759   0.92888   0.00000  Uiso   1.00
C287   C     0.10601   0.01244   0.96234   0.00000  Uiso   1.00
C288   C     0.12845   0.07734   0.94572   0.00000  Uiso   1.00
C289   C     0.18717   0.19705   0.93702   0.00000  Uiso   1.00
C290   C     0.93963   0.87048   0.85021   0.00000  Uiso   1.00
C291   C     0.99449   0.78654   0.87828   0.00000  Uiso   1.00
C292   C     0.00729   0.71594   0.85972   0.00000  Uiso   1.00
C293   C     0.05972   0.64527   0.89126   0.00000  Uiso   1.00
C294   C     0.86673   0.87735   0.85280   0.00000  Uiso   1.00
C295   C     0.77211   0.88312   0.81283   0.00000  Uiso   1.00
C296   C     0.71699   0.88890   0.82292   0.00000  Uiso   1.00
C297   C     0.00585   0.94758   0.88053   0.00000  Uiso   1.00
C298   C     0.02819   0.01240   0.86386   0.00000  Uiso   1.00
C299   C     0.09017   0.07733   0.89729   0.00000  Uiso   1.00
H300   H     0.03971   0.87053   0.97686   0.00000  Uiso   1.00
H301   H     0.11467   0.71601   0.99561   0.00000  Uiso   1.00
H302   H     0.87953   0.88317   0.94873   0.00000  Uiso   1.00
H303   H     0.13556   0.01243   0.99975   0.00000  Uiso   1.00
H304   H     0.18090   0.54468   0.99508   0.00000  Uiso   1.00
H305   H     0.68510   0.89718   0.89622   0.00000  Uiso   1.00
H306   H     0.22499   0.16975   0.00381   0.00000  Uiso   1.00
H307   H     0.90988   0.87047   0.81256   0.00000  Uiso   1.00
H308   H     0.97772   0.71595   0.82230   0.00000  Uiso   1.00
H309   H     0.74257   0.88311   0.77542   0.00000  Uiso   1.00
H310   H     0.99861   0.01236   0.82644   0.00000  Uiso   1.00
H311   H     0.06974   0.54462   0.85441   0.00000  Uiso   1.00
H312   H     0.57393   0.89712   0.75555   0.00000  Uiso   1.00
H313   H     0.11383   0.16969   0.86314   0.00000  Uiso   1.00
O314   O     0.17226   0.44299   0.93411   0.00000  Uiso   1.00
O315   O     0.52179   0.90547   0.80441   0.00000  Uiso   1.00
O316   O     0.23013   0.26307   0.94557   0.00000  Uiso   1.00
N317   N     0.14544   0.56588   0.96064   0.00000  Uiso   1.00
N318   N     0.68189   0.89543   0.86821   0.00000  Uiso   1.00
N319   N     0.18664   0.15028   0.96880   0.00000  Uiso   1.00
N320   N     0.08563   0.56585   0.88495   0.00000  Uiso   1.00
N321   N     0.62208   0.89540   0.79252   0.00000  Uiso   1.00
N322   N     0.12682   0.15025   0.89311   0.00000  Uiso   1.00
C323   C     0.50997   0.37052   0.93922   0.00000  Uiso   1.00
C324   C     0.53270   0.28656   0.92663   0.00000  Uiso   1.00
C325   C     0.58512   0.21598   0.95820   0.00000  Uiso   1.00
C326   C     0.59800   0.14529   0.93969   0.00000  Uiso   1.00
C327   C     0.63906   0.01491   0.92749   0.00000  Uiso   1.00
C328   C     0.40494   0.37737   0.90115   0.00000  Uiso   1.00
C329   C     0.34994   0.38315   0.91131   0.00000  Uiso   1.00
C330   C     0.25527   0.38892   0.87135   0.00000  Uiso   1.00
C331   C     0.09799   0.39959   0.81960   0.00000  Uiso   1.00
C332   C     0.54406   0.44759   0.92888   0.00000  Uiso   1.00
C333   C     0.60601   0.51244   0.96234   0.00000  Uiso   1.00
C334   C     0.62845   0.57734   0.94572   0.00000  Uiso   1.00
C335   C     0.68717   0.69705   0.93702   0.00000  Uiso   1.00
C336   C     0.43963   0.37048   0.85021   0.00000  Uiso   1.00
C337   C     0.49449   0.28654   0.87828   0.00000  Uiso   1.00
C338   C     0.50729   0.21594   0.85972   0.00000  Uiso   1.00
C339   C     0.55972   0.14527   0.89126   0.00000  Uiso   1.00
C340   C     0.36673   0.37735   0.85280   0.00000  Uiso   1.00
C341   C     0.27211   0.38312   0.81283   0.00000  Uiso   1.00
C342   C     0.21699   0.38890   0.82292   0.00000  Uiso   1.00
C343   C     0.50585   0.44758   0.88053   0.00000  Uiso   1.00
C344   C     0.52819   0.51240   0.86386   0.00000  Uiso   1.00
C345   C     0.59017   0.57733   0.89729   0.00000  Uiso   1.00
H346   H     0.53971   0.37053   0.97686   0.00000  Uiso   1.00
H347   H     0.61467   0.21601   0.99561   0.00000  Uiso   1.00
H348   H     0.37953   0.38317   0.94873   0.00000  Uiso   1.00
H349   H     0.63556   0.51243   0.99975   0.00000  Uiso   1.00
H350   H     0.68090   0.04468   0.99508   0.00000  Uiso   1.00
H351   H     0.18510   0.39718   0.89622   0.00000  Uiso   1.00
H352   H     0.72499   0.66975   0.00381   0.00000  Uiso   1.00
H353   H     0.40988   0.37047   0.81256   0.00000  Uiso   1.00
H354   H     0.47772   0.21595   0.82230   0.00000  Uiso   1.00
H355   H     0.24257   0.38311   0.77542   0.00000  Uiso   1.00
H356   H     0.49861   0.51236   0.82644   0.00000  Uiso   1.00
H357   H     0.56974   0.04462   0.85441   0.00000  Uiso   1.00
H358   H     0.07393   0.39712   0.75555   0.00000  Uiso   1.00
H359   H     0.61383   0.66969   0.86314   0.00000  Uiso   1.00
O360   O     0.67226   0.94299   0.93411   0.00000  Uiso   1.00
O361   O     0.02179   0.40547   0.80441   0.00000  Uiso   1.00
O362   O     0.73013   0.76307   0.94557   0.00000  Uiso   1.00
N363   N     0.64544   0.06588   0.96064   0.00000  Uiso   1.00
N364   N     0.18189   0.39543   0.86821   0.00000  Uiso   1.00
N365   N     0.68664   0.65028   0.96880   0.00000  Uiso   1.00
N366   N     0.58563   0.06585   0.88495   0.00000  Uiso   1.00
N367   N     0.12208   0.39540   0.79252   0.00000  Uiso   1.00
N368   N     0.62682   0.65025   0.89311   0.00000  Uiso   1.00
