data_job_05436
_audit_creation_date              2018-12-19
_audit_creation_method            'Materials Studio'
_symmetry_space_group_name_H-M    'P1'
_symmetry_Int_Tables_number       1
_symmetry_cell_setting            triclinic
loop_
_symmetry_equiv_pos_as_xyz
  x,y,z
_cell_length_a                    26.3184
_cell_length_b                    26.3184
_cell_length_c                    8.3964
_cell_angle_alpha                 90.0000
_cell_angle_beta                  90.0000
_cell_angle_gamma                 90.0000
loop_
_atom_site_label
_atom_site_type_symbol
_atom_site_fract_x
_atom_site_fract_y
_atom_site_fract_z
_atom_site_U_iso_or_equiv
_atom_site_adp_type
_atom_site_occupancy
C1     C     0.26756   0.05820   0.64996   0.00000  Uiso   1.00
C2     C     0.31331   0.02309   0.63230   0.00000  Uiso   1.00
C3     C     0.34485   0.02013   0.50018   0.00000  Uiso   1.00
C4     C     0.38466   0.98558   0.50729   0.00000  Uiso   1.00
C5     C     0.45446   0.93568   0.45938   0.00000  Uiso   1.00
C6     C     0.22238   0.02387   0.68671   0.00000  Uiso   1.00
C7     C     0.17748   0.02158   0.60035   0.00000  Uiso   1.00
C8     C     0.14074   0.98769   0.65328   0.00000  Uiso   1.00
C9     C     0.06937   0.93903   0.68991   0.00000  Uiso   1.00
C10    C     0.27699   0.08920   0.80052   0.00000  Uiso   1.00
C11    C     0.27799   0.14184   0.80986   0.00000  Uiso   1.00
C12    C     0.28722   0.16296   0.95861   0.00000  Uiso   1.00
C13    C     0.30064   0.21573   0.17194   0.00000  Uiso   1.00
C14    C     0.28216   0.00211   0.89752   0.00000  Uiso   1.00
C15    C     0.32123   0.99262   0.76677   0.00000  Uiso   1.00
C16    C     0.36100   0.95807   0.77408   0.00000  Uiso   1.00
C17    C     0.39260   0.95506   0.64199   0.00000  Uiso   1.00
C18    C     0.23031   0.99340   0.82117   0.00000  Uiso   1.00
C19    C     0.19363   0.95952   0.87424   0.00000  Uiso   1.00
C20    C     0.14868   0.95717   0.78798   0.00000  Uiso   1.00
C21    C     0.28492   0.05874   0.93498   0.00000  Uiso   1.00
C22    C     0.29414   0.07978   0.08375   0.00000  Uiso   1.00
C23    C     0.29516   0.13244   0.09332   0.00000  Uiso   1.00
H24    H     0.26139   0.08192   0.54528   0.00000  Uiso   1.00
H25    H     0.33870   0.04371   0.39614   0.00000  Uiso   1.00
H26    H     0.17135   0.04517   0.49631   0.00000  Uiso   1.00
H27    H     0.27186   0.16541   0.70578   0.00000  Uiso   1.00
H28    H     0.42790   0.98790   0.29007   0.00000  Uiso   1.00
H29    H     0.07504   0.99097   0.50131   0.00000  Uiso   1.00
H30    H     0.28696   0.24453   0.94302   0.00000  Uiso   1.00
H31    H     0.28833   0.97839   0.00221   0.00000  Uiso   1.00
H32    H     0.36712   0.93450   0.87815   0.00000  Uiso   1.00
H33    H     0.19977   0.93595   0.97831   0.00000  Uiso   1.00
H34    H     0.30028   0.05619   0.18778   0.00000  Uiso   1.00
H35    H     0.45097   0.89926   0.68128   0.00000  Uiso   1.00
H36    H     0.09810   0.90233   0.89252   0.00000  Uiso   1.00
H37    H     0.31003   0.15588   0.33423   0.00000  Uiso   1.00
O38    O     0.49078   0.91656   0.39580   0.00000  Uiso   1.00
O39    O     0.02782   0.92060   0.67295   0.00000  Uiso   1.00
O40    O     0.30587   0.25326   0.25246   0.00000  Uiso   1.00
N41    N     0.42253   0.97307   0.39918   0.00000  Uiso   1.00
N42    N     0.09262   0.97594   0.59666   0.00000  Uiso   1.00
N43    N     0.29074   0.21299   0.00963   0.00000  Uiso   1.00
N44    N     0.43494   0.92537   0.60969   0.00000  Uiso   1.00
N45    N     0.10503   0.92824   0.80717   0.00000  Uiso   1.00
N46    N     0.30315   0.16529   0.22014   0.00000  Uiso   1.00
C47    C     0.76756   0.55820   0.14996   0.00000  Uiso   1.00
C48    C     0.81331   0.52309   0.13230   0.00000  Uiso   1.00
C49    C     0.84485   0.52013   0.00018   0.00000  Uiso   1.00
C50    C     0.88466   0.48558   0.00729   0.00000  Uiso   1.00
C51    C     0.95446   0.43568   0.95938   0.00000  Uiso   1.00
C52    C     0.72238   0.52387   0.18671   0.00000  Uiso   1.00
C53    C     0.67748   0.52158   0.10035   0.00000  Uiso   1.00
C54    C     0.64074   0.48769   0.15328   0.00000  Uiso   1.00
C55    C     0.56937   0.43903   0.18991   0.00000  Uiso   1.00
C56    C     0.77699   0.58920   0.30052   0.00000  Uiso   1.00
C57    C     0.77799   0.64184   0.30986   0.00000  Uiso   1.00
C58    C     0.78722   0.66296   0.45861   0.00000  Uiso   1.00
C59    C     0.80064   0.71573   0.67194   0.00000  Uiso   1.00
C60    C     0.78216   0.50211   0.39752   0.00000  Uiso   1.00
C61    C     0.82123   0.49262   0.26677   0.00000  Uiso   1.00
C62    C     0.86100   0.45807   0.27408   0.00000  Uiso   1.00
C63    C     0.89260   0.45506   0.14199   0.00000  Uiso   1.00
C64    C     0.73031   0.49340   0.32117   0.00000  Uiso   1.00
C65    C     0.69363   0.45952   0.37424   0.00000  Uiso   1.00
C66    C     0.64868   0.45717   0.28798   0.00000  Uiso   1.00
C67    C     0.78492   0.55874   0.43498   0.00000  Uiso   1.00
C68    C     0.79414   0.57978   0.58375   0.00000  Uiso   1.00
C69    C     0.79516   0.63244   0.59332   0.00000  Uiso   1.00
H70    H     0.76139   0.58192   0.04528   0.00000  Uiso   1.00
H71    H     0.83870   0.54371   0.89614   0.00000  Uiso   1.00
H72    H     0.67135   0.54517   0.99631   0.00000  Uiso   1.00
H73    H     0.77186   0.66541   0.20578   0.00000  Uiso   1.00
H74    H     0.92790   0.48790   0.79007   0.00000  Uiso   1.00
H75    H     0.57504   0.49097   0.00131   0.00000  Uiso   1.00
H76    H     0.78696   0.74453   0.44302   0.00000  Uiso   1.00
H77    H     0.78833   0.47839   0.50221   0.00000  Uiso   1.00
H78    H     0.86712   0.43450   0.37815   0.00000  Uiso   1.00
H79    H     0.69977   0.43595   0.47831   0.00000  Uiso   1.00
H80    H     0.80028   0.55619   0.68778   0.00000  Uiso   1.00
H81    H     0.95097   0.39926   0.18128   0.00000  Uiso   1.00
H82    H     0.59810   0.40233   0.39252   0.00000  Uiso   1.00
H83    H     0.81003   0.65588   0.83423   0.00000  Uiso   1.00
O84    O     0.99078   0.41656   0.89580   0.00000  Uiso   1.00
O85    O     0.52782   0.42060   0.17295   0.00000  Uiso   1.00
O86    O     0.80587   0.75326   0.75246   0.00000  Uiso   1.00
N87    N     0.92253   0.47307   0.89918   0.00000  Uiso   1.00
N88    N     0.59262   0.47594   0.09666   0.00000  Uiso   1.00
N89    N     0.79074   0.71299   0.50963   0.00000  Uiso   1.00
N90    N     0.93494   0.42537   0.10969   0.00000  Uiso   1.00
N91    N     0.60503   0.42824   0.30717   0.00000  Uiso   1.00
N92    N     0.80315   0.66529   0.72014   0.00000  Uiso   1.00
C93    C     0.73244   0.94180   0.64996   0.00000  Uiso   1.00
C94    C     0.68669   0.97691   0.63230   0.00000  Uiso   1.00
C95    C     0.65515   0.97987   0.50018   0.00000  Uiso   1.00
C96    C     0.61534   0.01442   0.50729   0.00000  Uiso   1.00
C97    C     0.54554   0.06432   0.45938   0.00000  Uiso   1.00
C98    C     0.77762   0.97613   0.68671   0.00000  Uiso   1.00
C99    C     0.82252   0.97842   0.60035   0.00000  Uiso   1.00
C100   C     0.85926   0.01231   0.65328   0.00000  Uiso   1.00
C101   C     0.93063   0.06097   0.68991   0.00000  Uiso   1.00
C102   C     0.72301   0.91080   0.80052   0.00000  Uiso   1.00
C103   C     0.72201   0.85816   0.80986   0.00000  Uiso   1.00
C104   C     0.71278   0.83704   0.95861   0.00000  Uiso   1.00
C105   C     0.69936   0.78427   0.17194   0.00000  Uiso   1.00
C106   C     0.71784   0.99789   0.89752   0.00000  Uiso   1.00
C107   C     0.67877   0.00738   0.76677   0.00000  Uiso   1.00
C108   C     0.63900   0.04193   0.77408   0.00000  Uiso   1.00
C109   C     0.60740   0.04494   0.64199   0.00000  Uiso   1.00
C110   C     0.76969   0.00660   0.82117   0.00000  Uiso   1.00
C111   C     0.80637   0.04048   0.87424   0.00000  Uiso   1.00
C112   C     0.85132   0.04283   0.78798   0.00000  Uiso   1.00
C113   C     0.71508   0.94126   0.93498   0.00000  Uiso   1.00
C114   C     0.70586   0.92022   0.08375   0.00000  Uiso   1.00
C115   C     0.70484   0.86756   0.09332   0.00000  Uiso   1.00
H116   H     0.73861   0.91808   0.54528   0.00000  Uiso   1.00
H117   H     0.66130   0.95629   0.39614   0.00000  Uiso   1.00
H118   H     0.82865   0.95483   0.49631   0.00000  Uiso   1.00
H119   H     0.72814   0.83459   0.70578   0.00000  Uiso   1.00
H120   H     0.57210   0.01210   0.29007   0.00000  Uiso   1.00
H121   H     0.92496   0.00903   0.50131   0.00000  Uiso   1.00
H122   H     0.71304   0.75547   0.94302   0.00000  Uiso   1.00
H123   H     0.71167   0.02161   0.00221   0.00000  Uiso   1.00
H124   H     0.63288   0.06550   0.87815   0.00000  Uiso   1.00
H125   H     0.80023   0.06405   0.97831   0.00000  Uiso   1.00
H126   H     0.69972   0.94381   0.18778   0.00000  Uiso   1.00
H127   H     0.54903   0.10074   0.68128   0.00000  Uiso   1.00
H128   H     0.90190   0.09767   0.89252   0.00000  Uiso   1.00
H129   H     0.68997   0.84412   0.33423   0.00000  Uiso   1.00
O130   O     0.50922   0.08344   0.39580   0.00000  Uiso   1.00
O131   O     0.97218   0.07940   0.67295   0.00000  Uiso   1.00
O132   O     0.69413   0.74674   0.25246   0.00000  Uiso   1.00
N133   N     0.57747   0.02693   0.39918   0.00000  Uiso   1.00
N134   N     0.90738   0.02406   0.59666   0.00000  Uiso   1.00
N135   N     0.70926   0.78701   0.00963   0.00000  Uiso   1.00
N136   N     0.56506   0.07463   0.60969   0.00000  Uiso   1.00
N137   N     0.89497   0.07176   0.80717   0.00000  Uiso   1.00
N138   N     0.69685   0.83471   0.22014   0.00000  Uiso   1.00
C139   C     0.23244   0.44180   0.14996   0.00000  Uiso   1.00
C140   C     0.18669   0.47691   0.13230   0.00000  Uiso   1.00
C141   C     0.15515   0.47987   0.00018   0.00000  Uiso   1.00
C142   C     0.11534   0.51442   0.00729   0.00000  Uiso   1.00
C143   C     0.04554   0.56432   0.95938   0.00000  Uiso   1.00
C144   C     0.27762   0.47613   0.18671   0.00000  Uiso   1.00
C145   C     0.32252   0.47842   0.10035   0.00000  Uiso   1.00
C146   C     0.35926   0.51231   0.15328   0.00000  Uiso   1.00
C147   C     0.43063   0.56097   0.18991   0.00000  Uiso   1.00
C148   C     0.22301   0.41080   0.30052   0.00000  Uiso   1.00
C149   C     0.22201   0.35816   0.30986   0.00000  Uiso   1.00
C150   C     0.21278   0.33704   0.45861   0.00000  Uiso   1.00
C151   C     0.19936   0.28427   0.67194   0.00000  Uiso   1.00
C152   C     0.21784   0.49789   0.39752   0.00000  Uiso   1.00
C153   C     0.17877   0.50738   0.26677   0.00000  Uiso   1.00
C154   C     0.13900   0.54193   0.27408   0.00000  Uiso   1.00
C155   C     0.10740   0.54494   0.14199   0.00000  Uiso   1.00
C156   C     0.26969   0.50660   0.32117   0.00000  Uiso   1.00
C157   C     0.30637   0.54048   0.37424   0.00000  Uiso   1.00
C158   C     0.35132   0.54283   0.28798   0.00000  Uiso   1.00
C159   C     0.21508   0.44126   0.43498   0.00000  Uiso   1.00
C160   C     0.20586   0.42022   0.58375   0.00000  Uiso   1.00
C161   C     0.20484   0.36756   0.59332   0.00000  Uiso   1.00
H162   H     0.23861   0.41808   0.04528   0.00000  Uiso   1.00
H163   H     0.16130   0.45629   0.89614   0.00000  Uiso   1.00
H164   H     0.32865   0.45483   0.99631   0.00000  Uiso   1.00
H165   H     0.22814   0.33459   0.20578   0.00000  Uiso   1.00
H166   H     0.07210   0.51210   0.79007   0.00000  Uiso   1.00
H167   H     0.42496   0.50903   0.00131   0.00000  Uiso   1.00
H168   H     0.21304   0.25547   0.44302   0.00000  Uiso   1.00
H169   H     0.21167   0.52161   0.50221   0.00000  Uiso   1.00
H170   H     0.13288   0.56550   0.37815   0.00000  Uiso   1.00
H171   H     0.30023   0.56405   0.47831   0.00000  Uiso   1.00
H172   H     0.19972   0.44381   0.68778   0.00000  Uiso   1.00
H173   H     0.04903   0.60074   0.18128   0.00000  Uiso   1.00
H174   H     0.40190   0.59767   0.39252   0.00000  Uiso   1.00
H175   H     0.18997   0.34412   0.83423   0.00000  Uiso   1.00
O176   O     0.00922   0.58344   0.89580   0.00000  Uiso   1.00
O177   O     0.47218   0.57940   0.17295   0.00000  Uiso   1.00
O178   O     0.19413   0.24674   0.75246   0.00000  Uiso   1.00
N179   N     0.07747   0.52693   0.89918   0.00000  Uiso   1.00
N180   N     0.40738   0.52406   0.09666   0.00000  Uiso   1.00
N181   N     0.20926   0.28701   0.50963   0.00000  Uiso   1.00
N182   N     0.06506   0.57463   0.10969   0.00000  Uiso   1.00
N183   N     0.39497   0.57176   0.30717   0.00000  Uiso   1.00
N184   N     0.19685   0.33471   0.72014   0.00000  Uiso   1.00
C185   C     0.05820   0.73244   0.35004   0.00000  Uiso   1.00
C186   C     0.02309   0.68669   0.36770   0.00000  Uiso   1.00
C187   C     0.02013   0.65515   0.49982   0.00000  Uiso   1.00
C188   C     0.98558   0.61534   0.49271   0.00000  Uiso   1.00
C189   C     0.93568   0.54554   0.54062   0.00000  Uiso   1.00
C190   C     0.02387   0.77762   0.31329   0.00000  Uiso   1.00
C191   C     0.02158   0.82252   0.39965   0.00000  Uiso   1.00
C192   C     0.98769   0.85926   0.34672   0.00000  Uiso   1.00
C193   C     0.93903   0.93063   0.31009   0.00000  Uiso   1.00
C194   C     0.08920   0.72301   0.19948   0.00000  Uiso   1.00
C195   C     0.14184   0.72201   0.19014   0.00000  Uiso   1.00
C196   C     0.16296   0.71278   0.04139   0.00000  Uiso   1.00
C197   C     0.21573   0.69936   0.82806   0.00000  Uiso   1.00
C198   C     0.00211   0.71784   0.10248   0.00000  Uiso   1.00
C199   C     0.99262   0.67877   0.23323   0.00000  Uiso   1.00
C200   C     0.95807   0.63900   0.22592   0.00000  Uiso   1.00
C201   C     0.95506   0.60740   0.35801   0.00000  Uiso   1.00
C202   C     0.99340   0.76969   0.17883   0.00000  Uiso   1.00
C203   C     0.95952   0.80637   0.12576   0.00000  Uiso   1.00
C204   C     0.95717   0.85132   0.21202   0.00000  Uiso   1.00
C205   C     0.05874   0.71508   0.06502   0.00000  Uiso   1.00
C206   C     0.07978   0.70586   0.91625   0.00000  Uiso   1.00
C207   C     0.13244   0.70484   0.90668   0.00000  Uiso   1.00
H208   H     0.08192   0.73861   0.45472   0.00000  Uiso   1.00
H209   H     0.04371   0.66130   0.60386   0.00000  Uiso   1.00
H210   H     0.04517   0.82865   0.50369   0.00000  Uiso   1.00
H211   H     0.16541   0.72814   0.29422   0.00000  Uiso   1.00
H212   H     0.98790   0.57210   0.70993   0.00000  Uiso   1.00
H213   H     0.99097   0.92496   0.49869   0.00000  Uiso   1.00
H214   H     0.24453   0.71304   0.05698   0.00000  Uiso   1.00
H215   H     0.97839   0.71167   0.99779   0.00000  Uiso   1.00
H216   H     0.93450   0.63288   0.12185   0.00000  Uiso   1.00
H217   H     0.93595   0.80023   0.02169   0.00000  Uiso   1.00
H218   H     0.05619   0.69972   0.81222   0.00000  Uiso   1.00
H219   H     0.89926   0.54903   0.31872   0.00000  Uiso   1.00
H220   H     0.90233   0.90190   0.10748   0.00000  Uiso   1.00
H221   H     0.15588   0.68997   0.66577   0.00000  Uiso   1.00
O222   O     0.91656   0.50922   0.60420   0.00000  Uiso   1.00
O223   O     0.92060   0.97218   0.32705   0.00000  Uiso   1.00
O224   O     0.25326   0.69413   0.74754   0.00000  Uiso   1.00
N225   N     0.97307   0.57747   0.60082   0.00000  Uiso   1.00
N226   N     0.97594   0.90738   0.40334   0.00000  Uiso   1.00
N227   N     0.21299   0.70926   0.99037   0.00000  Uiso   1.00
N228   N     0.92537   0.56506   0.39031   0.00000  Uiso   1.00
N229   N     0.92824   0.89497   0.19283   0.00000  Uiso   1.00
N230   N     0.16529   0.69685   0.77986   0.00000  Uiso   1.00
C231   C     0.55820   0.23244   0.85004   0.00000  Uiso   1.00
C232   C     0.52309   0.18669   0.86770   0.00000  Uiso   1.00
C233   C     0.52013   0.15515   0.99982   0.00000  Uiso   1.00
C234   C     0.48558   0.11534   0.99271   0.00000  Uiso   1.00
C235   C     0.43568   0.04554   0.04062   0.00000  Uiso   1.00
C236   C     0.52387   0.27762   0.81329   0.00000  Uiso   1.00
C237   C     0.52158   0.32252   0.89965   0.00000  Uiso   1.00
C238   C     0.48769   0.35926   0.84672   0.00000  Uiso   1.00
C239   C     0.43903   0.43063   0.81009   0.00000  Uiso   1.00
C240   C     0.58920   0.22301   0.69948   0.00000  Uiso   1.00
C241   C     0.64184   0.22201   0.69014   0.00000  Uiso   1.00
C242   C     0.66296   0.21278   0.54139   0.00000  Uiso   1.00
C243   C     0.71573   0.19936   0.32806   0.00000  Uiso   1.00
C244   C     0.50211   0.21784   0.60248   0.00000  Uiso   1.00
C245   C     0.49262   0.17877   0.73323   0.00000  Uiso   1.00
C246   C     0.45807   0.13900   0.72592   0.00000  Uiso   1.00
C247   C     0.45506   0.10740   0.85801   0.00000  Uiso   1.00
C248   C     0.49340   0.26969   0.67883   0.00000  Uiso   1.00
C249   C     0.45952   0.30637   0.62576   0.00000  Uiso   1.00
C250   C     0.45717   0.35132   0.71202   0.00000  Uiso   1.00
C251   C     0.55874   0.21508   0.56502   0.00000  Uiso   1.00
C252   C     0.57978   0.20586   0.41625   0.00000  Uiso   1.00
C253   C     0.63244   0.20484   0.40668   0.00000  Uiso   1.00
H254   H     0.58192   0.23861   0.95472   0.00000  Uiso   1.00
H255   H     0.54371   0.16130   0.10386   0.00000  Uiso   1.00
H256   H     0.54517   0.32865   0.00369   0.00000  Uiso   1.00
H257   H     0.66541   0.22814   0.79422   0.00000  Uiso   1.00
H258   H     0.48790   0.07210   0.20993   0.00000  Uiso   1.00
H259   H     0.49097   0.42496   0.99869   0.00000  Uiso   1.00
H260   H     0.74453   0.21304   0.55698   0.00000  Uiso   1.00
H261   H     0.47839   0.21167   0.49779   0.00000  Uiso   1.00
H262   H     0.43450   0.13288   0.62185   0.00000  Uiso   1.00
H263   H     0.43595   0.30023   0.52169   0.00000  Uiso   1.00
H264   H     0.55619   0.19972   0.31222   0.00000  Uiso   1.00
H265   H     0.39926   0.04903   0.81872   0.00000  Uiso   1.00
H266   H     0.40233   0.40190   0.60748   0.00000  Uiso   1.00
H267   H     0.65588   0.18997   0.16577   0.00000  Uiso   1.00
O268   O     0.41656   0.00922   0.10420   0.00000  Uiso   1.00
O269   O     0.42060   0.47218   0.82705   0.00000  Uiso   1.00
O270   O     0.75326   0.19413   0.24754   0.00000  Uiso   1.00
N271   N     0.47307   0.07747   0.10082   0.00000  Uiso   1.00
N272   N     0.47594   0.40738   0.90334   0.00000  Uiso   1.00
N273   N     0.71299   0.20926   0.49037   0.00000  Uiso   1.00
N274   N     0.42537   0.06506   0.89031   0.00000  Uiso   1.00
N275   N     0.42824   0.39497   0.69283   0.00000  Uiso   1.00
N276   N     0.66529   0.19685   0.27986   0.00000  Uiso   1.00
C277   C     0.94180   0.26756   0.35004   0.00000  Uiso   1.00
C278   C     0.97691   0.31331   0.36770   0.00000  Uiso   1.00
C279   C     0.97987   0.34485   0.49982   0.00000  Uiso   1.00
C280   C     0.01442   0.38466   0.49271   0.00000  Uiso   1.00
C281   C     0.06432   0.45446   0.54062   0.00000  Uiso   1.00
C282   C     0.97613   0.22238   0.31329   0.00000  Uiso   1.00
C283   C     0.97842   0.17748   0.39965   0.00000  Uiso   1.00
C284   C     0.01231   0.14074   0.34672   0.00000  Uiso   1.00
C285   C     0.06097   0.06937   0.31009   0.00000  Uiso   1.00
C286   C     0.91080   0.27699   0.19948   0.00000  Uiso   1.00
C287   C     0.85816   0.27799   0.19014   0.00000  Uiso   1.00
C288   C     0.83704   0.28722   0.04139   0.00000  Uiso   1.00
C289   C     0.78427   0.30064   0.82806   0.00000  Uiso   1.00
C290   C     0.99789   0.28216   0.10248   0.00000  Uiso   1.00
C291   C     0.00738   0.32123   0.23323   0.00000  Uiso   1.00
C292   C     0.04193   0.36100   0.22592   0.00000  Uiso   1.00
C293   C     0.04494   0.39260   0.35801   0.00000  Uiso   1.00
C294   C     0.00660   0.23031   0.17883   0.00000  Uiso   1.00
C295   C     0.04048   0.19363   0.12576   0.00000  Uiso   1.00
C296   C     0.04283   0.14868   0.21202   0.00000  Uiso   1.00
C297   C     0.94126   0.28492   0.06502   0.00000  Uiso   1.00
C298   C     0.92022   0.29414   0.91625   0.00000  Uiso   1.00
C299   C     0.86756   0.29516   0.90668   0.00000  Uiso   1.00
H300   H     0.91808   0.26139   0.45472   0.00000  Uiso   1.00
H301   H     0.95629   0.33870   0.60386   0.00000  Uiso   1.00
H302   H     0.95483   0.17135   0.50369   0.00000  Uiso   1.00
H303   H     0.83459   0.27186   0.29422   0.00000  Uiso   1.00
H304   H     0.01210   0.42790   0.70993   0.00000  Uiso   1.00
H305   H     0.00903   0.07504   0.49869   0.00000  Uiso   1.00
H306   H     0.75547   0.28696   0.05698   0.00000  Uiso   1.00
H307   H     0.02161   0.28833   0.99779   0.00000  Uiso   1.00
H308   H     0.06550   0.36712   0.12185   0.00000  Uiso   1.00
H309   H     0.06405   0.19977   0.02169   0.00000  Uiso   1.00
H310   H     0.94381   0.30028   0.81222   0.00000  Uiso   1.00
H311   H     0.10074   0.45097   0.31872   0.00000  Uiso   1.00
H312   H     0.09767   0.09810   0.10748   0.00000  Uiso   1.00
H313   H     0.84412   0.31003   0.66577   0.00000  Uiso   1.00
O314   O     0.08344   0.49078   0.60420   0.00000  Uiso   1.00
O315   O     0.07940   0.02782   0.32705   0.00000  Uiso   1.00
O316   O     0.74674   0.30587   0.74754   0.00000  Uiso   1.00
N317   N     0.02693   0.42253   0.60082   0.00000  Uiso   1.00
N318   N     0.02406   0.09262   0.40334   0.00000  Uiso   1.00
N319   N     0.78701   0.29074   0.99037   0.00000  Uiso   1.00
N320   N     0.07463   0.43494   0.39031   0.00000  Uiso   1.00
N321   N     0.07176   0.10503   0.19283   0.00000  Uiso   1.00
N322   N     0.83471   0.30315   0.77986   0.00000  Uiso   1.00
C323   C     0.44180   0.76756   0.85004   0.00000  Uiso   1.00
C324   C     0.47691   0.81331   0.86770   0.00000  Uiso   1.00
C325   C     0.47987   0.84485   0.99982   0.00000  Uiso   1.00
C326   C     0.51442   0.88466   0.99271   0.00000  Uiso   1.00
C327   C     0.56432   0.95446   0.04062   0.00000  Uiso   1.00
C328   C     0.47613   0.72238   0.81329   0.00000  Uiso   1.00
C329   C     0.47842   0.67748   0.89965   0.00000  Uiso   1.00
C330   C     0.51231   0.64074   0.84672   0.00000  Uiso   1.00
C331   C     0.56097   0.56937   0.81009   0.00000  Uiso   1.00
C332   C     0.41080   0.77699   0.69948   0.00000  Uiso   1.00
C333   C     0.35816   0.77799   0.69014   0.00000  Uiso   1.00
C334   C     0.33704   0.78722   0.54139   0.00000  Uiso   1.00
C335   C     0.28427   0.80064   0.32806   0.00000  Uiso   1.00
C336   C     0.49789   0.78216   0.60248   0.00000  Uiso   1.00
C337   C     0.50738   0.82123   0.73323   0.00000  Uiso   1.00
C338   C     0.54193   0.86100   0.72592   0.00000  Uiso   1.00
C339   C     0.54494   0.89260   0.85801   0.00000  Uiso   1.00
C340   C     0.50660   0.73031   0.67883   0.00000  Uiso   1.00
C341   C     0.54048   0.69363   0.62576   0.00000  Uiso   1.00
C342   C     0.54283   0.64868   0.71202   0.00000  Uiso   1.00
C343   C     0.44126   0.78492   0.56502   0.00000  Uiso   1.00
C344   C     0.42022   0.79414   0.41625   0.00000  Uiso   1.00
C345   C     0.36756   0.79516   0.40668   0.00000  Uiso   1.00
H346   H     0.41808   0.76139   0.95472   0.00000  Uiso   1.00
H347   H     0.45629   0.83870   0.10386   0.00000  Uiso   1.00
H348   H     0.45483   0.67135   0.00369   0.00000  Uiso   1.00
H349   H     0.33459   0.77186   0.79422   0.00000  Uiso   1.00
H350   H     0.51210   0.92790   0.20993   0.00000  Uiso   1.00
H351   H     0.50903   0.57504   0.99869   0.00000  Uiso   1.00
H352   H     0.25547   0.78696   0.55698   0.00000  Uiso   1.00
H353   H     0.52161   0.78833   0.49779   0.00000  Uiso   1.00
H354   H     0.56550   0.86712   0.62185   0.00000  Uiso   1.00
H355   H     0.56405   0.69977   0.52169   0.00000  Uiso   1.00
H356   H     0.44381   0.80028   0.31222   0.00000  Uiso   1.00
H357   H     0.60074   0.95097   0.81872   0.00000  Uiso   1.00
H358   H     0.59767   0.59810   0.60748   0.00000  Uiso   1.00
H359   H     0.34412   0.81003   0.16577   0.00000  Uiso   1.00
O360   O     0.58344   0.99078   0.10420   0.00000  Uiso   1.00
O361   O     0.57940   0.52782   0.82705   0.00000  Uiso   1.00
O362   O     0.24674   0.80587   0.24754   0.00000  Uiso   1.00
N363   N     0.52693   0.92253   0.10082   0.00000  Uiso   1.00
N364   N     0.52406   0.59262   0.90334   0.00000  Uiso   1.00
N365   N     0.28701   0.79074   0.49037   0.00000  Uiso   1.00
N366   N     0.57463   0.93494   0.89031   0.00000  Uiso   1.00
N367   N     0.57176   0.60503   0.69283   0.00000  Uiso   1.00
N368   N     0.33471   0.80315   0.27986   0.00000  Uiso   1.00
