data_job_01649
_audit_creation_date              2018-12-19
_audit_creation_method            'Materials Studio'
_symmetry_space_group_name_H-M    'P1'
_symmetry_Int_Tables_number       1
_symmetry_cell_setting            triclinic
loop_
_symmetry_equiv_pos_as_xyz
  x,y,z
_cell_length_a                    21.8561
_cell_length_b                    12.4530
_cell_length_c                    27.0621
_cell_angle_alpha                 90.0000
_cell_angle_beta                  24.6607
_cell_angle_gamma                 90.0000
loop_
_atom_site_label
_atom_site_type_symbol
_atom_site_fract_x
_atom_site_fract_y
_atom_site_fract_z
_atom_site_U_iso_or_equiv
_atom_site_adp_type
_atom_site_occupancy
C1     C     0.93626   0.66493   0.43642   0.00000  Uiso   1.00
C2     C     0.92814   0.55367   0.41899   0.00000  Uiso   1.00
C3     C     0.04677   0.48742   0.32182   0.00000  Uiso   1.00
C4     C     0.01641   0.38865   0.32261   0.00000  Uiso   1.00
C5     C     0.02569   0.22069   0.28113   0.00000  Uiso   1.00
C6     C     0.86075   0.74096   0.45573   0.00000  Uiso   1.00
C7     C     0.92273   0.83217   0.38946   0.00000  Uiso   1.00
C8     C     0.83564   0.89107   0.42118   0.00000  Uiso   1.00
C9     C     0.74027   0.01391   0.43679   0.00000  Uiso   1.00
C10    C     0.83837   0.66069   0.55391   0.00000  Uiso   1.00
C11    C     0.88152   0.68444   0.57019   0.00000  Uiso   1.00
C12    C     0.77557   0.67578   0.68458   0.00000  Uiso   1.00
C13    C     0.64545   0.67400   0.85262   0.00000  Uiso   1.00
C14    C     0.67139   0.60735   0.61062   0.00000  Uiso   1.00
C15    C     0.78426   0.52240   0.51361   0.00000  Uiso   1.00
C16    C     0.75372   0.42371   0.51455   0.00000  Uiso   1.00
C17    C     0.87229   0.35732   0.41740   0.00000  Uiso   1.00
C18    C     0.71689   0.70969   0.55034   0.00000  Uiso   1.00
C19    C     0.62968   0.76847   0.58218   0.00000  Uiso   1.00
C20    C     0.69151   0.85974   0.51597   0.00000  Uiso   1.00
C21    C     0.69450   0.62941   0.64853   0.00000  Uiso   1.00
C22    C     0.58847   0.62073   0.76292   0.00000  Uiso   1.00
C23    C     0.63144   0.64446   0.77937   0.00000  Uiso   1.00
H24    H     0.04826   0.68928   0.36276   0.00000  Uiso   1.00
H25    H     0.15809   0.51165   0.24861   0.00000  Uiso   1.00
H26    H     0.03406   0.85636   0.31625   0.00000  Uiso   1.00
H27    H     0.99286   0.70864   0.49695   0.00000  Uiso   1.00
H28    H     0.21641   0.30095   0.16377   0.00000  Uiso   1.00
H29    H     0.95488   0.02780   0.30640   0.00000  Uiso   1.00
H30    H     0.86799   0.71631   0.68745   0.00000  Uiso   1.00
H31    H     0.55937   0.58300   0.68429   0.00000  Uiso   1.00
H32    H     0.64238   0.39953   0.58779   0.00000  Uiso   1.00
H33    H     0.51835   0.74424   0.65541   0.00000  Uiso   1.00
H34    H     0.47715   0.59652   0.83612   0.00000  Uiso   1.00
H35    H     0.79784   0.20994   0.43905   0.00000  Uiso   1.00
H36    H     0.53631   0.93681   0.58169   0.00000  Uiso   1.00
H37    H     0.44942   0.62531   0.96273   0.00000  Uiso   1.00
O38    O     0.07056   0.13669   0.23211   0.00000  Uiso   1.00
O39    O     0.72742   0.09030   0.41925   0.00000  Uiso   1.00
O40    O     0.61343   0.68163   0.91917   0.00000  Uiso   1.00
N41    N     0.10651   0.30470   0.24181   0.00000  Uiso   1.00
N42    N     0.86200   0.98426   0.37515   0.00000  Uiso   1.00
N43    N     0.78075   0.69307   0.73141   0.00000  Uiso   1.00
N44    N     0.88128   0.25573   0.38994   0.00000  Uiso   1.00
N45    N     0.63677   0.93529   0.52328   0.00000  Uiso   1.00
N46    N     0.55552   0.64410   0.87953   0.00000  Uiso   1.00
C47    C     0.06374   0.16493   0.06358   0.00000  Uiso   1.00
C48    C     0.07186   0.05367   0.08101   0.00000  Uiso   1.00
C49    C     0.95323   0.98742   0.17818   0.00000  Uiso   1.00
C50    C     0.98359   0.88865   0.17739   0.00000  Uiso   1.00
C51    C     0.97431   0.72069   0.21887   0.00000  Uiso   1.00
C52    C     0.13925   0.24096   0.04427   0.00000  Uiso   1.00
C53    C     0.07727   0.33217   0.11054   0.00000  Uiso   1.00
C54    C     0.16436   0.39107   0.07882   0.00000  Uiso   1.00
C55    C     0.25973   0.51391   0.06321   0.00000  Uiso   1.00
C56    C     0.16163   0.16069   0.94609   0.00000  Uiso   1.00
C57    C     0.11848   0.18444   0.92981   0.00000  Uiso   1.00
C58    C     0.22443   0.17578   0.81542   0.00000  Uiso   1.00
C59    C     0.35455   0.17400   0.64738   0.00000  Uiso   1.00
C60    C     0.32861   0.10735   0.88938   0.00000  Uiso   1.00
C61    C     0.21574   0.02240   0.98639   0.00000  Uiso   1.00
C62    C     0.24628   0.92371   0.98545   0.00000  Uiso   1.00
C63    C     0.12771   0.85732   0.08260   0.00000  Uiso   1.00
C64    C     0.28311   0.20969   0.94966   0.00000  Uiso   1.00
C65    C     0.37032   0.26847   0.91782   0.00000  Uiso   1.00
C66    C     0.30849   0.35974   0.98403   0.00000  Uiso   1.00
C67    C     0.30550   0.12941   0.85147   0.00000  Uiso   1.00
C68    C     0.41153   0.12073   0.73708   0.00000  Uiso   1.00
C69    C     0.36856   0.14446   0.72063   0.00000  Uiso   1.00
H70    H     0.95174   0.18928   0.13724   0.00000  Uiso   1.00
H71    H     0.84191   0.01165   0.25139   0.00000  Uiso   1.00
H72    H     0.96594   0.35636   0.18375   0.00000  Uiso   1.00
H73    H     0.00714   0.20864   0.00305   0.00000  Uiso   1.00
H74    H     0.78359   0.80095   0.33623   0.00000  Uiso   1.00
H75    H     0.04512   0.52780   0.19360   0.00000  Uiso   1.00
H76    H     0.13201   0.21631   0.81255   0.00000  Uiso   1.00
H77    H     0.44063   0.08300   0.81571   0.00000  Uiso   1.00
H78    H     0.35762   0.89953   0.91221   0.00000  Uiso   1.00
H79    H     0.48165   0.24424   0.84459   0.00000  Uiso   1.00
H80    H     0.52285   0.09652   0.66388   0.00000  Uiso   1.00
H81    H     0.20216   0.70994   0.06095   0.00000  Uiso   1.00
H82    H     0.46369   0.43681   0.91831   0.00000  Uiso   1.00
H83    H     0.55058   0.12531   0.53727   0.00000  Uiso   1.00
O84    O     0.92944   0.63669   0.26789   0.00000  Uiso   1.00
O85    O     0.27258   0.59030   0.08075   0.00000  Uiso   1.00
O86    O     0.38657   0.18163   0.58083   0.00000  Uiso   1.00
N87    N     0.89349   0.80470   0.25819   0.00000  Uiso   1.00
N88    N     0.13800   0.48426   0.12485   0.00000  Uiso   1.00
N89    N     0.21925   0.19307   0.76859   0.00000  Uiso   1.00
N90    N     0.11872   0.75573   0.11006   0.00000  Uiso   1.00
N91    N     0.36323   0.43529   0.97672   0.00000  Uiso   1.00
N92    N     0.44448   0.14410   0.62047   0.00000  Uiso   1.00
C93    C     0.06374   0.33507   0.56358   0.00000  Uiso   1.00
C94    C     0.07186   0.44633   0.58101   0.00000  Uiso   1.00
C95    C     0.95323   0.51258   0.67818   0.00000  Uiso   1.00
C96    C     0.98359   0.61135   0.67739   0.00000  Uiso   1.00
C97    C     0.97431   0.77931   0.71887   0.00000  Uiso   1.00
C98    C     0.13925   0.25904   0.54427   0.00000  Uiso   1.00
C99    C     0.07727   0.16783   0.61054   0.00000  Uiso   1.00
C100   C     0.16436   0.10893   0.57882   0.00000  Uiso   1.00
C101   C     0.25973   0.98609   0.56321   0.00000  Uiso   1.00
C102   C     0.16163   0.33931   0.44609   0.00000  Uiso   1.00
C103   C     0.11848   0.31556   0.42981   0.00000  Uiso   1.00
C104   C     0.22443   0.32422   0.31542   0.00000  Uiso   1.00
C105   C     0.35455   0.32600   0.14738   0.00000  Uiso   1.00
C106   C     0.32861   0.39265   0.38938   0.00000  Uiso   1.00
C107   C     0.21574   0.47760   0.48639   0.00000  Uiso   1.00
C108   C     0.24628   0.57629   0.48545   0.00000  Uiso   1.00
C109   C     0.12771   0.64268   0.58260   0.00000  Uiso   1.00
C110   C     0.28311   0.29031   0.44966   0.00000  Uiso   1.00
C111   C     0.37032   0.23153   0.41782   0.00000  Uiso   1.00
C112   C     0.30849   0.14026   0.48403   0.00000  Uiso   1.00
C113   C     0.30550   0.37059   0.35147   0.00000  Uiso   1.00
C114   C     0.41153   0.37927   0.23708   0.00000  Uiso   1.00
C115   C     0.36856   0.35554   0.22063   0.00000  Uiso   1.00
H116   H     0.95174   0.31072   0.63724   0.00000  Uiso   1.00
H117   H     0.84191   0.48835   0.75139   0.00000  Uiso   1.00
H118   H     0.96594   0.14364   0.68375   0.00000  Uiso   1.00
H119   H     0.00714   0.29136   0.50305   0.00000  Uiso   1.00
H120   H     0.78359   0.69905   0.83623   0.00000  Uiso   1.00
H121   H     0.04512   0.97220   0.69360   0.00000  Uiso   1.00
H122   H     0.13201   0.28369   0.31255   0.00000  Uiso   1.00
H123   H     0.44063   0.41700   0.31571   0.00000  Uiso   1.00
H124   H     0.35762   0.60047   0.41221   0.00000  Uiso   1.00
H125   H     0.48165   0.25576   0.34459   0.00000  Uiso   1.00
H126   H     0.52285   0.40348   0.16388   0.00000  Uiso   1.00
H127   H     0.20216   0.79006   0.56095   0.00000  Uiso   1.00
H128   H     0.46369   0.06319   0.41831   0.00000  Uiso   1.00
H129   H     0.55058   0.37469   0.03727   0.00000  Uiso   1.00
O130   O     0.92944   0.86331   0.76789   0.00000  Uiso   1.00
O131   O     0.27258   0.90970   0.58075   0.00000  Uiso   1.00
O132   O     0.38657   0.31837   0.08083   0.00000  Uiso   1.00
N133   N     0.89349   0.69530   0.75819   0.00000  Uiso   1.00
N134   N     0.13800   0.01574   0.62485   0.00000  Uiso   1.00
N135   N     0.21925   0.30693   0.26859   0.00000  Uiso   1.00
N136   N     0.11872   0.74427   0.61006   0.00000  Uiso   1.00
N137   N     0.36323   0.06471   0.47672   0.00000  Uiso   1.00
N138   N     0.44448   0.35590   0.12047   0.00000  Uiso   1.00
C139   C     0.93626   0.83507   0.93642   0.00000  Uiso   1.00
C140   C     0.92814   0.94633   0.91899   0.00000  Uiso   1.00
C141   C     0.04677   0.01258   0.82182   0.00000  Uiso   1.00
C142   C     0.01641   0.11135   0.82261   0.00000  Uiso   1.00
C143   C     0.02569   0.27931   0.78113   0.00000  Uiso   1.00
C144   C     0.86075   0.75904   0.95573   0.00000  Uiso   1.00
C145   C     0.92273   0.66783   0.88946   0.00000  Uiso   1.00
C146   C     0.83564   0.60893   0.92118   0.00000  Uiso   1.00
C147   C     0.74027   0.48609   0.93679   0.00000  Uiso   1.00
C148   C     0.83837   0.83931   0.05391   0.00000  Uiso   1.00
C149   C     0.88152   0.81556   0.07019   0.00000  Uiso   1.00
C150   C     0.77557   0.82422   0.18458   0.00000  Uiso   1.00
C151   C     0.64545   0.82600   0.35262   0.00000  Uiso   1.00
C152   C     0.67139   0.89265   0.11062   0.00000  Uiso   1.00
C153   C     0.78426   0.97760   0.01361   0.00000  Uiso   1.00
C154   C     0.75372   0.07629   0.01455   0.00000  Uiso   1.00
C155   C     0.87229   0.14268   0.91740   0.00000  Uiso   1.00
C156   C     0.71689   0.79031   0.05034   0.00000  Uiso   1.00
C157   C     0.62968   0.73153   0.08218   0.00000  Uiso   1.00
C158   C     0.69151   0.64026   0.01597   0.00000  Uiso   1.00
C159   C     0.69450   0.87059   0.14853   0.00000  Uiso   1.00
C160   C     0.58847   0.87927   0.26292   0.00000  Uiso   1.00
C161   C     0.63144   0.85554   0.27937   0.00000  Uiso   1.00
H162   H     0.04826   0.81072   0.86276   0.00000  Uiso   1.00
H163   H     0.15809   0.98835   0.74861   0.00000  Uiso   1.00
H164   H     0.03406   0.64364   0.81625   0.00000  Uiso   1.00
H165   H     0.99286   0.79136   0.99695   0.00000  Uiso   1.00
H166   H     0.21641   0.19905   0.66377   0.00000  Uiso   1.00
H167   H     0.95488   0.47220   0.80640   0.00000  Uiso   1.00
H168   H     0.86799   0.78369   0.18745   0.00000  Uiso   1.00
H169   H     0.55937   0.91700   0.18429   0.00000  Uiso   1.00
H170   H     0.64238   0.10047   0.08779   0.00000  Uiso   1.00
H171   H     0.51835   0.75576   0.15541   0.00000  Uiso   1.00
H172   H     0.47715   0.90348   0.33612   0.00000  Uiso   1.00
H173   H     0.79784   0.29006   0.93905   0.00000  Uiso   1.00
H174   H     0.53631   0.56319   0.08169   0.00000  Uiso   1.00
H175   H     0.44942   0.87469   0.46273   0.00000  Uiso   1.00
O176   O     0.07056   0.36331   0.73211   0.00000  Uiso   1.00
O177   O     0.72742   0.40970   0.91925   0.00000  Uiso   1.00
O178   O     0.61343   0.81837   0.41917   0.00000  Uiso   1.00
N179   N     0.10651   0.19530   0.74181   0.00000  Uiso   1.00
N180   N     0.86200   0.51574   0.87515   0.00000  Uiso   1.00
N181   N     0.78075   0.80693   0.23141   0.00000  Uiso   1.00
N182   N     0.88128   0.24427   0.88994   0.00000  Uiso   1.00
N183   N     0.63677   0.56471   0.02328   0.00000  Uiso   1.00
N184   N     0.55552   0.85590   0.37953   0.00000  Uiso   1.00
