data_job_03870
_audit_creation_date              2018-12-19
_audit_creation_method            'Materials Studio'
_symmetry_space_group_name_H-M    'P1'
_symmetry_Int_Tables_number       1
_symmetry_cell_setting            triclinic
loop_
_symmetry_equiv_pos_as_xyz
  x,y,z
_cell_length_a                    18.1183
_cell_length_b                    9.3789
_cell_length_c                    17.9717
_cell_angle_alpha                 90.0000
_cell_angle_beta                  100.9080
_cell_angle_gamma                 90.0000
loop_
_atom_site_label
_atom_site_type_symbol
_atom_site_fract_x
_atom_site_fract_y
_atom_site_fract_z
_atom_site_U_iso_or_equiv
_atom_site_adp_type
_atom_site_occupancy
C1     C     0.25558   0.45871   0.83264   0.00000  Uiso   1.00
C2     C     0.31727   0.35979   0.81603   0.00000  Uiso   1.00
C3     C     0.33871   0.34356   0.74636   0.00000  Uiso   1.00
C4     C     0.39634   0.24771   0.74281   0.00000  Uiso   1.00
C5     C     0.48679   0.10573   0.70729   0.00000  Uiso   1.00
C6     C     0.20082   0.36445   0.86509   0.00000  Uiso   1.00
C7     C     0.12434   0.35215   0.83668   0.00000  Uiso   1.00
C8     C     0.08394   0.26024   0.87444   0.00000  Uiso   1.00
C9     C     0.99359   0.12557   0.91513   0.00000  Uiso   1.00
C10    C     0.29267   0.55502   0.89738   0.00000  Uiso   1.00
C11    C     0.29340   0.70296   0.89613   0.00000  Uiso   1.00
C12    C     0.33031   0.77149   0.96109   0.00000  Uiso   1.00
C13    C     0.38257   0.93271   0.05192   0.00000  Uiso   1.00
C14    C     0.31981   0.31735   0.95023   0.00000  Uiso   1.00
C15    C     0.35215   0.28301   0.87990   0.00000  Uiso   1.00
C16    C     0.40977   0.18716   0.87646   0.00000  Uiso   1.00
C17    C     0.43129   0.17079   0.80680   0.00000  Uiso   1.00
C18    C     0.23570   0.28767   0.92896   0.00000  Uiso   1.00
C19    C     0.19540   0.19575   0.96678   0.00000  Uiso   1.00
C20    C     0.11888   0.18331   0.93843   0.00000  Uiso   1.00
C21    C     0.32755   0.47824   0.96126   0.00000  Uiso   1.00
C22    C     0.36446   0.54655   0.02623   0.00000  Uiso   1.00
C23    C     0.36526   0.69457   0.02508   0.00000  Uiso   1.00
H24    H     0.22842   0.51849   0.78291   0.00000  Uiso   1.00
H25    H     0.31170   0.40299   0.69693   0.00000  Uiso   1.00
H26    H     0.09736   0.41160   0.78725   0.00000  Uiso   1.00
H27    H     0.26640   0.76234   0.84669   0.00000  Uiso   1.00
H28    H     0.41939   0.24104   0.62978   0.00000  Uiso   1.00
H29    H     0.96745   0.25922   0.82023   0.00000  Uiso   1.00
H30    H     0.32389   0.99884   0.94557   0.00000  Uiso   1.00
H31    H     0.34696   0.25757   0.99997   0.00000  Uiso   1.00
H32    H     0.43675   0.12775   0.92590   0.00000  Uiso   1.00
H33    H     0.22241   0.13636   0.01621   0.00000  Uiso   1.00
H34    H     0.39145   0.48710   0.07565   0.00000  Uiso   1.00
H35    H     0.52088   0.01764   0.81561   0.00000  Uiso   1.00
H36    H     0.06894   0.03583   0.00606   0.00000  Uiso   1.00
H37    H     0.42539   0.77544   0.13141   0.00000  Uiso   1.00
O38    O     0.52704   0.04862   0.67005   0.00000  Uiso   1.00
O39    O     0.93411   0.07250   0.91992   0.00000  Uiso   1.00
O40    O     0.40177   0.04285   0.08436   0.00000  Uiso   1.00
N41    N     0.43096   0.20630   0.68368   0.00000  Uiso   1.00
N42    N     0.00843   0.22328   0.86173   0.00000  Uiso   1.00
N43    N     0.34166   0.91476   0.97893   0.00000  Uiso   1.00
N44    N     0.48558   0.08609   0.78368   0.00000  Uiso   1.00
N45    N     0.06304   0.10307   0.96173   0.00000  Uiso   1.00
N46    N     0.39627   0.79455   0.07892   0.00000  Uiso   1.00
C47    C     0.74442   0.95871   0.66736   0.00000  Uiso   1.00
C48    C     0.68273   0.85979   0.68397   0.00000  Uiso   1.00
C49    C     0.66129   0.84356   0.75364   0.00000  Uiso   1.00
C50    C     0.60366   0.74771   0.75719   0.00000  Uiso   1.00
C51    C     0.51321   0.60573   0.79271   0.00000  Uiso   1.00
C52    C     0.79918   0.86445   0.63491   0.00000  Uiso   1.00
C53    C     0.87566   0.85215   0.66332   0.00000  Uiso   1.00
C54    C     0.91606   0.76024   0.62556   0.00000  Uiso   1.00
C55    C     0.00641   0.62557   0.58487   0.00000  Uiso   1.00
C56    C     0.70733   0.05502   0.60262   0.00000  Uiso   1.00
C57    C     0.70660   0.20296   0.60387   0.00000  Uiso   1.00
C58    C     0.66969   0.27149   0.53891   0.00000  Uiso   1.00
C59    C     0.61743   0.43271   0.44808   0.00000  Uiso   1.00
C60    C     0.68019   0.81735   0.54977   0.00000  Uiso   1.00
C61    C     0.64785   0.78301   0.62010   0.00000  Uiso   1.00
C62    C     0.59023   0.68716   0.62354   0.00000  Uiso   1.00
C63    C     0.56871   0.67079   0.69320   0.00000  Uiso   1.00
C64    C     0.76430   0.78767   0.57104   0.00000  Uiso   1.00
C65    C     0.80460   0.69575   0.53322   0.00000  Uiso   1.00
C66    C     0.88112   0.68331   0.56157   0.00000  Uiso   1.00
C67    C     0.67245   0.97824   0.53874   0.00000  Uiso   1.00
C68    C     0.63554   0.04655   0.47377   0.00000  Uiso   1.00
C69    C     0.63474   0.19457   0.47492   0.00000  Uiso   1.00
H70    H     0.77158   0.01849   0.71709   0.00000  Uiso   1.00
H71    H     0.68830   0.90299   0.80307   0.00000  Uiso   1.00
H72    H     0.90264   0.91160   0.71275   0.00000  Uiso   1.00
H73    H     0.73360   0.26234   0.65331   0.00000  Uiso   1.00
H74    H     0.58061   0.74104   0.87022   0.00000  Uiso   1.00
H75    H     0.03255   0.75922   0.67977   0.00000  Uiso   1.00
H76    H     0.67611   0.49884   0.55443   0.00000  Uiso   1.00
H77    H     0.65304   0.75757   0.50003   0.00000  Uiso   1.00
H78    H     0.56325   0.62775   0.57410   0.00000  Uiso   1.00
H79    H     0.77759   0.63636   0.48379   0.00000  Uiso   1.00
H80    H     0.60855   0.98710   0.42435   0.00000  Uiso   1.00
H81    H     0.47912   0.51764   0.68439   0.00000  Uiso   1.00
H82    H     0.93106   0.53583   0.49394   0.00000  Uiso   1.00
H83    H     0.57461   0.27544   0.36859   0.00000  Uiso   1.00
O84    O     0.47296   0.54862   0.82995   0.00000  Uiso   1.00
O85    O     0.06589   0.57250   0.58008   0.00000  Uiso   1.00
O86    O     0.59823   0.54285   0.41564   0.00000  Uiso   1.00
N87    N     0.56904   0.70630   0.81632   0.00000  Uiso   1.00
N88    N     0.99157   0.72328   0.63827   0.00000  Uiso   1.00
N89    N     0.65834   0.41476   0.52107   0.00000  Uiso   1.00
N90    N     0.51442   0.58609   0.71632   0.00000  Uiso   1.00
N91    N     0.93696   0.60307   0.53827   0.00000  Uiso   1.00
N92    N     0.60373   0.29455   0.42108   0.00000  Uiso   1.00
C93    C     0.74442   0.54129   0.16736   0.00000  Uiso   1.00
C94    C     0.68273   0.64021   0.18397   0.00000  Uiso   1.00
C95    C     0.66129   0.65644   0.25364   0.00000  Uiso   1.00
C96    C     0.60366   0.75229   0.25719   0.00000  Uiso   1.00
C97    C     0.51321   0.89427   0.29271   0.00000  Uiso   1.00
C98    C     0.79918   0.63555   0.13491   0.00000  Uiso   1.00
C99    C     0.87566   0.64785   0.16332   0.00000  Uiso   1.00
C100   C     0.91606   0.73976   0.12556   0.00000  Uiso   1.00
C101   C     0.00641   0.87443   0.08487   0.00000  Uiso   1.00
C102   C     0.70733   0.44498   0.10262   0.00000  Uiso   1.00
C103   C     0.70660   0.29704   0.10387   0.00000  Uiso   1.00
C104   C     0.66969   0.22851   0.03891   0.00000  Uiso   1.00
C105   C     0.61743   0.06729   0.94808   0.00000  Uiso   1.00
C106   C     0.68019   0.68265   0.04977   0.00000  Uiso   1.00
C107   C     0.64785   0.71699   0.12010   0.00000  Uiso   1.00
C108   C     0.59023   0.81284   0.12354   0.00000  Uiso   1.00
C109   C     0.56871   0.82921   0.19320   0.00000  Uiso   1.00
C110   C     0.76430   0.71233   0.07104   0.00000  Uiso   1.00
C111   C     0.80460   0.80425   0.03322   0.00000  Uiso   1.00
C112   C     0.88112   0.81669   0.06157   0.00000  Uiso   1.00
C113   C     0.67245   0.52176   0.03874   0.00000  Uiso   1.00
C114   C     0.63554   0.45345   0.97377   0.00000  Uiso   1.00
C115   C     0.63474   0.30543   0.97492   0.00000  Uiso   1.00
H116   H     0.77158   0.48151   0.21709   0.00000  Uiso   1.00
H117   H     0.68830   0.59701   0.30307   0.00000  Uiso   1.00
H118   H     0.90264   0.58840   0.21275   0.00000  Uiso   1.00
H119   H     0.73360   0.23766   0.15331   0.00000  Uiso   1.00
H120   H     0.58061   0.75896   0.37022   0.00000  Uiso   1.00
H121   H     0.03255   0.74078   0.17977   0.00000  Uiso   1.00
H122   H     0.67611   0.00116   0.05443   0.00000  Uiso   1.00
H123   H     0.65304   0.74243   0.00003   0.00000  Uiso   1.00
H124   H     0.56325   0.87225   0.07410   0.00000  Uiso   1.00
H125   H     0.77759   0.86364   0.98379   0.00000  Uiso   1.00
H126   H     0.60855   0.51290   0.92435   0.00000  Uiso   1.00
H127   H     0.47912   0.98236   0.18439   0.00000  Uiso   1.00
H128   H     0.93106   0.96417   0.99394   0.00000  Uiso   1.00
H129   H     0.57461   0.22456   0.86859   0.00000  Uiso   1.00
O130   O     0.47296   0.95138   0.32995   0.00000  Uiso   1.00
O131   O     0.06589   0.92750   0.08008   0.00000  Uiso   1.00
O132   O     0.59823   0.95715   0.91564   0.00000  Uiso   1.00
N133   N     0.56904   0.79370   0.31632   0.00000  Uiso   1.00
N134   N     0.99157   0.77672   0.13827   0.00000  Uiso   1.00
N135   N     0.65834   0.08524   0.02107   0.00000  Uiso   1.00
N136   N     0.51442   0.91391   0.21632   0.00000  Uiso   1.00
N137   N     0.93696   0.89693   0.03827   0.00000  Uiso   1.00
N138   N     0.60373   0.20545   0.92108   0.00000  Uiso   1.00
C139   C     0.25558   0.04129   0.33264   0.00000  Uiso   1.00
C140   C     0.31727   0.14021   0.31603   0.00000  Uiso   1.00
C141   C     0.33871   0.15644   0.24636   0.00000  Uiso   1.00
C142   C     0.39634   0.25229   0.24281   0.00000  Uiso   1.00
C143   C     0.48679   0.39427   0.20729   0.00000  Uiso   1.00
C144   C     0.20082   0.13555   0.36509   0.00000  Uiso   1.00
C145   C     0.12434   0.14785   0.33668   0.00000  Uiso   1.00
C146   C     0.08394   0.23976   0.37444   0.00000  Uiso   1.00
C147   C     0.99359   0.37443   0.41513   0.00000  Uiso   1.00
C148   C     0.29267   0.94498   0.39738   0.00000  Uiso   1.00
C149   C     0.29340   0.79704   0.39613   0.00000  Uiso   1.00
C150   C     0.33031   0.72851   0.46109   0.00000  Uiso   1.00
C151   C     0.38257   0.56729   0.55192   0.00000  Uiso   1.00
C152   C     0.31981   0.18265   0.45023   0.00000  Uiso   1.00
C153   C     0.35215   0.21699   0.37990   0.00000  Uiso   1.00
C154   C     0.40977   0.31284   0.37646   0.00000  Uiso   1.00
C155   C     0.43129   0.32921   0.30680   0.00000  Uiso   1.00
C156   C     0.23570   0.21233   0.42896   0.00000  Uiso   1.00
C157   C     0.19540   0.30425   0.46678   0.00000  Uiso   1.00
C158   C     0.11888   0.31669   0.43843   0.00000  Uiso   1.00
C159   C     0.32755   0.02176   0.46126   0.00000  Uiso   1.00
C160   C     0.36446   0.95345   0.52623   0.00000  Uiso   1.00
C161   C     0.36526   0.80543   0.52508   0.00000  Uiso   1.00
H162   H     0.22842   0.98151   0.28291   0.00000  Uiso   1.00
H163   H     0.31170   0.09701   0.19693   0.00000  Uiso   1.00
H164   H     0.09736   0.08840   0.28725   0.00000  Uiso   1.00
H165   H     0.26640   0.73766   0.34669   0.00000  Uiso   1.00
H166   H     0.41939   0.25896   0.12978   0.00000  Uiso   1.00
H167   H     0.96745   0.24078   0.32023   0.00000  Uiso   1.00
H168   H     0.32389   0.50116   0.44557   0.00000  Uiso   1.00
H169   H     0.34696   0.24243   0.49997   0.00000  Uiso   1.00
H170   H     0.43675   0.37225   0.42590   0.00000  Uiso   1.00
H171   H     0.22241   0.36364   0.51621   0.00000  Uiso   1.00
H172   H     0.39145   0.01290   0.57565   0.00000  Uiso   1.00
H173   H     0.52088   0.48236   0.31561   0.00000  Uiso   1.00
H174   H     0.06894   0.46417   0.50606   0.00000  Uiso   1.00
H175   H     0.42539   0.72456   0.63141   0.00000  Uiso   1.00
O176   O     0.52704   0.45138   0.17005   0.00000  Uiso   1.00
O177   O     0.93411   0.42750   0.41992   0.00000  Uiso   1.00
O178   O     0.40177   0.45715   0.58436   0.00000  Uiso   1.00
N179   N     0.43096   0.29370   0.18368   0.00000  Uiso   1.00
N180   N     0.00843   0.27672   0.36173   0.00000  Uiso   1.00
N181   N     0.34166   0.58524   0.47893   0.00000  Uiso   1.00
N182   N     0.48558   0.41391   0.28368   0.00000  Uiso   1.00
N183   N     0.06304   0.39693   0.46173   0.00000  Uiso   1.00
N184   N     0.39627   0.70545   0.57892   0.00000  Uiso   1.00
