data_job_03632
_audit_creation_date              2018-12-19
_audit_creation_method            'Materials Studio'
_symmetry_space_group_name_H-M    'P1'
_symmetry_Int_Tables_number       1
_symmetry_cell_setting            triclinic
loop_
_symmetry_equiv_pos_as_xyz
  x,y,z
_cell_length_a                    26.0475
_cell_length_b                    22.0000
_cell_length_c                    11.9737
_cell_angle_alpha                 90.0000
_cell_angle_beta                  90.0000
_cell_angle_gamma                 90.0000
loop_
_atom_site_label
_atom_site_type_symbol
_atom_site_fract_x
_atom_site_fract_y
_atom_site_fract_z
_atom_site_U_iso_or_equiv
_atom_site_adp_type
_atom_site_occupancy
C1     C     0.12939   0.15291   0.58442   0.00000  Uiso   1.00
C2     C     0.18406   0.13532   0.55230   0.00000  Uiso   1.00
C3     C     0.22842   0.16484   0.58663   0.00000  Uiso   1.00
C4     C     0.27474   0.14173   0.54808   0.00000  Uiso   1.00
C5     C     0.35935   0.12215   0.50886   0.00000  Uiso   1.00
C6     C     0.10075   0.16285   0.47485   0.00000  Uiso   1.00
C7     C     0.07507   0.21552   0.44407   0.00000  Uiso   1.00
C8     C     0.05126   0.21559   0.34032   0.00000  Uiso   1.00
C9     C     0.00650   0.23875   0.18090   0.00000  Uiso   1.00
C10    C     0.10568   0.09646   0.63734   0.00000  Uiso   1.00
C11    C     0.08411   0.09331   0.74318   0.00000  Uiso   1.00
C12    C     0.06444   0.03748   0.77623   0.00000  Uiso   1.00
C13    C     0.02733   0.95757   0.86909   0.00000  Uiso   1.00
C14    C     0.13277   0.05937   0.45491   0.00000  Uiso   1.00
C15    C     0.18589   0.08451   0.48195   0.00000  Uiso   1.00
C16    C     0.23216   0.06134   0.44334   0.00000  Uiso   1.00
C17    C     0.27659   0.09082   0.47761   0.00000  Uiso   1.00
C18    C     0.10259   0.11205   0.40451   0.00000  Uiso   1.00
C19    C     0.07881   0.11203   0.30078   0.00000  Uiso   1.00
C20    C     0.05310   0.16469   0.26985   0.00000  Uiso   1.00
C21    C     0.10751   0.04565   0.56700   0.00000  Uiso   1.00
C22    C     0.08786   0.98982   0.59989   0.00000  Uiso   1.00
C23    C     0.06628   0.98658   0.70575   0.00000  Uiso   1.00
H24    H     0.12796   0.19247   0.63918   0.00000  Uiso   1.00
H25    H     0.22698   0.20416   0.64107   0.00000  Uiso   1.00
H26    H     0.07365   0.25483   0.49853   0.00000  Uiso   1.00
H27    H     0.08270   0.13264   0.79759   0.00000  Uiso   1.00
H28    H     0.33758   0.19473   0.61210   0.00000  Uiso   1.00
H29    H     0.01425   0.30157   0.31158   0.00000  Uiso   1.00
H30    H     0.03334   0.04390   0.94220   0.00000  Uiso   1.00
H31    H     0.13420   0.01981   0.40014   0.00000  Uiso   1.00
H32    H     0.23357   0.02203   0.38890   0.00000  Uiso   1.00
H33    H     0.08024   0.07270   0.24637   0.00000  Uiso   1.00
H34    H     0.08929   0.95051   0.54543   0.00000  Uiso   1.00
H35    H     0.34293   0.04690   0.40743   0.00000  Uiso   1.00
H36    H     0.01960   0.15374   0.10691   0.00000  Uiso   1.00
H37    H     0.03869   0.89608   0.73753   0.00000  Uiso   1.00
O38    O     0.40551   0.12540   0.50665   0.00000  Uiso   1.00
O39    O     0.98131   0.26557   0.11240   0.00000  Uiso   1.00
O40    O     0.00635   0.92752   0.93976   0.00000  Uiso   1.00
N41    N     0.32520   0.15963   0.56549   0.00000  Uiso   1.00
N42    N     0.02292   0.25952   0.28451   0.00000  Uiso   1.00
N43    N     0.04075   0.01863   0.87408   0.00000  Uiso   1.00
N44    N     0.32808   0.08008   0.45536   0.00000  Uiso   1.00
N45    N     0.02580   0.17998   0.17438   0.00000  Uiso   1.00
N46    N     0.04363   0.93909   0.76395   0.00000  Uiso   1.00
C47    C     0.37061   0.34709   0.58442   0.00000  Uiso   1.00
C48    C     0.31594   0.36468   0.55230   0.00000  Uiso   1.00
C49    C     0.27158   0.33516   0.58663   0.00000  Uiso   1.00
C50    C     0.22526   0.35827   0.54808   0.00000  Uiso   1.00
C51    C     0.14065   0.37785   0.50886   0.00000  Uiso   1.00
C52    C     0.39925   0.33715   0.47485   0.00000  Uiso   1.00
C53    C     0.42493   0.28448   0.44407   0.00000  Uiso   1.00
C54    C     0.44874   0.28441   0.34032   0.00000  Uiso   1.00
C55    C     0.49350   0.26125   0.18090   0.00000  Uiso   1.00
C56    C     0.39432   0.40354   0.63734   0.00000  Uiso   1.00
C57    C     0.41589   0.40669   0.74318   0.00000  Uiso   1.00
C58    C     0.43556   0.46252   0.77623   0.00000  Uiso   1.00
C59    C     0.47267   0.54243   0.86909   0.00000  Uiso   1.00
C60    C     0.36723   0.44063   0.45491   0.00000  Uiso   1.00
C61    C     0.31411   0.41549   0.48195   0.00000  Uiso   1.00
C62    C     0.26784   0.43866   0.44334   0.00000  Uiso   1.00
C63    C     0.22341   0.40918   0.47761   0.00000  Uiso   1.00
C64    C     0.39741   0.38795   0.40451   0.00000  Uiso   1.00
C65    C     0.42119   0.38797   0.30078   0.00000  Uiso   1.00
C66    C     0.44690   0.33531   0.26985   0.00000  Uiso   1.00
C67    C     0.39249   0.45435   0.56700   0.00000  Uiso   1.00
C68    C     0.41214   0.51018   0.59989   0.00000  Uiso   1.00
C69    C     0.43372   0.51342   0.70575   0.00000  Uiso   1.00
H70    H     0.37204   0.30753   0.63918   0.00000  Uiso   1.00
H71    H     0.27302   0.29584   0.64107   0.00000  Uiso   1.00
H72    H     0.42635   0.24517   0.49853   0.00000  Uiso   1.00
H73    H     0.41730   0.36736   0.79759   0.00000  Uiso   1.00
H74    H     0.16242   0.30527   0.61210   0.00000  Uiso   1.00
H75    H     0.48575   0.19843   0.31158   0.00000  Uiso   1.00
H76    H     0.46666   0.45610   0.94220   0.00000  Uiso   1.00
H77    H     0.36580   0.48019   0.40014   0.00000  Uiso   1.00
H78    H     0.26643   0.47797   0.38890   0.00000  Uiso   1.00
H79    H     0.41976   0.42730   0.24637   0.00000  Uiso   1.00
H80    H     0.41071   0.54949   0.54543   0.00000  Uiso   1.00
H81    H     0.15707   0.45310   0.40743   0.00000  Uiso   1.00
H82    H     0.48040   0.34626   0.10691   0.00000  Uiso   1.00
H83    H     0.46131   0.60392   0.73753   0.00000  Uiso   1.00
O84    O     0.09449   0.37460   0.50665   0.00000  Uiso   1.00
O85    O     0.51869   0.23443   0.11240   0.00000  Uiso   1.00
O86    O     0.49365   0.57248   0.93976   0.00000  Uiso   1.00
N87    N     0.17480   0.34037   0.56549   0.00000  Uiso   1.00
N88    N     0.47708   0.24048   0.28451   0.00000  Uiso   1.00
N89    N     0.45925   0.48137   0.87408   0.00000  Uiso   1.00
N90    N     0.17192   0.41992   0.45536   0.00000  Uiso   1.00
N91    N     0.47420   0.32002   0.17438   0.00000  Uiso   1.00
N92    N     0.45637   0.56091   0.76395   0.00000  Uiso   1.00
C93    C     0.87061   0.65291   0.91558   0.00000  Uiso   1.00
C94    C     0.81594   0.63532   0.94770   0.00000  Uiso   1.00
C95    C     0.77158   0.66484   0.91337   0.00000  Uiso   1.00
C96    C     0.72526   0.64173   0.95192   0.00000  Uiso   1.00
C97    C     0.64065   0.62215   0.99114   0.00000  Uiso   1.00
C98    C     0.89925   0.66285   0.02515   0.00000  Uiso   1.00
C99    C     0.92493   0.71552   0.05593   0.00000  Uiso   1.00
C100   C     0.94874   0.71559   0.15968   0.00000  Uiso   1.00
C101   C     0.99350   0.73875   0.31910   0.00000  Uiso   1.00
C102   C     0.89432   0.59646   0.86266   0.00000  Uiso   1.00
C103   C     0.91589   0.59331   0.75682   0.00000  Uiso   1.00
C104   C     0.93556   0.53748   0.72377   0.00000  Uiso   1.00
C105   C     0.97267   0.45757   0.63091   0.00000  Uiso   1.00
C106   C     0.86723   0.55937   0.04509   0.00000  Uiso   1.00
C107   C     0.81411   0.58451   0.01805   0.00000  Uiso   1.00
C108   C     0.76784   0.56134   0.05666   0.00000  Uiso   1.00
C109   C     0.72341   0.59082   0.02239   0.00000  Uiso   1.00
C110   C     0.89741   0.61205   0.09549   0.00000  Uiso   1.00
C111   C     0.92119   0.61203   0.19922   0.00000  Uiso   1.00
C112   C     0.94690   0.66469   0.23015   0.00000  Uiso   1.00
C113   C     0.89249   0.54565   0.93300   0.00000  Uiso   1.00
C114   C     0.91214   0.48982   0.90011   0.00000  Uiso   1.00
C115   C     0.93372   0.48658   0.79425   0.00000  Uiso   1.00
H116   H     0.87204   0.69247   0.86082   0.00000  Uiso   1.00
H117   H     0.77302   0.70416   0.85893   0.00000  Uiso   1.00
H118   H     0.92635   0.75483   0.00147   0.00000  Uiso   1.00
H119   H     0.91730   0.63264   0.70241   0.00000  Uiso   1.00
H120   H     0.66242   0.69473   0.88790   0.00000  Uiso   1.00
H121   H     0.98575   0.80157   0.18842   0.00000  Uiso   1.00
H122   H     0.96666   0.54390   0.55780   0.00000  Uiso   1.00
H123   H     0.86580   0.51981   0.09986   0.00000  Uiso   1.00
H124   H     0.76643   0.52203   0.11110   0.00000  Uiso   1.00
H125   H     0.91976   0.57270   0.25363   0.00000  Uiso   1.00
H126   H     0.91071   0.45051   0.95457   0.00000  Uiso   1.00
H127   H     0.65707   0.54690   0.09257   0.00000  Uiso   1.00
H128   H     0.98040   0.65374   0.39309   0.00000  Uiso   1.00
H129   H     0.96131   0.39608   0.76247   0.00000  Uiso   1.00
O130   O     0.59449   0.62540   0.99335   0.00000  Uiso   1.00
O131   O     0.01869   0.76557   0.38760   0.00000  Uiso   1.00
O132   O     0.99365   0.42752   0.56024   0.00000  Uiso   1.00
N133   N     0.67480   0.65963   0.93451   0.00000  Uiso   1.00
N134   N     0.97708   0.75952   0.21549   0.00000  Uiso   1.00
N135   N     0.95925   0.51863   0.62592   0.00000  Uiso   1.00
N136   N     0.67192   0.58008   0.04464   0.00000  Uiso   1.00
N137   N     0.97420   0.67998   0.32562   0.00000  Uiso   1.00
N138   N     0.95637   0.43909   0.73605   0.00000  Uiso   1.00
C139   C     0.62939   0.84709   0.91558   0.00000  Uiso   1.00
C140   C     0.68406   0.86468   0.94770   0.00000  Uiso   1.00
C141   C     0.72842   0.83516   0.91337   0.00000  Uiso   1.00
C142   C     0.77474   0.85827   0.95192   0.00000  Uiso   1.00
C143   C     0.85935   0.87785   0.99114   0.00000  Uiso   1.00
C144   C     0.60075   0.83715   0.02515   0.00000  Uiso   1.00
C145   C     0.57507   0.78448   0.05593   0.00000  Uiso   1.00
C146   C     0.55126   0.78441   0.15968   0.00000  Uiso   1.00
C147   C     0.50650   0.76125   0.31910   0.00000  Uiso   1.00
C148   C     0.60568   0.90354   0.86266   0.00000  Uiso   1.00
C149   C     0.58411   0.90669   0.75682   0.00000  Uiso   1.00
C150   C     0.56444   0.96252   0.72377   0.00000  Uiso   1.00
C151   C     0.52733   0.04243   0.63091   0.00000  Uiso   1.00
C152   C     0.63277   0.94063   0.04509   0.00000  Uiso   1.00
C153   C     0.68589   0.91549   0.01805   0.00000  Uiso   1.00
C154   C     0.73216   0.93866   0.05666   0.00000  Uiso   1.00
C155   C     0.77659   0.90918   0.02239   0.00000  Uiso   1.00
C156   C     0.60259   0.88795   0.09549   0.00000  Uiso   1.00
C157   C     0.57881   0.88797   0.19922   0.00000  Uiso   1.00
C158   C     0.55310   0.83531   0.23015   0.00000  Uiso   1.00
C159   C     0.60751   0.95435   0.93300   0.00000  Uiso   1.00
C160   C     0.58786   0.01018   0.90011   0.00000  Uiso   1.00
C161   C     0.56628   0.01342   0.79425   0.00000  Uiso   1.00
H162   H     0.62796   0.80753   0.86082   0.00000  Uiso   1.00
H163   H     0.72698   0.79584   0.85893   0.00000  Uiso   1.00
H164   H     0.57365   0.74517   0.00147   0.00000  Uiso   1.00
H165   H     0.58270   0.86736   0.70241   0.00000  Uiso   1.00
H166   H     0.83758   0.80527   0.88790   0.00000  Uiso   1.00
H167   H     0.51425   0.69843   0.18842   0.00000  Uiso   1.00
H168   H     0.53334   0.95610   0.55780   0.00000  Uiso   1.00
H169   H     0.63420   0.98019   0.09986   0.00000  Uiso   1.00
H170   H     0.73357   0.97797   0.11110   0.00000  Uiso   1.00
H171   H     0.58024   0.92730   0.25363   0.00000  Uiso   1.00
H172   H     0.58929   0.04949   0.95457   0.00000  Uiso   1.00
H173   H     0.84293   0.95310   0.09257   0.00000  Uiso   1.00
H174   H     0.51960   0.84626   0.39309   0.00000  Uiso   1.00
H175   H     0.53869   0.10392   0.76247   0.00000  Uiso   1.00
O176   O     0.90551   0.87460   0.99335   0.00000  Uiso   1.00
O177   O     0.48131   0.73443   0.38760   0.00000  Uiso   1.00
O178   O     0.50635   0.07248   0.56024   0.00000  Uiso   1.00
N179   N     0.82520   0.84037   0.93451   0.00000  Uiso   1.00
N180   N     0.52292   0.74048   0.21549   0.00000  Uiso   1.00
N181   N     0.54075   0.98137   0.62592   0.00000  Uiso   1.00
N182   N     0.82808   0.91992   0.04464   0.00000  Uiso   1.00
N183   N     0.52580   0.82002   0.32562   0.00000  Uiso   1.00
N184   N     0.54363   0.06091   0.73605   0.00000  Uiso   1.00
C185   C     0.87061   0.84709   0.41558   0.00000  Uiso   1.00
C186   C     0.81594   0.86468   0.44770   0.00000  Uiso   1.00
C187   C     0.77158   0.83516   0.41337   0.00000  Uiso   1.00
C188   C     0.72526   0.85827   0.45192   0.00000  Uiso   1.00
C189   C     0.64065   0.87785   0.49114   0.00000  Uiso   1.00
C190   C     0.89925   0.83715   0.52515   0.00000  Uiso   1.00
C191   C     0.92493   0.78448   0.55593   0.00000  Uiso   1.00
C192   C     0.94874   0.78441   0.65968   0.00000  Uiso   1.00
C193   C     0.99350   0.76125   0.81910   0.00000  Uiso   1.00
C194   C     0.89432   0.90354   0.36266   0.00000  Uiso   1.00
C195   C     0.91589   0.90669   0.25682   0.00000  Uiso   1.00
C196   C     0.93556   0.96252   0.22377   0.00000  Uiso   1.00
C197   C     0.97267   0.04243   0.13091   0.00000  Uiso   1.00
C198   C     0.86723   0.94063   0.54509   0.00000  Uiso   1.00
C199   C     0.81411   0.91549   0.51805   0.00000  Uiso   1.00
C200   C     0.76784   0.93866   0.55666   0.00000  Uiso   1.00
C201   C     0.72341   0.90918   0.52239   0.00000  Uiso   1.00
C202   C     0.89741   0.88795   0.59549   0.00000  Uiso   1.00
C203   C     0.92119   0.88797   0.69922   0.00000  Uiso   1.00
C204   C     0.94690   0.83531   0.73015   0.00000  Uiso   1.00
C205   C     0.89249   0.95435   0.43300   0.00000  Uiso   1.00
C206   C     0.91214   0.01018   0.40011   0.00000  Uiso   1.00
C207   C     0.93372   0.01342   0.29425   0.00000  Uiso   1.00
H208   H     0.87204   0.80753   0.36082   0.00000  Uiso   1.00
H209   H     0.77302   0.79584   0.35893   0.00000  Uiso   1.00
H210   H     0.92635   0.74517   0.50147   0.00000  Uiso   1.00
H211   H     0.91730   0.86736   0.20241   0.00000  Uiso   1.00
H212   H     0.66242   0.80527   0.38790   0.00000  Uiso   1.00
H213   H     0.98575   0.69843   0.68842   0.00000  Uiso   1.00
H214   H     0.96666   0.95610   0.05780   0.00000  Uiso   1.00
H215   H     0.86580   0.98019   0.59986   0.00000  Uiso   1.00
H216   H     0.76643   0.97797   0.61110   0.00000  Uiso   1.00
H217   H     0.91976   0.92730   0.75363   0.00000  Uiso   1.00
H218   H     0.91071   0.04949   0.45457   0.00000  Uiso   1.00
H219   H     0.65707   0.95310   0.59257   0.00000  Uiso   1.00
H220   H     0.98040   0.84626   0.89309   0.00000  Uiso   1.00
H221   H     0.96131   0.10392   0.26247   0.00000  Uiso   1.00
O222   O     0.59449   0.87460   0.49335   0.00000  Uiso   1.00
O223   O     0.01869   0.73443   0.88760   0.00000  Uiso   1.00
O224   O     0.99365   0.07248   0.06024   0.00000  Uiso   1.00
N225   N     0.67480   0.84037   0.43451   0.00000  Uiso   1.00
N226   N     0.97708   0.74048   0.71549   0.00000  Uiso   1.00
N227   N     0.95925   0.98137   0.12592   0.00000  Uiso   1.00
N228   N     0.67192   0.91992   0.54464   0.00000  Uiso   1.00
N229   N     0.97420   0.82002   0.82562   0.00000  Uiso   1.00
N230   N     0.95637   0.06091   0.23605   0.00000  Uiso   1.00
C231   C     0.62939   0.65291   0.41558   0.00000  Uiso   1.00
C232   C     0.68406   0.63532   0.44770   0.00000  Uiso   1.00
C233   C     0.72842   0.66484   0.41337   0.00000  Uiso   1.00
C234   C     0.77474   0.64173   0.45192   0.00000  Uiso   1.00
C235   C     0.85935   0.62215   0.49114   0.00000  Uiso   1.00
C236   C     0.60075   0.66285   0.52515   0.00000  Uiso   1.00
C237   C     0.57507   0.71552   0.55593   0.00000  Uiso   1.00
C238   C     0.55126   0.71559   0.65968   0.00000  Uiso   1.00
C239   C     0.50650   0.73875   0.81910   0.00000  Uiso   1.00
C240   C     0.60568   0.59646   0.36266   0.00000  Uiso   1.00
C241   C     0.58411   0.59331   0.25682   0.00000  Uiso   1.00
C242   C     0.56444   0.53748   0.22377   0.00000  Uiso   1.00
C243   C     0.52733   0.45757   0.13091   0.00000  Uiso   1.00
C244   C     0.63277   0.55937   0.54509   0.00000  Uiso   1.00
C245   C     0.68589   0.58451   0.51805   0.00000  Uiso   1.00
C246   C     0.73216   0.56134   0.55666   0.00000  Uiso   1.00
C247   C     0.77659   0.59082   0.52239   0.00000  Uiso   1.00
C248   C     0.60259   0.61205   0.59549   0.00000  Uiso   1.00
C249   C     0.57881   0.61203   0.69922   0.00000  Uiso   1.00
C250   C     0.55310   0.66469   0.73015   0.00000  Uiso   1.00
C251   C     0.60751   0.54565   0.43300   0.00000  Uiso   1.00
C252   C     0.58786   0.48982   0.40011   0.00000  Uiso   1.00
C253   C     0.56628   0.48658   0.29425   0.00000  Uiso   1.00
H254   H     0.62796   0.69247   0.36082   0.00000  Uiso   1.00
H255   H     0.72698   0.70416   0.35893   0.00000  Uiso   1.00
H256   H     0.57365   0.75483   0.50147   0.00000  Uiso   1.00
H257   H     0.58270   0.63264   0.20241   0.00000  Uiso   1.00
H258   H     0.83758   0.69473   0.38790   0.00000  Uiso   1.00
H259   H     0.51425   0.80157   0.68842   0.00000  Uiso   1.00
H260   H     0.53334   0.54390   0.05780   0.00000  Uiso   1.00
H261   H     0.63420   0.51981   0.59986   0.00000  Uiso   1.00
H262   H     0.73357   0.52203   0.61110   0.00000  Uiso   1.00
H263   H     0.58024   0.57270   0.75363   0.00000  Uiso   1.00
H264   H     0.58929   0.45051   0.45457   0.00000  Uiso   1.00
H265   H     0.84293   0.54690   0.59257   0.00000  Uiso   1.00
H266   H     0.51960   0.65374   0.89309   0.00000  Uiso   1.00
H267   H     0.53869   0.39608   0.26247   0.00000  Uiso   1.00
O268   O     0.90551   0.62540   0.49335   0.00000  Uiso   1.00
O269   O     0.48131   0.76557   0.88760   0.00000  Uiso   1.00
O270   O     0.50635   0.42752   0.06024   0.00000  Uiso   1.00
N271   N     0.82520   0.65963   0.43451   0.00000  Uiso   1.00
N272   N     0.52292   0.75952   0.71549   0.00000  Uiso   1.00
N273   N     0.54075   0.51863   0.12592   0.00000  Uiso   1.00
N274   N     0.82808   0.58008   0.54464   0.00000  Uiso   1.00
N275   N     0.52580   0.67998   0.82562   0.00000  Uiso   1.00
N276   N     0.54363   0.43909   0.23605   0.00000  Uiso   1.00
C277   C     0.12939   0.34709   0.08442   0.00000  Uiso   1.00
C278   C     0.18406   0.36468   0.05230   0.00000  Uiso   1.00
C279   C     0.22842   0.33516   0.08663   0.00000  Uiso   1.00
C280   C     0.27474   0.35827   0.04808   0.00000  Uiso   1.00
C281   C     0.35935   0.37785   0.00886   0.00000  Uiso   1.00
C282   C     0.10075   0.33715   0.97485   0.00000  Uiso   1.00
C283   C     0.07507   0.28448   0.94407   0.00000  Uiso   1.00
C284   C     0.05126   0.28441   0.84032   0.00000  Uiso   1.00
C285   C     0.00650   0.26125   0.68090   0.00000  Uiso   1.00
C286   C     0.10568   0.40354   0.13734   0.00000  Uiso   1.00
C287   C     0.08411   0.40669   0.24318   0.00000  Uiso   1.00
C288   C     0.06444   0.46252   0.27623   0.00000  Uiso   1.00
C289   C     0.02733   0.54243   0.36909   0.00000  Uiso   1.00
C290   C     0.13277   0.44063   0.95491   0.00000  Uiso   1.00
C291   C     0.18589   0.41549   0.98195   0.00000  Uiso   1.00
C292   C     0.23216   0.43866   0.94334   0.00000  Uiso   1.00
C293   C     0.27659   0.40918   0.97761   0.00000  Uiso   1.00
C294   C     0.10259   0.38795   0.90451   0.00000  Uiso   1.00
C295   C     0.07881   0.38797   0.80078   0.00000  Uiso   1.00
C296   C     0.05310   0.33531   0.76985   0.00000  Uiso   1.00
C297   C     0.10751   0.45435   0.06700   0.00000  Uiso   1.00
C298   C     0.08786   0.51018   0.09989   0.00000  Uiso   1.00
C299   C     0.06628   0.51342   0.20575   0.00000  Uiso   1.00
H300   H     0.12796   0.30753   0.13918   0.00000  Uiso   1.00
H301   H     0.22698   0.29584   0.14107   0.00000  Uiso   1.00
H302   H     0.07365   0.24517   0.99853   0.00000  Uiso   1.00
H303   H     0.08270   0.36736   0.29759   0.00000  Uiso   1.00
H304   H     0.33758   0.30527   0.11210   0.00000  Uiso   1.00
H305   H     0.01425   0.19843   0.81158   0.00000  Uiso   1.00
H306   H     0.03334   0.45610   0.44220   0.00000  Uiso   1.00
H307   H     0.13420   0.48019   0.90014   0.00000  Uiso   1.00
H308   H     0.23357   0.47797   0.88890   0.00000  Uiso   1.00
H309   H     0.08024   0.42730   0.74637   0.00000  Uiso   1.00
H310   H     0.08929   0.54949   0.04543   0.00000  Uiso   1.00
H311   H     0.34293   0.45310   0.90743   0.00000  Uiso   1.00
H312   H     0.01960   0.34626   0.60691   0.00000  Uiso   1.00
H313   H     0.03869   0.60392   0.23753   0.00000  Uiso   1.00
O314   O     0.40551   0.37460   0.00665   0.00000  Uiso   1.00
O315   O     0.98131   0.23443   0.61240   0.00000  Uiso   1.00
O316   O     0.00635   0.57248   0.43976   0.00000  Uiso   1.00
N317   N     0.32520   0.34037   0.06549   0.00000  Uiso   1.00
N318   N     0.02292   0.24048   0.78451   0.00000  Uiso   1.00
N319   N     0.04075   0.48137   0.37408   0.00000  Uiso   1.00
N320   N     0.32808   0.41992   0.95536   0.00000  Uiso   1.00
N321   N     0.02580   0.32002   0.67438   0.00000  Uiso   1.00
N322   N     0.04363   0.56091   0.26395   0.00000  Uiso   1.00
C323   C     0.37061   0.15291   0.08442   0.00000  Uiso   1.00
C324   C     0.31594   0.13532   0.05230   0.00000  Uiso   1.00
C325   C     0.27158   0.16484   0.08663   0.00000  Uiso   1.00
C326   C     0.22526   0.14173   0.04808   0.00000  Uiso   1.00
C327   C     0.14065   0.12215   0.00886   0.00000  Uiso   1.00
C328   C     0.39925   0.16285   0.97485   0.00000  Uiso   1.00
C329   C     0.42493   0.21552   0.94407   0.00000  Uiso   1.00
C330   C     0.44874   0.21559   0.84032   0.00000  Uiso   1.00
C331   C     0.49350   0.23875   0.68090   0.00000  Uiso   1.00
C332   C     0.39432   0.09646   0.13734   0.00000  Uiso   1.00
C333   C     0.41589   0.09331   0.24318   0.00000  Uiso   1.00
C334   C     0.43556   0.03748   0.27623   0.00000  Uiso   1.00
C335   C     0.47267   0.95757   0.36909   0.00000  Uiso   1.00
C336   C     0.36723   0.05937   0.95491   0.00000  Uiso   1.00
C337   C     0.31411   0.08451   0.98195   0.00000  Uiso   1.00
C338   C     0.26784   0.06134   0.94334   0.00000  Uiso   1.00
C339   C     0.22341   0.09082   0.97761   0.00000  Uiso   1.00
C340   C     0.39741   0.11205   0.90451   0.00000  Uiso   1.00
C341   C     0.42119   0.11203   0.80078   0.00000  Uiso   1.00
C342   C     0.44690   0.16469   0.76985   0.00000  Uiso   1.00
C343   C     0.39249   0.04565   0.06700   0.00000  Uiso   1.00
C344   C     0.41214   0.98982   0.09989   0.00000  Uiso   1.00
C345   C     0.43372   0.98658   0.20575   0.00000  Uiso   1.00
H346   H     0.37204   0.19247   0.13918   0.00000  Uiso   1.00
H347   H     0.27302   0.20416   0.14107   0.00000  Uiso   1.00
H348   H     0.42635   0.25483   0.99853   0.00000  Uiso   1.00
H349   H     0.41730   0.13264   0.29759   0.00000  Uiso   1.00
H350   H     0.16242   0.19473   0.11210   0.00000  Uiso   1.00
H351   H     0.48575   0.30157   0.81158   0.00000  Uiso   1.00
H352   H     0.46666   0.04390   0.44220   0.00000  Uiso   1.00
H353   H     0.36580   0.01981   0.90014   0.00000  Uiso   1.00
H354   H     0.26643   0.02203   0.88890   0.00000  Uiso   1.00
H355   H     0.41976   0.07270   0.74637   0.00000  Uiso   1.00
H356   H     0.41071   0.95051   0.04543   0.00000  Uiso   1.00
H357   H     0.15707   0.04690   0.90743   0.00000  Uiso   1.00
H358   H     0.48040   0.15374   0.60691   0.00000  Uiso   1.00
H359   H     0.46131   0.89608   0.23753   0.00000  Uiso   1.00
O360   O     0.09449   0.12540   0.00665   0.00000  Uiso   1.00
O361   O     0.51869   0.26557   0.61240   0.00000  Uiso   1.00
O362   O     0.49365   0.92752   0.43976   0.00000  Uiso   1.00
N363   N     0.17480   0.15963   0.06549   0.00000  Uiso   1.00
N364   N     0.47708   0.25952   0.78451   0.00000  Uiso   1.00
N365   N     0.45925   0.01863   0.37408   0.00000  Uiso   1.00
N366   N     0.17192   0.08008   0.95536   0.00000  Uiso   1.00
N367   N     0.47420   0.17998   0.67438   0.00000  Uiso   1.00
N368   N     0.45637   0.93909   0.26395   0.00000  Uiso   1.00
