data_job_06356
_audit_creation_date              2018-12-19
_audit_creation_method            'Materials Studio'
_symmetry_space_group_name_H-M    'P1'
_symmetry_Int_Tables_number       1
_symmetry_cell_setting            triclinic
loop_
_symmetry_equiv_pos_as_xyz
  x,y,z
_cell_length_a                    16.2860
_cell_length_b                    18.2323
_cell_length_c                    18.4386
_cell_angle_alpha                 111.7380
_cell_angle_beta                  72.4134
_cell_angle_gamma                 73.8630
loop_
_atom_site_label
_atom_site_type_symbol
_atom_site_fract_x
_atom_site_fract_y
_atom_site_fract_z
_atom_site_U_iso_or_equiv
_atom_site_adp_type
_atom_site_occupancy
C1     C     0.01331   0.46323   0.78305   0.00000  Uiso   1.00
C2     C     0.92385   0.52155   0.87129   0.00000  Uiso   1.00
C3     C     0.88571   0.49460   0.92923   0.00000  Uiso   1.00
C4     C     0.80343   0.55793   0.00656   0.00000  Uiso   1.00
C5     C     0.67097   0.63522   0.14072   0.00000  Uiso   1.00
C6     C     0.98195   0.47108   0.71519   0.00000  Uiso   1.00
C7     C     0.99267   0.40171   0.64187   0.00000  Uiso   1.00
C8     C     0.95931   0.42256   0.58778   0.00000  Uiso   1.00
C9     C     0.91710   0.42150   0.47955   0.00000  Uiso   1.00
C10    C     0.08048   0.50698   0.78618   0.00000  Uiso   1.00
C11    C     0.17406   0.46777   0.77252   0.00000  Uiso   1.00
C12    C     0.22367   0.51884   0.77818   0.00000  Uiso   1.00
C13    C     0.33445   0.57351   0.78018   0.00000  Uiso   1.00
C14    C     0.93503   0.62363   0.81735   0.00000  Uiso   1.00
C15    C     0.88133   0.60867   0.88992   0.00000  Uiso   1.00
C16    C     0.79910   0.67206   0.96718   0.00000  Uiso   1.00
C17    C     0.76084   0.64521   0.02522   0.00000  Uiso   1.00
C18    C     0.93943   0.55820   0.73382   0.00000  Uiso   1.00
C19    C     0.90606   0.57917   0.67982   0.00000  Uiso   1.00
C20    C     0.91671   0.50984   0.60645   0.00000  Uiso   1.00
C21    C     0.03797   0.59410   0.80481   0.00000  Uiso   1.00
C22    C     0.08745   0.64524   0.81048   0.00000  Uiso   1.00
C23    C     0.18107   0.60612   0.79685   0.00000  Uiso   1.00
H24    H     0.04641   0.39540   0.76854   0.00000  Uiso   1.00
H25    H     0.91863   0.42717   0.91478   0.00000  Uiso   1.00
H26    H     0.02558   0.33429   0.62746   0.00000  Uiso   1.00
H27    H     0.20694   0.40035   0.75810   0.00000  Uiso   1.00
H28    H     0.75818   0.50080   0.08512   0.00000  Uiso   1.00
H29    H     0.98372   0.30497   0.47928   0.00000  Uiso   1.00
H30    H     0.36616   0.44426   0.75476   0.00000  Uiso   1.00
H31    H     0.90193   0.69146   0.83186   0.00000  Uiso   1.00
H32    H     0.76621   0.73948   0.98158   0.00000  Uiso   1.00
H33    H     0.87317   0.64659   0.69426   0.00000  Uiso   1.00
H34    H     0.05452   0.71265   0.82490   0.00000  Uiso   1.00
H35    H     0.63447   0.75428   0.13934   0.00000  Uiso   1.00
H36    H     0.86002   0.55844   0.53349   0.00000  Uiso   1.00
H37    H     0.24245   0.69774   0.80898   0.00000  Uiso   1.00
O38    O     0.60964   0.65378   0.20956   0.00000  Uiso   1.00
O39    O     0.90556   0.39685   0.41471   0.00000  Uiso   1.00
O40    O     0.40730   0.57960   0.77614   0.00000  Uiso   1.00
N41    N     0.74770   0.55388   0.07734   0.00000  Uiso   1.00
N42    N     0.95856   0.37078   0.51092   0.00000  Uiso   1.00
N43    N     0.31611   0.50100   0.76845   0.00000  Uiso   1.00
N44    N     0.68114   0.69027   0.10651   0.00000  Uiso   1.00
N45    N     0.89199   0.50717   0.54009   0.00000  Uiso   1.00
N46    N     0.24955   0.63739   0.79762   0.00000  Uiso   1.00
C47    C     0.79775   0.21790   0.68029   0.00000  Uiso   1.00
C48    C     0.79563   0.12877   0.65079   0.00000  Uiso   1.00
C49    C     0.81554   0.07058   0.56658   0.00000  Uiso   1.00
C50    C     0.80967   0.99242   0.55288   0.00000  Uiso   1.00
C51    C     0.81012   0.85696   0.49672   0.00000  Uiso   1.00
C52    C     0.69875   0.28516   0.75603   0.00000  Uiso   1.00
C53    C     0.63721   0.35846   0.76031   0.00000  Uiso   1.00
C54    C     0.54979   0.41194   0.83521   0.00000  Uiso   1.00
C55    C     0.39985   0.51931   0.94246   0.00000  Uiso   1.00
C56    C     0.86745   0.21556   0.72000   0.00000  Uiso   1.00
C57    C     0.94775   0.23037   0.69401   0.00000  Uiso   1.00
C58    C     0.00236   0.22527   0.73860   0.00000  Uiso   1.00
C59    C     0.11437   0.22459   0.78991   0.00000  Uiso   1.00
C60    C     0.75192   0.18257   0.80570   0.00000  Uiso   1.00
C61    C     0.77074   0.10959   0.71891   0.00000  Uiso   1.00
C62    C     0.76484   0.03148   0.70533   0.00000  Uiso   1.00
C63    C     0.78474   0.97318   0.62112   0.00000  Uiso   1.00
C64    C     0.67385   0.26597   0.82415   0.00000  Uiso   1.00
C65    C     0.58651   0.31936   0.89906   0.00000  Uiso   1.00
C66    C     0.52485   0.39271   0.90346   0.00000  Uiso   1.00
C67    C     0.84257   0.19637   0.78812   0.00000  Uiso   1.00
C68    C     0.89705   0.19126   0.83276   0.00000  Uiso   1.00
C69    C     0.97743   0.20605   0.80684   0.00000  Uiso   1.00
H70    H     0.81712   0.23285   0.62726   0.00000  Uiso   1.00
H71    H     0.83479   0.08546   0.51388   0.00000  Uiso   1.00
H72    H     0.65649   0.37330   0.70758   0.00000  Uiso   1.00
H73    H     0.96699   0.24522   0.64129   0.00000  Uiso   1.00
H74    H     0.84338   0.91361   0.41823   0.00000  Uiso   1.00
H75    H     0.46743   0.52053   0.82668   0.00000  Uiso   1.00
H76    H     0.12218   0.25046   0.68689   0.00000  Uiso   1.00
H77    H     0.73254   0.16762   0.85874   0.00000  Uiso   1.00
H78    H     0.74558   0.01665   0.75806   0.00000  Uiso   1.00
H79    H     0.56727   0.30449   0.95177   0.00000  Uiso   1.00
H80    H     0.87777   0.17641   0.88547   0.00000  Uiso   1.00
H81    H     0.77096   0.85776   0.61642   0.00000  Uiso   1.00
H82    H     0.39502   0.46469   0.02487   0.00000  Uiso   1.00
H83    H     0.04976   0.19461   0.88508   0.00000  Uiso   1.00
O84    O     0.81724   0.78756   0.44692   0.00000  Uiso   1.00
O85    O     0.32402   0.58383   0.98280   0.00000  Uiso   1.00
O86    O     0.18304   0.22950   0.79939   0.00000  Uiso   1.00
N87    N     0.82456   0.92117   0.47868   0.00000  Uiso   1.00
N88    N     0.47307   0.48861   0.86055   0.00000  Uiso   1.00
N89    N     0.08519   0.23613   0.72988   0.00000  Uiso   1.00
N90    N     0.78560   0.89112   0.58533   0.00000  Uiso   1.00
N91    N     0.43411   0.45856   0.96720   0.00000  Uiso   1.00
N92    N     0.04623   0.20608   0.83652   0.00000  Uiso   1.00
C93    C     0.47780   0.31973   0.53677   0.00000  Uiso   1.00
C94    C     0.44731   0.34921   0.47786   0.00000  Uiso   1.00
C95    C     0.38398   0.43347   0.50401   0.00000  Uiso   1.00
C96    C     0.36536   0.44714   0.44024   0.00000  Uiso   1.00
C97    C     0.31141   0.50328   0.36198   0.00000  Uiso   1.00
C98    C     0.45360   0.24294   0.52868   0.00000  Uiso   1.00
C99    C     0.39557   0.23783   0.59756   0.00000  Uiso   1.00
C100   C     0.38226   0.16204   0.57656   0.00000  Uiso   1.00
C101   C     0.33812   0.05316   0.57720   0.00000  Uiso   1.00
C102   C     0.58700   0.28100   0.49427   0.00000  Uiso   1.00
C103   C     0.64114   0.30788   0.53424   0.00000  Uiso   1.00
C104   C     0.74014   0.26411   0.48427   0.00000  Uiso   1.00
C105   C     0.90313   0.21433   0.43150   0.00000  Uiso   1.00
C106   C     0.55734   0.19418   0.37698   0.00000  Uiso   1.00
C107   C     0.49051   0.28102   0.39107   0.00000  Uiso   1.00
C108   C     0.47199   0.29457   0.32723   0.00000  Uiso   1.00
C109   C     0.40865   0.37882   0.35329   0.00000  Uiso   1.00
C110   C     0.49680   0.17475   0.44189   0.00000  Uiso   1.00
C111   C     0.48358   0.09894   0.42078   0.00000  Uiso   1.00
C112   C     0.42554   0.09372   0.48962   0.00000  Uiso   1.00
C113   C     0.63020   0.21281   0.40748   0.00000  Uiso   1.00
C114   C     0.72914   0.16899   0.35745   0.00000  Uiso   1.00
C115   C     0.78343   0.19580   0.39733   0.00000  Uiso   1.00
H116   H     0.44416   0.37281   0.60434   0.00000  Uiso   1.00
H117   H     0.35055   0.48622   0.57119   0.00000  Uiso   1.00
H118   H     0.36215   0.29061   0.66472   0.00000  Uiso   1.00
H119   H     0.60768   0.36065   0.60140   0.00000  Uiso   1.00
H120   H     0.26580   0.58187   0.49617   0.00000  Uiso   1.00
H121   H     0.29028   0.16941   0.69339   0.00000  Uiso   1.00
H122   H     0.80803   0.31710   0.55987   0.00000  Uiso   1.00
H123   H     0.59098   0.14109   0.30942   0.00000  Uiso   1.00
H124   H     0.50543   0.24178   0.26008   0.00000  Uiso   1.00
H125   H     0.51703   0.04618   0.35361   0.00000  Uiso   1.00
H126   H     0.76255   0.11622   0.29029   0.00000  Uiso   1.00
H127   H     0.39150   0.38347   0.24366   0.00000  Uiso   1.00
H128   H     0.41598   0.97101   0.44089   0.00000  Uiso   1.00
H129   H     0.93373   0.11871   0.30736   0.00000  Uiso   1.00
O130   O     0.26970   0.55308   0.34279   0.00000  Uiso   1.00
O131   O     0.30183   0.01195   0.60154   0.00000  Uiso   1.00
O132   O     0.98110   0.20572   0.42636   0.00000  Uiso   1.00
N133   N     0.30714   0.52136   0.44351   0.00000  Uiso   1.00
N134   N     0.33001   0.13574   0.62790   0.00000  Uiso   1.00
N135   N     0.81406   0.27381   0.50307   0.00000  Uiso   1.00
N136   N     0.37478   0.41461   0.30764   0.00000  Uiso   1.00
N137   N     0.39765   0.02899   0.49202   0.00000  Uiso   1.00
N138   N     0.88170   0.16705   0.36720   0.00000  Uiso   1.00
C139   C     0.98669   0.53677   0.21695   0.00000  Uiso   1.00
C140   C     0.07615   0.47845   0.12871   0.00000  Uiso   1.00
C141   C     0.11429   0.50540   0.07077   0.00000  Uiso   1.00
C142   C     0.19657   0.44207   0.99344   0.00000  Uiso   1.00
C143   C     0.32903   0.36478   0.85928   0.00000  Uiso   1.00
C144   C     0.01805   0.52892   0.28481   0.00000  Uiso   1.00
C145   C     0.00733   0.59829   0.35813   0.00000  Uiso   1.00
C146   C     0.04069   0.57743   0.41222   0.00000  Uiso   1.00
C147   C     0.08290   0.57850   0.52045   0.00000  Uiso   1.00
C148   C     0.91952   0.49302   0.21382   0.00000  Uiso   1.00
C149   C     0.82594   0.53223   0.22748   0.00000  Uiso   1.00
C150   C     0.77633   0.48115   0.22182   0.00000  Uiso   1.00
C151   C     0.66555   0.42649   0.21982   0.00000  Uiso   1.00
C152   C     0.06497   0.37637   0.18265   0.00000  Uiso   1.00
C153   C     0.11867   0.39133   0.11008   0.00000  Uiso   1.00
C154   C     0.20090   0.32794   0.03282   0.00000  Uiso   1.00
C155   C     0.23916   0.35479   0.97478   0.00000  Uiso   1.00
C156   C     0.06057   0.44180   0.26618   0.00000  Uiso   1.00
C157   C     0.09394   0.42083   0.32018   0.00000  Uiso   1.00
C158   C     0.08329   0.49016   0.39355   0.00000  Uiso   1.00
C159   C     0.96203   0.40590   0.19519   0.00000  Uiso   1.00
C160   C     0.91255   0.35476   0.18952   0.00000  Uiso   1.00
C161   C     0.81893   0.39388   0.20315   0.00000  Uiso   1.00
H162   H     0.95359   0.60460   0.23146   0.00000  Uiso   1.00
H163   H     0.08137   0.57283   0.08522   0.00000  Uiso   1.00
H164   H     0.97442   0.66571   0.37254   0.00000  Uiso   1.00
H165   H     0.79306   0.59965   0.24190   0.00000  Uiso   1.00
H166   H     0.24182   0.49919   0.91488   0.00000  Uiso   1.00
H167   H     0.01628   0.69503   0.52072   0.00000  Uiso   1.00
H168   H     0.63384   0.55574   0.24524   0.00000  Uiso   1.00
H169   H     0.09807   0.30854   0.16814   0.00000  Uiso   1.00
H170   H     0.23379   0.26052   0.01842   0.00000  Uiso   1.00
H171   H     0.12683   0.35341   0.30574   0.00000  Uiso   1.00
H172   H     0.94548   0.28735   0.17510   0.00000  Uiso   1.00
H173   H     0.36553   0.24572   0.86066   0.00000  Uiso   1.00
H174   H     0.13998   0.44156   0.46651   0.00000  Uiso   1.00
H175   H     0.75755   0.30226   0.19102   0.00000  Uiso   1.00
O176   O     0.39036   0.34622   0.79044   0.00000  Uiso   1.00
O177   O     0.09444   0.60315   0.58529   0.00000  Uiso   1.00
O178   O     0.59270   0.42040   0.22386   0.00000  Uiso   1.00
N179   N     0.25230   0.44612   0.92266   0.00000  Uiso   1.00
N180   N     0.04144   0.62922   0.48908   0.00000  Uiso   1.00
N181   N     0.68389   0.49900   0.23155   0.00000  Uiso   1.00
N182   N     0.31886   0.30973   0.89349   0.00000  Uiso   1.00
N183   N     0.10801   0.49283   0.45991   0.00000  Uiso   1.00
N184   N     0.75045   0.36261   0.20238   0.00000  Uiso   1.00
C185   C     0.20225   0.78210   0.31971   0.00000  Uiso   1.00
C186   C     0.20437   0.87122   0.34921   0.00000  Uiso   1.00
C187   C     0.18446   0.92942   0.43342   0.00000  Uiso   1.00
C188   C     0.19033   0.00758   0.44712   0.00000  Uiso   1.00
C189   C     0.18988   0.14304   0.50328   0.00000  Uiso   1.00
C190   C     0.30125   0.71484   0.24397   0.00000  Uiso   1.00
C191   C     0.36279   0.64154   0.23969   0.00000  Uiso   1.00
C192   C     0.45021   0.58806   0.16479   0.00000  Uiso   1.00
C193   C     0.60014   0.48069   0.05754   0.00000  Uiso   1.00
C194   C     0.13255   0.78444   0.28000   0.00000  Uiso   1.00
C195   C     0.05225   0.76963   0.30599   0.00000  Uiso   1.00
C196   C     0.99764   0.77472   0.26140   0.00000  Uiso   1.00
C197   C     0.88563   0.77541   0.21009   0.00000  Uiso   1.00
C198   C     0.24808   0.81743   0.19429   0.00000  Uiso   1.00
C199   C     0.22926   0.89041   0.28109   0.00000  Uiso   1.00
C200   C     0.23516   0.96852   0.29467   0.00000  Uiso   1.00
C201   C     0.21526   0.02682   0.37888   0.00000  Uiso   1.00
C202   C     0.32615   0.73403   0.17585   0.00000  Uiso   1.00
C203   C     0.41349   0.68064   0.10094   0.00000  Uiso   1.00
C204   C     0.47515   0.60729   0.09654   0.00000  Uiso   1.00
C205   C     0.15743   0.80363   0.21188   0.00000  Uiso   1.00
C206   C     0.10295   0.80874   0.16724   0.00000  Uiso   1.00
C207   C     0.02257   0.79395   0.19316   0.00000  Uiso   1.00
H208   H     0.18288   0.76715   0.37274   0.00000  Uiso   1.00
H209   H     0.16521   0.91454   0.48612   0.00000  Uiso   1.00
H210   H     0.34351   0.62670   0.29242   0.00000  Uiso   1.00
H211   H     0.03301   0.75478   0.35871   0.00000  Uiso   1.00
H212   H     0.15662   0.08639   0.58177   0.00000  Uiso   1.00
H213   H     0.53257   0.47947   0.17332   0.00000  Uiso   1.00
H214   H     0.87782   0.74954   0.31311   0.00000  Uiso   1.00
H215   H     0.26746   0.83237   0.14126   0.00000  Uiso   1.00
H216   H     0.25442   0.98335   0.24194   0.00000  Uiso   1.00
H217   H     0.43273   0.69551   0.04823   0.00000  Uiso   1.00
H218   H     0.12223   0.82359   0.11453   0.00000  Uiso   1.00
H219   H     0.22904   0.14224   0.38358   0.00000  Uiso   1.00
H220   H     0.60498   0.53531   0.97513   0.00000  Uiso   1.00
H221   H     0.95023   0.80539   0.11492   0.00000  Uiso   1.00
O222   O     0.18276   0.21244   0.55308   0.00000  Uiso   1.00
O223   O     0.67598   0.41617   0.01720   0.00000  Uiso   1.00
O224   O     0.81696   0.77050   0.20061   0.00000  Uiso   1.00
N225   N     0.17544   0.07883   0.52132   0.00000  Uiso   1.00
N226   N     0.52693   0.51139   0.13945   0.00000  Uiso   1.00
N227   N     0.91481   0.76387   0.27012   0.00000  Uiso   1.00
N228   N     0.21440   0.10888   0.41467   0.00000  Uiso   1.00
N229   N     0.56589   0.54144   0.03280   0.00000  Uiso   1.00
N230   N     0.95377   0.79392   0.16348   0.00000  Uiso   1.00
C231   C     0.52220   0.68027   0.46323   0.00000  Uiso   1.00
C232   C     0.55269   0.65079   0.52214   0.00000  Uiso   1.00
C233   C     0.61602   0.56653   0.49599   0.00000  Uiso   1.00
C234   C     0.63464   0.55286   0.55976   0.00000  Uiso   1.00
C235   C     0.68859   0.49672   0.63802   0.00000  Uiso   1.00
C236   C     0.54640   0.75706   0.47132   0.00000  Uiso   1.00
C237   C     0.60443   0.76216   0.40244   0.00000  Uiso   1.00
C238   C     0.61774   0.83796   0.42344   0.00000  Uiso   1.00
C239   C     0.66188   0.94684   0.42280   0.00000  Uiso   1.00
C240   C     0.41300   0.71900   0.50573   0.00000  Uiso   1.00
C241   C     0.35886   0.69212   0.46576   0.00000  Uiso   1.00
C242   C     0.25986   0.73589   0.51573   0.00000  Uiso   1.00
C243   C     0.09687   0.78567   0.56850   0.00000  Uiso   1.00
C244   C     0.44266   0.80581   0.62302   0.00000  Uiso   1.00
C245   C     0.50949   0.71898   0.60893   0.00000  Uiso   1.00
C246   C     0.52801   0.70543   0.67277   0.00000  Uiso   1.00
C247   C     0.59135   0.62117   0.64671   0.00000  Uiso   1.00
C248   C     0.50320   0.82525   0.55811   0.00000  Uiso   1.00
C249   C     0.51642   0.90106   0.57922   0.00000  Uiso   1.00
C250   C     0.57446   0.90628   0.51038   0.00000  Uiso   1.00
C251   C     0.36980   0.78719   0.59252   0.00000  Uiso   1.00
C252   C     0.27086   0.83101   0.64255   0.00000  Uiso   1.00
C253   C     0.21657   0.80420   0.60267   0.00000  Uiso   1.00
H254   H     0.55584   0.62718   0.39566   0.00000  Uiso   1.00
H255   H     0.64945   0.51378   0.42881   0.00000  Uiso   1.00
H256   H     0.63785   0.70939   0.33528   0.00000  Uiso   1.00
H257   H     0.39232   0.63935   0.39860   0.00000  Uiso   1.00
H258   H     0.73420   0.41813   0.50383   0.00000  Uiso   1.00
H259   H     0.70972   0.83059   0.30661   0.00000  Uiso   1.00
H260   H     0.19197   0.68290   0.44013   0.00000  Uiso   1.00
H261   H     0.40902   0.85891   0.69058   0.00000  Uiso   1.00
H262   H     0.49457   0.75822   0.73992   0.00000  Uiso   1.00
H263   H     0.48297   0.95382   0.64639   0.00000  Uiso   1.00
H264   H     0.23745   0.88378   0.70971   0.00000  Uiso   1.00
H265   H     0.60850   0.61653   0.75634   0.00000  Uiso   1.00
H266   H     0.58402   0.02899   0.55911   0.00000  Uiso   1.00
H267   H     0.06627   0.88129   0.69264   0.00000  Uiso   1.00
O268   O     0.73030   0.44692   0.65721   0.00000  Uiso   1.00
O269   O     0.69817   0.98805   0.39846   0.00000  Uiso   1.00
O270   O     0.01890   0.79428   0.57364   0.00000  Uiso   1.00
N271   N     0.69286   0.47864   0.55649   0.00000  Uiso   1.00
N272   N     0.66999   0.86426   0.37210   0.00000  Uiso   1.00
N273   N     0.18594   0.72619   0.49693   0.00000  Uiso   1.00
N274   N     0.62522   0.58539   0.69236   0.00000  Uiso   1.00
N275   N     0.60235   0.97101   0.50797   0.00000  Uiso   1.00
N276   N     0.11830   0.83295   0.63280   0.00000  Uiso   1.00
