data_job_02834
_audit_creation_date              2018-12-19
_audit_creation_method            'Materials Studio'
_symmetry_space_group_name_H-M    'P1'
_symmetry_Int_Tables_number       1
_symmetry_cell_setting            triclinic
loop_
_symmetry_equiv_pos_as_xyz
  x,y,z
_cell_length_a                    36.9599
_cell_length_b                    7.7002
_cell_length_c                    34.8086
_cell_angle_alpha                 90.0000
_cell_angle_beta                  163.7545
_cell_angle_gamma                 90.0000
loop_
_atom_site_label
_atom_site_type_symbol
_atom_site_fract_x
_atom_site_fract_y
_atom_site_fract_z
_atom_site_U_iso_or_equiv
_atom_site_adp_type
_atom_site_occupancy
C1     C     0.60992   0.42495   0.51247   0.00000  Uiso   1.00
C2     C     0.69423   0.41438   0.63429   0.00000  Uiso   1.00
C3     C     0.71763   0.54919   0.68367   0.00000  Uiso   1.00
C4     C     0.79754   0.51337   0.79619   0.00000  Uiso   1.00
C5     C     0.92022   0.52204   0.97613   0.00000  Uiso   1.00
C6     C     0.69598   0.36984   0.56678   0.00000  Uiso   1.00
C7     C     0.72082   0.46720   0.55938   0.00000  Uiso   1.00
C8     C     0.80219   0.39386   0.61505   0.00000  Uiso   1.00
C9     C     0.92750   0.33334   0.69008   0.00000  Uiso   1.00
C10    C     0.50828   0.28274   0.41311   0.00000  Uiso   1.00
C11    C     0.37531   0.30684   0.27649   0.00000  Uiso   1.00
C12    C     0.29865   0.16016   0.20277   0.00000  Uiso   1.00
C13    C     0.13255   0.96440   0.03921   0.00000  Uiso   1.00
C14    C     0.71021   0.12158   0.62447   0.00000  Uiso   1.00
C15    C     0.74871   0.24960   0.69513   0.00000  Uiso   1.00
C16    C     0.82860   0.21355   0.80759   0.00000  Uiso   1.00
C17    C     0.85211   0.34829   0.85713   0.00000  Uiso   1.00
C18    C     0.75045   0.20507   0.62761   0.00000  Uiso   1.00
C19    C     0.83179   0.13156   0.68330   0.00000  Uiso   1.00
C20    C     0.85676   0.22879   0.67599   0.00000  Uiso   1.00
C21    C     0.56276   0.11796   0.47394   0.00000  Uiso   1.00
C22    C     0.48628   0.97121   0.40042   0.00000  Uiso   1.00
C23    C     0.35322   0.99509   0.26371   0.00000  Uiso   1.00
H24    H     0.56751   0.55323   0.46511   0.00000  Uiso   1.00
H25    H     0.67546   0.67670   0.63657   0.00000  Uiso   1.00
H26    H     0.67865   0.59470   0.51228   0.00000  Uiso   1.00
H27    H     0.33319   0.43437   0.22945   0.00000  Uiso   1.00
H28    H     0.81922   0.74093   0.85353   0.00000  Uiso   1.00
H29    H     0.82589   0.56802   0.59142   0.00000  Uiso   1.00
H30    H     0.09743   0.22994   0.99499   0.00000  Uiso   1.00
H31    H     0.75262   0.99329   0.67184   0.00000  Uiso   1.00
H32    H     0.87074   0.08603   0.85465   0.00000  Uiso   1.00
H33    H     0.87392   0.00404   0.73036   0.00000  Uiso   1.00
H34    H     0.52847   0.84372   0.44753   0.00000  Uiso   1.00
H35    H     0.97771   0.26153   0.03054   0.00000  Uiso   1.00
H36    H     0.98438   0.08862   0.76842   0.00000  Uiso   1.00
H37    H     0.25593   0.75054   0.17200   0.00000  Uiso   1.00
O38    O     0.97286   0.57236   0.05859   0.00000  Uiso   1.00
O39    O     0.98159   0.34549   0.71468   0.00000  Uiso   1.00
O40    O     0.02588   0.90194   0.93220   0.00000  Uiso   1.00
N41    N     0.84029   0.61537   0.87009   0.00000  Uiso   1.00
N42    N     0.84654   0.45372   0.62504   0.00000  Uiso   1.00
N43    N     0.16550   0.13764   0.06743   0.00000  Uiso   1.00
N44    N     0.92557   0.35740   0.96533   0.00000  Uiso   1.00
N45    N     0.93183   0.19575   0.72029   0.00000  Uiso   1.00
N46    N     0.25078   0.87967   0.16267   0.00000  Uiso   1.00
C47    C     0.39008   0.92495   0.98753   0.00000  Uiso   1.00
C48    C     0.30577   0.91438   0.86571   0.00000  Uiso   1.00
C49    C     0.28237   0.04919   0.81633   0.00000  Uiso   1.00
C50    C     0.20246   0.01337   0.70381   0.00000  Uiso   1.00
C51    C     0.07978   0.02204   0.52387   0.00000  Uiso   1.00
C52    C     0.30402   0.86984   0.93322   0.00000  Uiso   1.00
C53    C     0.27918   0.96720   0.94062   0.00000  Uiso   1.00
C54    C     0.19781   0.89386   0.88495   0.00000  Uiso   1.00
C55    C     0.07250   0.83334   0.80992   0.00000  Uiso   1.00
C56    C     0.49172   0.78274   0.08689   0.00000  Uiso   1.00
C57    C     0.62469   0.80684   0.22351   0.00000  Uiso   1.00
C58    C     0.70135   0.66016   0.29723   0.00000  Uiso   1.00
C59    C     0.86745   0.46440   0.46079   0.00000  Uiso   1.00
C60    C     0.28979   0.62158   0.87553   0.00000  Uiso   1.00
C61    C     0.25129   0.74960   0.80487   0.00000  Uiso   1.00
C62    C     0.17140   0.71355   0.69241   0.00000  Uiso   1.00
C63    C     0.14789   0.84829   0.64287   0.00000  Uiso   1.00
C64    C     0.24955   0.70507   0.87239   0.00000  Uiso   1.00
C65    C     0.16821   0.63156   0.81670   0.00000  Uiso   1.00
C66    C     0.14324   0.72879   0.82401   0.00000  Uiso   1.00
C67    C     0.43724   0.61796   0.02606   0.00000  Uiso   1.00
C68    C     0.51372   0.47121   0.09958   0.00000  Uiso   1.00
C69    C     0.64678   0.49509   0.23629   0.00000  Uiso   1.00
H70    H     0.43249   0.05323   0.03489   0.00000  Uiso   1.00
H71    H     0.32454   0.17670   0.86343   0.00000  Uiso   1.00
H72    H     0.32135   0.09470   0.98772   0.00000  Uiso   1.00
H73    H     0.66681   0.93437   0.27055   0.00000  Uiso   1.00
H74    H     0.18078   0.24093   0.64647   0.00000  Uiso   1.00
H75    H     0.17411   0.06802   0.90858   0.00000  Uiso   1.00
H76    H     0.90257   0.72994   0.50501   0.00000  Uiso   1.00
H77    H     0.24738   0.49329   0.82816   0.00000  Uiso   1.00
H78    H     0.12926   0.58603   0.64535   0.00000  Uiso   1.00
H79    H     0.12608   0.50404   0.76964   0.00000  Uiso   1.00
H80    H     0.47153   0.34372   0.05247   0.00000  Uiso   1.00
H81    H     0.02229   0.76153   0.46946   0.00000  Uiso   1.00
H82    H     0.01562   0.58862   0.73158   0.00000  Uiso   1.00
H83    H     0.74407   0.25054   0.32800   0.00000  Uiso   1.00
O84    O     0.02714   0.07236   0.44141   0.00000  Uiso   1.00
O85    O     0.01841   0.84549   0.78532   0.00000  Uiso   1.00
O86    O     0.97412   0.40194   0.56780   0.00000  Uiso   1.00
N87    N     0.15971   0.11537   0.62991   0.00000  Uiso   1.00
N88    N     0.15346   0.95372   0.87496   0.00000  Uiso   1.00
N89    N     0.83450   0.63764   0.43257   0.00000  Uiso   1.00
N90    N     0.07443   0.85740   0.53467   0.00000  Uiso   1.00
N91    N     0.06817   0.69575   0.77971   0.00000  Uiso   1.00
N92    N     0.74922   0.37967   0.33733   0.00000  Uiso   1.00
C93    C     0.39008   0.57505   0.48753   0.00000  Uiso   1.00
C94    C     0.30577   0.58562   0.36571   0.00000  Uiso   1.00
C95    C     0.28237   0.45081   0.31633   0.00000  Uiso   1.00
C96    C     0.20246   0.48663   0.20381   0.00000  Uiso   1.00
C97    C     0.07978   0.47796   0.02387   0.00000  Uiso   1.00
C98    C     0.30402   0.63016   0.43322   0.00000  Uiso   1.00
C99    C     0.27918   0.53280   0.44062   0.00000  Uiso   1.00
C100   C     0.19781   0.60614   0.38495   0.00000  Uiso   1.00
C101   C     0.07250   0.66666   0.30992   0.00000  Uiso   1.00
C102   C     0.49172   0.71726   0.58689   0.00000  Uiso   1.00
C103   C     0.62469   0.69316   0.72351   0.00000  Uiso   1.00
C104   C     0.70135   0.83984   0.79723   0.00000  Uiso   1.00
C105   C     0.86745   0.03560   0.96079   0.00000  Uiso   1.00
C106   C     0.28979   0.87842   0.37553   0.00000  Uiso   1.00
C107   C     0.25129   0.75040   0.30487   0.00000  Uiso   1.00
C108   C     0.17140   0.78645   0.19241   0.00000  Uiso   1.00
C109   C     0.14789   0.65171   0.14287   0.00000  Uiso   1.00
C110   C     0.24955   0.79493   0.37239   0.00000  Uiso   1.00
C111   C     0.16821   0.86844   0.31670   0.00000  Uiso   1.00
C112   C     0.14324   0.77121   0.32401   0.00000  Uiso   1.00
C113   C     0.43724   0.88204   0.52606   0.00000  Uiso   1.00
C114   C     0.51372   0.02879   0.59958   0.00000  Uiso   1.00
C115   C     0.64678   0.00491   0.73629   0.00000  Uiso   1.00
H116   H     0.43249   0.44677   0.53489   0.00000  Uiso   1.00
H117   H     0.32454   0.32330   0.36343   0.00000  Uiso   1.00
H118   H     0.32135   0.40530   0.48772   0.00000  Uiso   1.00
H119   H     0.66681   0.56563   0.77055   0.00000  Uiso   1.00
H120   H     0.18078   0.25907   0.14647   0.00000  Uiso   1.00
H121   H     0.17411   0.43198   0.40858   0.00000  Uiso   1.00
H122   H     0.90257   0.77006   0.00501   0.00000  Uiso   1.00
H123   H     0.24738   0.00671   0.32816   0.00000  Uiso   1.00
H124   H     0.12926   0.91397   0.14535   0.00000  Uiso   1.00
H125   H     0.12608   0.99596   0.26964   0.00000  Uiso   1.00
H126   H     0.47153   0.15628   0.55247   0.00000  Uiso   1.00
H127   H     0.02229   0.73847   0.96946   0.00000  Uiso   1.00
H128   H     0.01562   0.91138   0.23158   0.00000  Uiso   1.00
H129   H     0.74407   0.24946   0.82800   0.00000  Uiso   1.00
O130   O     0.02714   0.42764   0.94141   0.00000  Uiso   1.00
O131   O     0.01841   0.65451   0.28532   0.00000  Uiso   1.00
O132   O     0.97412   0.09806   0.06780   0.00000  Uiso   1.00
N133   N     0.15971   0.38463   0.12991   0.00000  Uiso   1.00
N134   N     0.15346   0.54628   0.37496   0.00000  Uiso   1.00
N135   N     0.83450   0.86236   0.93257   0.00000  Uiso   1.00
N136   N     0.07443   0.64260   0.03467   0.00000  Uiso   1.00
N137   N     0.06817   0.80425   0.27971   0.00000  Uiso   1.00
N138   N     0.74922   0.12033   0.83733   0.00000  Uiso   1.00
C139   C     0.60992   0.07505   0.01247   0.00000  Uiso   1.00
C140   C     0.69423   0.08562   0.13429   0.00000  Uiso   1.00
C141   C     0.71763   0.95081   0.18367   0.00000  Uiso   1.00
C142   C     0.79754   0.98663   0.29619   0.00000  Uiso   1.00
C143   C     0.92022   0.97796   0.47613   0.00000  Uiso   1.00
C144   C     0.69598   0.13016   0.06678   0.00000  Uiso   1.00
C145   C     0.72082   0.03280   0.05938   0.00000  Uiso   1.00
C146   C     0.80219   0.10614   0.11505   0.00000  Uiso   1.00
C147   C     0.92750   0.16666   0.19008   0.00000  Uiso   1.00
C148   C     0.50828   0.21726   0.91311   0.00000  Uiso   1.00
C149   C     0.37531   0.19316   0.77649   0.00000  Uiso   1.00
C150   C     0.29865   0.33984   0.70277   0.00000  Uiso   1.00
C151   C     0.13255   0.53560   0.53921   0.00000  Uiso   1.00
C152   C     0.71021   0.37842   0.12447   0.00000  Uiso   1.00
C153   C     0.74871   0.25040   0.19513   0.00000  Uiso   1.00
C154   C     0.82860   0.28645   0.30759   0.00000  Uiso   1.00
C155   C     0.85211   0.15171   0.35713   0.00000  Uiso   1.00
C156   C     0.75045   0.29493   0.12761   0.00000  Uiso   1.00
C157   C     0.83179   0.36844   0.18330   0.00000  Uiso   1.00
C158   C     0.85676   0.27121   0.17599   0.00000  Uiso   1.00
C159   C     0.56276   0.38204   0.97394   0.00000  Uiso   1.00
C160   C     0.48628   0.52879   0.90042   0.00000  Uiso   1.00
C161   C     0.35322   0.50491   0.76371   0.00000  Uiso   1.00
H162   H     0.56751   0.94677   0.96511   0.00000  Uiso   1.00
H163   H     0.67546   0.82330   0.13657   0.00000  Uiso   1.00
H164   H     0.67865   0.90530   0.01228   0.00000  Uiso   1.00
H165   H     0.33319   0.06563   0.72945   0.00000  Uiso   1.00
H166   H     0.81922   0.75907   0.35353   0.00000  Uiso   1.00
H167   H     0.82589   0.93198   0.09142   0.00000  Uiso   1.00
H168   H     0.09743   0.27006   0.49499   0.00000  Uiso   1.00
H169   H     0.75262   0.50671   0.17184   0.00000  Uiso   1.00
H170   H     0.87074   0.41397   0.35465   0.00000  Uiso   1.00
H171   H     0.87392   0.49596   0.23036   0.00000  Uiso   1.00
H172   H     0.52847   0.65628   0.94753   0.00000  Uiso   1.00
H173   H     0.97771   0.23847   0.53054   0.00000  Uiso   1.00
H174   H     0.98438   0.41138   0.26842   0.00000  Uiso   1.00
H175   H     0.25593   0.74946   0.67200   0.00000  Uiso   1.00
O176   O     0.97286   0.92764   0.55859   0.00000  Uiso   1.00
O177   O     0.98159   0.15451   0.21468   0.00000  Uiso   1.00
O178   O     0.02588   0.59806   0.43220   0.00000  Uiso   1.00
N179   N     0.84029   0.88463   0.37009   0.00000  Uiso   1.00
N180   N     0.84654   0.04628   0.12504   0.00000  Uiso   1.00
N181   N     0.16550   0.36236   0.56743   0.00000  Uiso   1.00
N182   N     0.92557   0.14260   0.46533   0.00000  Uiso   1.00
N183   N     0.93183   0.30425   0.22029   0.00000  Uiso   1.00
N184   N     0.25078   0.62033   0.66267   0.00000  Uiso   1.00
