data_job_00147
_audit_creation_date              2018-12-19
_audit_creation_method            'Materials Studio'
_symmetry_space_group_name_H-M    'P1'
_symmetry_Int_Tables_number       1
_symmetry_cell_setting            triclinic
loop_
_symmetry_equiv_pos_as_xyz
  x,y,z
_cell_length_a                    12.5730
_cell_length_b                    11.4735
_cell_length_c                    19.8060
_cell_angle_alpha                 90.0000
_cell_angle_beta                  55.2293
_cell_angle_gamma                 90.0000
loop_
_atom_site_label
_atom_site_type_symbol
_atom_site_fract_x
_atom_site_fract_y
_atom_site_fract_z
_atom_site_U_iso_or_equiv
_atom_site_adp_type
_atom_site_occupancy
C1     C     0.18447   0.34182   0.06948   0.00000  Uiso   1.00
C2     C     0.29969   0.38094   0.98529   0.00000  Uiso   1.00
C3     C     0.35176   0.49242   0.96512   0.00000  Uiso   1.00
C4     C     0.45714   0.51063   0.88474   0.00000  Uiso   1.00
C5     C     0.62819   0.58509   0.76283   0.00000  Uiso   1.00
C6     C     0.08617   0.29150   0.05557   0.00000  Uiso   1.00
C7     C     0.95872   0.32777   0.09451   0.00000  Uiso   1.00
C8     C     0.88435   0.27067   0.07330   0.00000  Uiso   1.00
C9     C     0.72387   0.20623   0.06055   0.00000  Uiso   1.00
C10    C     0.23234   0.23934   0.09434   0.00000  Uiso   1.00
C11    C     0.22777   0.23172   0.16588   0.00000  Uiso   1.00
C12    C     0.27644   0.13069   0.17733   0.00000  Uiso   1.00
C13    C     0.34292   0.98525   0.22477   0.00000  Uiso   1.00
C14    C     0.27901   0.17592   0.96259   0.00000  Uiso   1.00
C15    C     0.35103   0.29083   0.92723   0.00000  Uiso   1.00
C16    C     0.45636   0.30887   0.84686   0.00000  Uiso   1.00
C17    C     0.50859   0.42036   0.82658   0.00000  Uiso   1.00
C18    C     0.13751   0.20140   0.99751   0.00000  Uiso   1.00
C19    C     0.06331   0.14422   0.97625   0.00000  Uiso   1.00
C20    C     0.93579   0.18040   0.01514   0.00000  Uiso   1.00
C21    C     0.28369   0.14923   0.03628   0.00000  Uiso   1.00
C22    C     0.33237   0.04818   0.04762   0.00000  Uiso   1.00
C23    C     0.32788   0.04042   0.11917   0.00000  Uiso   1.00
H24    H     0.14449   0.41198   0.11468   0.00000  Uiso   1.00
H25    H     0.31199   0.56214   0.01007   0.00000  Uiso   1.00
H26    H     0.91900   0.39750   0.13944   0.00000  Uiso   1.00
H27    H     0.18802   0.30147   0.21080   0.00000  Uiso   1.00
H28    H     0.52031   0.68889   0.86847   0.00000  Uiso   1.00
H29    H     0.69167   0.34172   0.14128   0.00000  Uiso   1.00
H30    H     0.25894   0.13923   0.29176   0.00000  Uiso   1.00
H31    H     0.31898   0.10576   0.91739   0.00000  Uiso   1.00
H32    H     0.49607   0.23912   0.80195   0.00000  Uiso   1.00
H33    H     0.10308   0.07449   0.93132   0.00000  Uiso   1.00
H34    H     0.37210   0.97847   0.00268   0.00000  Uiso   1.00
H35    H     0.66972   0.42672   0.69955   0.00000  Uiso   1.00
H36    H     0.84106   0.07955   0.97237   0.00000  Uiso   1.00
H37    H     0.40834   0.87706   0.12284   0.00000  Uiso   1.00
O38    O     0.70833   0.65106   0.71162   0.00000  Uiso   1.00
O39    O     0.62117   0.19558   0.06955   0.00000  Uiso   1.00
O40    O     0.36543   0.92992   0.26697   0.00000  Uiso   1.00
N41    N     0.53119   0.60888   0.84456   0.00000  Uiso   1.00
N42    N     0.75646   0.28431   0.09961   0.00000  Uiso   1.00
N43    N     0.28678   0.09498   0.24031   0.00000  Uiso   1.00
N44    N     0.61159   0.46781   0.75367   0.00000  Uiso   1.00
N45    N     0.83685   0.14324   0.00872   0.00000  Uiso   1.00
N46    N     0.36717   0.95391   0.14942   0.00000  Uiso   1.00
C47    C     0.81553   0.84182   0.43052   0.00000  Uiso   1.00
C48    C     0.70031   0.88094   0.51471   0.00000  Uiso   1.00
C49    C     0.64824   0.99242   0.53488   0.00000  Uiso   1.00
C50    C     0.54286   0.01063   0.61526   0.00000  Uiso   1.00
C51    C     0.37181   0.08509   0.73717   0.00000  Uiso   1.00
C52    C     0.91383   0.79150   0.44443   0.00000  Uiso   1.00
C53    C     0.04128   0.82777   0.40549   0.00000  Uiso   1.00
C54    C     0.11565   0.77067   0.42670   0.00000  Uiso   1.00
C55    C     0.27613   0.70623   0.43945   0.00000  Uiso   1.00
C56    C     0.76766   0.73934   0.40566   0.00000  Uiso   1.00
C57    C     0.77223   0.73172   0.33412   0.00000  Uiso   1.00
C58    C     0.72356   0.63069   0.32267   0.00000  Uiso   1.00
C59    C     0.65708   0.48525   0.27523   0.00000  Uiso   1.00
C60    C     0.72099   0.67592   0.53741   0.00000  Uiso   1.00
C61    C     0.64897   0.79083   0.57277   0.00000  Uiso   1.00
C62    C     0.54364   0.80887   0.65314   0.00000  Uiso   1.00
C63    C     0.49141   0.92036   0.67342   0.00000  Uiso   1.00
C64    C     0.86249   0.70140   0.50249   0.00000  Uiso   1.00
C65    C     0.93669   0.64422   0.52375   0.00000  Uiso   1.00
C66    C     0.06421   0.68040   0.48486   0.00000  Uiso   1.00
C67    C     0.71631   0.64923   0.46372   0.00000  Uiso   1.00
C68    C     0.66763   0.54818   0.45238   0.00000  Uiso   1.00
C69    C     0.67212   0.54042   0.38083   0.00000  Uiso   1.00
H70    H     0.85551   0.91198   0.38532   0.00000  Uiso   1.00
H71    H     0.68801   0.06214   0.48993   0.00000  Uiso   1.00
H72    H     0.08100   0.89750   0.36056   0.00000  Uiso   1.00
H73    H     0.81198   0.80147   0.28920   0.00000  Uiso   1.00
H74    H     0.47969   0.18889   0.63153   0.00000  Uiso   1.00
H75    H     0.30833   0.84172   0.35872   0.00000  Uiso   1.00
H76    H     0.74106   0.63923   0.20824   0.00000  Uiso   1.00
H77    H     0.68102   0.60576   0.58261   0.00000  Uiso   1.00
H78    H     0.50393   0.73912   0.69805   0.00000  Uiso   1.00
H79    H     0.89692   0.57449   0.56868   0.00000  Uiso   1.00
H80    H     0.62790   0.47847   0.49732   0.00000  Uiso   1.00
H81    H     0.33028   0.92672   0.80045   0.00000  Uiso   1.00
H82    H     0.15894   0.57955   0.52763   0.00000  Uiso   1.00
H83    H     0.59166   0.37706   0.37716   0.00000  Uiso   1.00
O84    O     0.29167   0.15106   0.78838   0.00000  Uiso   1.00
O85    O     0.37883   0.69558   0.43045   0.00000  Uiso   1.00
O86    O     0.63457   0.42992   0.23303   0.00000  Uiso   1.00
N87    N     0.46881   0.10888   0.65544   0.00000  Uiso   1.00
N88    N     0.24354   0.78431   0.40039   0.00000  Uiso   1.00
N89    N     0.71322   0.59498   0.25969   0.00000  Uiso   1.00
N90    N     0.38841   0.96781   0.74633   0.00000  Uiso   1.00
N91    N     0.16315   0.64324   0.49128   0.00000  Uiso   1.00
N92    N     0.63283   0.45391   0.35058   0.00000  Uiso   1.00
C93    C     0.81553   0.65818   0.93052   0.00000  Uiso   1.00
C94    C     0.70031   0.61906   0.01471   0.00000  Uiso   1.00
C95    C     0.64824   0.50758   0.03488   0.00000  Uiso   1.00
C96    C     0.54286   0.48937   0.11526   0.00000  Uiso   1.00
C97    C     0.37181   0.41491   0.23717   0.00000  Uiso   1.00
C98    C     0.91383   0.70850   0.94443   0.00000  Uiso   1.00
C99    C     0.04128   0.67223   0.90549   0.00000  Uiso   1.00
C100   C     0.11565   0.72933   0.92670   0.00000  Uiso   1.00
C101   C     0.27613   0.79377   0.93945   0.00000  Uiso   1.00
C102   C     0.76766   0.76066   0.90566   0.00000  Uiso   1.00
C103   C     0.77223   0.76828   0.83412   0.00000  Uiso   1.00
C104   C     0.72356   0.86931   0.82267   0.00000  Uiso   1.00
C105   C     0.65708   0.01475   0.77523   0.00000  Uiso   1.00
C106   C     0.72099   0.82408   0.03741   0.00000  Uiso   1.00
C107   C     0.64897   0.70917   0.07277   0.00000  Uiso   1.00
C108   C     0.54364   0.69113   0.15314   0.00000  Uiso   1.00
C109   C     0.49141   0.57964   0.17342   0.00000  Uiso   1.00
C110   C     0.86249   0.79860   0.00249   0.00000  Uiso   1.00
C111   C     0.93669   0.85578   0.02375   0.00000  Uiso   1.00
C112   C     0.06421   0.81960   0.98486   0.00000  Uiso   1.00
C113   C     0.71631   0.85077   0.96372   0.00000  Uiso   1.00
C114   C     0.66763   0.95182   0.95238   0.00000  Uiso   1.00
C115   C     0.67212   0.95958   0.88083   0.00000  Uiso   1.00
H116   H     0.85551   0.58802   0.88532   0.00000  Uiso   1.00
H117   H     0.68801   0.43786   0.98993   0.00000  Uiso   1.00
H118   H     0.08100   0.60250   0.86056   0.00000  Uiso   1.00
H119   H     0.81198   0.69853   0.78920   0.00000  Uiso   1.00
H120   H     0.47969   0.31111   0.13153   0.00000  Uiso   1.00
H121   H     0.30833   0.65828   0.85872   0.00000  Uiso   1.00
H122   H     0.74106   0.86077   0.70824   0.00000  Uiso   1.00
H123   H     0.68102   0.89424   0.08261   0.00000  Uiso   1.00
H124   H     0.50393   0.76088   0.19805   0.00000  Uiso   1.00
H125   H     0.89692   0.92551   0.06868   0.00000  Uiso   1.00
H126   H     0.62790   0.02153   0.99732   0.00000  Uiso   1.00
H127   H     0.33028   0.57328   0.30045   0.00000  Uiso   1.00
H128   H     0.15894   0.92045   0.02763   0.00000  Uiso   1.00
H129   H     0.59166   0.12294   0.87716   0.00000  Uiso   1.00
O130   O     0.29167   0.34894   0.28838   0.00000  Uiso   1.00
O131   O     0.37883   0.80442   0.93045   0.00000  Uiso   1.00
O132   O     0.63457   0.07008   0.73303   0.00000  Uiso   1.00
N133   N     0.46881   0.39112   0.15544   0.00000  Uiso   1.00
N134   N     0.24354   0.71569   0.90039   0.00000  Uiso   1.00
N135   N     0.71322   0.90502   0.75969   0.00000  Uiso   1.00
N136   N     0.38841   0.53219   0.24633   0.00000  Uiso   1.00
N137   N     0.16315   0.85676   0.99128   0.00000  Uiso   1.00
N138   N     0.63283   0.04609   0.85058   0.00000  Uiso   1.00
C139   C     0.18447   0.15818   0.56948   0.00000  Uiso   1.00
C140   C     0.29969   0.11906   0.48529   0.00000  Uiso   1.00
C141   C     0.35176   0.00758   0.46512   0.00000  Uiso   1.00
C142   C     0.45714   0.98937   0.38474   0.00000  Uiso   1.00
C143   C     0.62819   0.91491   0.26283   0.00000  Uiso   1.00
C144   C     0.08617   0.20850   0.55557   0.00000  Uiso   1.00
C145   C     0.95872   0.17223   0.59451   0.00000  Uiso   1.00
C146   C     0.88435   0.22933   0.57330   0.00000  Uiso   1.00
C147   C     0.72387   0.29377   0.56055   0.00000  Uiso   1.00
C148   C     0.23234   0.26066   0.59434   0.00000  Uiso   1.00
C149   C     0.22777   0.26828   0.66588   0.00000  Uiso   1.00
C150   C     0.27644   0.36931   0.67733   0.00000  Uiso   1.00
C151   C     0.34292   0.51475   0.72477   0.00000  Uiso   1.00
C152   C     0.27901   0.32408   0.46259   0.00000  Uiso   1.00
C153   C     0.35103   0.20917   0.42723   0.00000  Uiso   1.00
C154   C     0.45636   0.19113   0.34686   0.00000  Uiso   1.00
C155   C     0.50859   0.07964   0.32658   0.00000  Uiso   1.00
C156   C     0.13751   0.29860   0.49751   0.00000  Uiso   1.00
C157   C     0.06331   0.35578   0.47625   0.00000  Uiso   1.00
C158   C     0.93579   0.31960   0.51514   0.00000  Uiso   1.00
C159   C     0.28369   0.35077   0.53628   0.00000  Uiso   1.00
C160   C     0.33237   0.45182   0.54762   0.00000  Uiso   1.00
C161   C     0.32788   0.45958   0.61917   0.00000  Uiso   1.00
H162   H     0.14449   0.08802   0.61468   0.00000  Uiso   1.00
H163   H     0.31199   0.93786   0.51007   0.00000  Uiso   1.00
H164   H     0.91900   0.10250   0.63944   0.00000  Uiso   1.00
H165   H     0.18802   0.19853   0.71080   0.00000  Uiso   1.00
H166   H     0.52031   0.81111   0.36847   0.00000  Uiso   1.00
H167   H     0.69167   0.15828   0.64128   0.00000  Uiso   1.00
H168   H     0.25894   0.36077   0.79176   0.00000  Uiso   1.00
H169   H     0.31898   0.39424   0.41739   0.00000  Uiso   1.00
H170   H     0.49607   0.26088   0.30195   0.00000  Uiso   1.00
H171   H     0.10308   0.42551   0.43132   0.00000  Uiso   1.00
H172   H     0.37210   0.52153   0.50268   0.00000  Uiso   1.00
H173   H     0.66972   0.07328   0.19955   0.00000  Uiso   1.00
H174   H     0.84106   0.42045   0.47237   0.00000  Uiso   1.00
H175   H     0.40834   0.62294   0.62284   0.00000  Uiso   1.00
O176   O     0.70833   0.84894   0.21162   0.00000  Uiso   1.00
O177   O     0.62117   0.30442   0.56955   0.00000  Uiso   1.00
O178   O     0.36543   0.57008   0.76697   0.00000  Uiso   1.00
N179   N     0.53119   0.89112   0.34456   0.00000  Uiso   1.00
N180   N     0.75646   0.21569   0.59961   0.00000  Uiso   1.00
N181   N     0.28678   0.40502   0.74031   0.00000  Uiso   1.00
N182   N     0.61159   0.03219   0.25367   0.00000  Uiso   1.00
N183   N     0.83685   0.35676   0.50872   0.00000  Uiso   1.00
N184   N     0.36717   0.54609   0.64942   0.00000  Uiso   1.00
