data_job_06365
_audit_creation_date              2018-12-19
_audit_creation_method            'Materials Studio'
_symmetry_space_group_name_H-M    'P1'
_symmetry_Int_Tables_number       1
_symmetry_cell_setting            triclinic
loop_
_symmetry_equiv_pos_as_xyz
  x,y,z
_cell_length_a                    16.5068
_cell_length_b                    16.2560
_cell_length_c                    15.8523
_cell_angle_alpha                 100.4070
_cell_angle_beta                  100.3720
_cell_angle_gamma                 99.8706
loop_
_atom_site_label
_atom_site_type_symbol
_atom_site_fract_x
_atom_site_fract_y
_atom_site_fract_z
_atom_site_U_iso_or_equiv
_atom_site_adp_type
_atom_site_occupancy
C1     C     0.94139   0.80590   0.37637   0.00000  Uiso   1.00
C2     C     0.86032   0.78012   0.40733   0.00000  Uiso   1.00
C3     C     0.84524   0.81233   0.48894   0.00000  Uiso   1.00
C4     C     0.76705   0.78052   0.50459   0.00000  Uiso   1.00
C5     C     0.65045   0.74986   0.56237   0.00000  Uiso   1.00
C6     C     0.97145   0.72336   0.34954   0.00000  Uiso   1.00
C7     C     0.04981   0.70786   0.38255   0.00000  Uiso   1.00
C8     C     0.06517   0.62827   0.34954   0.00000  Uiso   1.00
C9     C     0.12112   0.50952   0.31755   0.00000  Uiso   1.00
C10    C     0.91561   0.83623   0.29184   0.00000  Uiso   1.00
C11    C     0.94703   0.91562   0.27633   0.00000  Uiso   1.00
C12    C     0.91538   0.93104   0.19473   0.00000  Uiso   1.00
C13    C     0.88463   0.98754   0.07316   0.00000  Uiso   1.00
C14    C     0.82934   0.69211   0.25903   0.00000  Uiso   1.00
C15    C     0.79946   0.71831   0.34359   0.00000  Uiso   1.00
C16    C     0.72127   0.68645   0.35911   0.00000  Uiso   1.00
C17    C     0.70608   0.71861   0.44074   0.00000  Uiso   1.00
C18    C     0.91059   0.66156   0.28580   0.00000  Uiso   1.00
C19    C     0.92584   0.58197   0.25272   0.00000  Uiso   1.00
C20    C     0.00420   0.56635   0.28569   0.00000  Uiso   1.00
C21    C     0.85474   0.77443   0.22810   0.00000  Uiso   1.00
C22    C     0.82305   0.78973   0.14651   0.00000  Uiso   1.00
C23    C     0.85441   0.86913   0.13088   0.00000  Uiso   1.00
H24    H     0.98877   0.85401   0.42600   0.00000  Uiso   1.00
H25    H     0.89236   0.86015   0.53826   0.00000  Uiso   1.00
H26    H     0.09690   0.75570   0.43187   0.00000  Uiso   1.00
H27    H     0.99413   0.96343   0.32567   0.00000  Uiso   1.00
H28    H     0.75865   0.83969   0.63462   0.00000  Uiso   1.00
H29    H     0.18993   0.61946   0.41029   0.00000  Uiso   1.00
H30    H     0.97322   0.05749   0.18634   0.00000  Uiso   1.00
H31    H     0.78195   0.64400   0.20940   0.00000  Uiso   1.00
H32    H     0.67419   0.63862   0.30978   0.00000  Uiso   1.00
H33    H     0.87873   0.53417   0.20340   0.00000  Uiso   1.00
H34    H     0.77595   0.74189   0.09720   0.00000  Uiso   1.00
H35    H     0.58157   0.65988   0.44918   0.00000  Uiso   1.00
H36    H     0.01286   0.43965   0.22484   0.00000  Uiso   1.00
H37    H     0.79614   0.87768   0.00090   0.00000  Uiso   1.00
O38    O     0.60296   0.75002   0.61185   0.00000  Uiso   1.00
O39    O     0.16879   0.46109   0.31752   0.00000  Uiso   1.00
O40    O     0.88447   0.03578   0.02372   0.00000  Uiso   1.00
N41    N     0.73175   0.79812   0.57719   0.00000  Uiso   1.00
N42    N     0.13497   0.59221   0.36747   0.00000  Uiso   1.00
N43    N     0.93238   0.00173   0.15809   0.00000  Uiso   1.00
N44    N     0.63647   0.70137   0.47741   0.00000  Uiso   1.00
N45    N     0.03969   0.49546   0.26768   0.00000  Uiso   1.00
N46    N     0.83710   0.90497   0.05831   0.00000  Uiso   1.00
C47    C     0.37374   0.94320   0.80587   0.00000  Uiso   1.00
C48    C     0.40370   0.86061   0.77902   0.00000  Uiso   1.00
C49    C     0.48207   0.84506   0.81192   0.00000  Uiso   1.00
C50    C     0.49733   0.76543   0.77890   0.00000  Uiso   1.00
C51    C     0.55314   0.64660   0.74685   0.00000  Uiso   1.00
C52    C     0.34785   0.97347   0.72132   0.00000  Uiso   1.00
C53    C     0.37925   0.05283   0.70572   0.00000  Uiso   1.00
C54    C     0.34748   0.06821   0.62413   0.00000  Uiso   1.00
C55    C     0.31654   0.12463   0.50253   0.00000  Uiso   1.00
C56    C     0.29275   0.91755   0.83699   0.00000  Uiso   1.00
C57    C     0.27781   0.94990   0.91864   0.00000  Uiso   1.00
C58    C     0.19964   0.91822   0.93443   0.00000  Uiso   1.00
C59    C     0.08314   0.88781   0.99243   0.00000  Uiso   1.00
C60    C     0.26149   0.82942   0.68873   0.00000  Uiso   1.00
C61    C     0.34273   0.79881   0.71539   0.00000  Uiso   1.00
C62    C     0.35788   0.71918   0.68232   0.00000  Uiso   1.00
C63    C     0.43625   0.70352   0.71516   0.00000  Uiso   1.00
C64    C     0.28688   0.91167   0.65770   0.00000  Uiso   1.00
C65    C     0.25506   0.92694   0.57612   0.00000  Uiso   1.00
C66    C     0.28640   0.00630   0.56039   0.00000  Uiso   1.00
C67    C     0.23178   0.85575   0.77337   0.00000  Uiso   1.00
C68    C     0.15362   0.82401   0.78903   0.00000  Uiso   1.00
C69    C     0.13856   0.85631   0.87069   0.00000  Uiso   1.00
H70    H     0.42121   0.99132   0.85540   0.00000  Uiso   1.00
H71    H     0.52924   0.89291   0.86115   0.00000  Uiso   1.00
H72    H     0.42642   0.10064   0.75497   0.00000  Uiso   1.00
H73    H     0.32500   0.99773   0.96786   0.00000  Uiso   1.00
H74    H     0.62213   0.75656   0.83944   0.00000  Uiso   1.00
H75    H     0.40532   0.19459   0.61557   0.00000  Uiso   1.00
H76    H     0.19146   0.97758   0.06448   0.00000  Uiso   1.00
H77    H     0.21402   0.78130   0.63919   0.00000  Uiso   1.00
H78    H     0.31068   0.67137   0.63308   0.00000  Uiso   1.00
H79    H     0.20787   0.87911   0.52690   0.00000  Uiso   1.00
H80    H     0.10645   0.77619   0.73978   0.00000  Uiso   1.00
H81    H     0.44475   0.57675   0.65432   0.00000  Uiso   1.00
H82    H     0.22794   0.01479   0.43045   0.00000  Uiso   1.00
H83    H     0.01407   0.79777   0.87936   0.00000  Uiso   1.00
O84    O     0.60078   0.59813   0.74674   0.00000  Uiso   1.00
O85    O     0.31632   0.17282   0.45304   0.00000  Uiso   1.00
O86    O     0.03573   0.88810   0.04200   0.00000  Uiso   1.00
N87    N     0.56711   0.72932   0.79673   0.00000  Uiso   1.00
N88    N     0.36442   0.13885   0.58741   0.00000  Uiso   1.00
N89    N     0.16446   0.93598   0.00710   0.00000  Uiso   1.00
N90    N     0.47166   0.63257   0.69712   0.00000  Uiso   1.00
N91    N     0.26897   0.04210   0.48781   0.00000  Uiso   1.00
N92    N     0.06901   0.83923   0.90749   0.00000  Uiso   1.00
C93    C     0.80642   0.37505   0.94694   0.00000  Uiso   1.00
C94    C     0.78051   0.40522   0.86233   0.00000  Uiso   1.00
C95    C     0.81180   0.48458   0.84668   0.00000  Uiso   1.00
C96    C     0.78003   0.49987   0.76506   0.00000  Uiso   1.00
C97    C     0.74903   0.55615   0.64337   0.00000  Uiso   1.00
C98    C     0.72541   0.34929   0.97800   0.00000  Uiso   1.00
C99    C     0.71038   0.38162   0.05961   0.00000  Uiso   1.00
C100   C     0.63222   0.34981   0.07535   0.00000  Uiso   1.00
C101   C     0.51570   0.31921   0.13327   0.00000  Uiso   1.00
C102   C     0.83654   0.29253   0.92022   0.00000  Uiso   1.00
C103   C     0.91493   0.27712   0.95326   0.00000  Uiso   1.00
C104   C     0.93034   0.19752   0.92037   0.00000  Uiso   1.00
C105   C     0.98636   0.07880   0.88858   0.00000  Uiso   1.00
C106   C     0.69437   0.26107   0.82980   0.00000  Uiso   1.00
C107   C     0.71965   0.34331   0.79871   0.00000  Uiso   1.00
C108   C     0.68783   0.35848   0.71708   0.00000  Uiso   1.00
C109   C     0.71906   0.43784   0.70131   0.00000  Uiso   1.00
C110   C     0.66455   0.28738   0.91438   0.00000  Uiso   1.00
C111   C     0.58641   0.25551   0.93001   0.00000  Uiso   1.00
C112   C     0.57125   0.28778   0.01162   0.00000  Uiso   1.00
C113   C     0.77568   0.23062   0.85659   0.00000  Uiso   1.00
C114   C     0.79096   0.15102   0.82365   0.00000  Uiso   1.00
C115   C     0.86937   0.13550   0.85663   0.00000  Uiso   1.00
H116   H     0.85380   0.42325   0.99648   0.00000  Uiso   1.00
H117   H     0.85889   0.53248   0.89594   0.00000  Uiso   1.00
H118   H     0.75749   0.42952   0.10884   0.00000  Uiso   1.00
H119   H     0.96202   0.32505   0.00250   0.00000  Uiso   1.00
H120   H     0.83767   0.62629   0.75643   0.00000  Uiso   1.00
H121   H     0.62387   0.40918   0.20534   0.00000  Uiso   1.00
H122   H     0.05516   0.18887   0.98111   0.00000  Uiso   1.00
H123   H     0.64698   0.21286   0.78026   0.00000  Uiso   1.00
H124   H     0.64073   0.31055   0.66786   0.00000  Uiso   1.00
H125   H     0.53932   0.20760   0.88076   0.00000  Uiso   1.00
H126   H     0.74385   0.10312   0.77442   0.00000  Uiso   1.00
H127   H     0.66060   0.44617   0.57131   0.00000  Uiso   1.00
H128   H     0.44680   0.22905   0.02023   0.00000  Uiso   1.00
H129   H     0.87808   0.00875   0.79599   0.00000  Uiso   1.00
O130   O     0.74873   0.60430   0.59384   0.00000  Uiso   1.00
O131   O     0.46825   0.31944   0.18280   0.00000  Uiso   1.00
O132   O     0.03408   0.03042   0.88861   0.00000  Uiso   1.00
N133   N     0.79687   0.57049   0.72828   0.00000  Uiso   1.00
N134   N     0.59698   0.36751   0.14798   0.00000  Uiso   1.00
N135   N     0.00018   0.16154   0.93836   0.00000  Uiso   1.00
N136   N     0.70159   0.47356   0.62867   0.00000  Uiso   1.00
N137   N     0.50170   0.27059   0.04837   0.00000  Uiso   1.00
N138   N     0.90490   0.06461   0.83875   0.00000  Uiso   1.00
C139   C     0.44112   0.87454   0.30590   0.00000  Uiso   1.00
C140   C     0.35981   0.90499   0.27911   0.00000  Uiso   1.00
C141   C     0.34452   0.98458   0.31206   0.00000  Uiso   1.00
C142   C     0.26612   0.00010   0.27908   0.00000  Uiso   1.00
C143   C     0.14913   0.05681   0.24712   0.00000  Uiso   1.00
C144   C     0.47093   0.84822   0.22132   0.00000  Uiso   1.00
C145   C     0.54908   0.88008   0.20569   0.00000  Uiso   1.00
C146   C     0.56423   0.84780   0.12408   0.00000  Uiso   1.00
C147   C     0.61980   0.81634   0.00244   0.00000  Uiso   1.00
C148   C     0.41584   0.79230   0.33699   0.00000  Uiso   1.00
C149   C     0.44768   0.77712   0.41861   0.00000  Uiso   1.00
C150   C     0.41645   0.69775   0.43438   0.00000  Uiso   1.00
C151   C     0.38647   0.57946   0.49233   0.00000  Uiso   1.00
C152   C     0.32907   0.76055   0.18876   0.00000  Uiso   1.00
C153   C     0.29895   0.84307   0.21548   0.00000  Uiso   1.00
C154   C     0.22055   0.85847   0.18245   0.00000  Uiso   1.00
C155   C     0.20515   0.93808   0.21535   0.00000  Uiso   1.00
C156   C     0.41008   0.78631   0.15770   0.00000  Uiso   1.00
C157   C     0.42511   0.75398   0.07609   0.00000  Uiso   1.00
C158   C     0.50326   0.78578   0.06034   0.00000  Uiso   1.00
C159   C     0.35497   0.73038   0.27337   0.00000  Uiso   1.00
C160   C     0.32370   0.65102   0.28901   0.00000  Uiso   1.00
C161   C     0.35548   0.63573   0.37064   0.00000  Uiso   1.00
H162   H     0.48851   0.92274   0.35543   0.00000  Uiso   1.00
H163   H     0.39164   0.03248   0.36129   0.00000  Uiso   1.00
H164   H     0.59617   0.92799   0.25495   0.00000  Uiso   1.00
H165   H     0.49477   0.82505   0.46783   0.00000  Uiso   1.00
H166   H     0.25741   0.12686   0.33970   0.00000  Uiso   1.00
H167   H     0.68869   0.90651   0.11549   0.00000  Uiso   1.00
H168   H     0.47488   0.68944   0.56439   0.00000  Uiso   1.00
H169   H     0.28169   0.71235   0.13922   0.00000  Uiso   1.00
H170   H     0.17346   0.81055   0.13321   0.00000  Uiso   1.00
H171   H     0.37800   0.70606   0.02687   0.00000  Uiso   1.00
H172   H     0.27660   0.60312   0.23976   0.00000  Uiso   1.00
H173   H     0.08034   0.94674   0.15458   0.00000  Uiso   1.00
H174   H     0.51162   0.72638   0.93037   0.00000  Uiso   1.00
H175   H     0.29780   0.50932   0.37928   0.00000  Uiso   1.00
O176   O     0.10142   0.10520   0.24706   0.00000  Uiso   1.00
O177   O     0.66726   0.81610   0.95292   0.00000  Uiso   1.00
O178   O     0.38673   0.53132   0.54187   0.00000  Uiso   1.00
N179   N     0.23058   0.07098   0.29697   0.00000  Uiso   1.00
N180   N     0.63380   0.86498   0.08734   0.00000  Uiso   1.00
N181   N     0.43392   0.66203   0.50702   0.00000  Uiso   1.00
N182   N     0.13530   0.97406   0.19736   0.00000  Uiso   1.00
N183   N     0.53852   0.76806   0.98773   0.00000  Uiso   1.00
N184   N     0.33864   0.56511   0.40741   0.00000  Uiso   1.00
C185   C     0.87427   0.30613   0.44693   0.00000  Uiso   1.00
C186   C     0.90398   0.27980   0.36229   0.00000  Uiso   1.00
C187   C     0.98214   0.31154   0.34662   0.00000  Uiso   1.00
C188   C     0.99719   0.27926   0.26497   0.00000  Uiso   1.00
C189   C     0.05262   0.24774   0.14324   0.00000  Uiso   1.00
C190   C     0.84888   0.22387   0.47796   0.00000  Uiso   1.00
C191   C     0.88069   0.20860   0.55954   0.00000  Uiso   1.00
C192   C     0.84934   0.12925   0.57526   0.00000  Uiso   1.00
C193   C     0.81917   0.01093   0.63314   0.00000  Uiso   1.00
C194   C     0.79303   0.33674   0.42027   0.00000  Uiso   1.00
C195   C     0.77788   0.41636   0.45336   0.00000  Uiso   1.00
C196   C     0.69950   0.43202   0.42052   0.00000  Uiso   1.00
C197   C     0.58262   0.48895   0.38881   0.00000  Uiso   1.00
C198   C     0.76202   0.19235   0.32979   0.00000  Uiso   1.00
C199   C     0.84301   0.21799   0.29867   0.00000  Uiso   1.00
C200   C     0.85795   0.18566   0.21701   0.00000  Uiso   1.00
C201   C     0.93611   0.21735   0.20122   0.00000  Uiso   1.00
C202   C     0.78791   0.16207   0.41434   0.00000  Uiso   1.00
C203   C     0.75650   0.08272   0.42994   0.00000  Uiso   1.00
C204   C     0.78827   0.06733   0.51152   0.00000  Uiso   1.00
C205   C     0.73206   0.27494   0.35664   0.00000  Uiso   1.00
C206   C     0.65369   0.29048   0.32375   0.00000  Uiso   1.00
C207   C     0.63842   0.37011   0.35678   0.00000  Uiso   1.00
H208   H     0.92174   0.35424   0.49647   0.00000  Uiso   1.00
H209   H     0.02931   0.35936   0.39588   0.00000  Uiso   1.00
H210   H     0.92787   0.25644   0.60877   0.00000  Uiso   1.00
H211   H     0.82507   0.46417   0.50259   0.00000  Uiso   1.00
H212   H     0.12170   0.33776   0.25630   0.00000  Uiso   1.00
H213   H     0.90778   0.12077   0.70522   0.00000  Uiso   1.00
H214   H     0.69102   0.55880   0.48133   0.00000  Uiso   1.00
H215   H     0.71455   0.14423   0.28025   0.00000  Uiso   1.00
H216   H     0.81075   0.13783   0.16779   0.00000  Uiso   1.00
H217   H     0.70932   0.03491   0.38069   0.00000  Uiso   1.00
H218   H     0.60652   0.24264   0.27451   0.00000  Uiso   1.00
H219   H     0.94431   0.15796   0.07119   0.00000  Uiso   1.00
H220   H     0.73040   0.94096   0.52010   0.00000  Uiso   1.00
H221   H     0.51363   0.37899   0.29621   0.00000  Uiso   1.00
O222   O     0.10004   0.24742   0.09368   0.00000  Uiso   1.00
O223   O     0.81938   0.96274   0.68264   0.00000  Uiso   1.00
O224   O     0.53500   0.53742   0.38889   0.00000  Uiso   1.00
N225   N     0.06674   0.29634   0.22816   0.00000  Uiso   1.00
N226   N     0.86676   0.09345   0.64786   0.00000  Uiso   1.00
N227   N     0.66409   0.50297   0.43856   0.00000  Uiso   1.00
N228   N     0.97129   0.19959   0.12855   0.00000  Uiso   1.00
N229   N     0.77131   0.99670   0.54825   0.00000  Uiso   1.00
N230   N     0.56864   0.40622   0.33895   0.00000  Uiso   1.00
C231   C     0.30616   0.44348   0.87636   0.00000  Uiso   1.00
C232   C     0.28075   0.36116   0.90728   0.00000  Uiso   1.00
C233   C     0.31245   0.34585   0.98887   0.00000  Uiso   1.00
C234   C     0.28110   0.26646   0.00449   0.00000  Uiso   1.00
C235   C     0.25087   0.14806   0.06223   0.00000  Uiso   1.00
C236   C     0.22490   0.47403   0.84958   0.00000  Uiso   1.00
C237   C     0.20966   0.55362   0.88265   0.00000  Uiso   1.00
C238   C     0.13130   0.56923   0.84968   0.00000  Uiso   1.00
C239   C     0.01439   0.62609   0.81778   0.00000  Uiso   1.00
C240   C     0.33603   0.41727   0.79180   0.00000  Uiso   1.00
C241   C     0.41422   0.44916   0.77626   0.00000  Uiso   1.00
C242   C     0.42941   0.41700   0.69464   0.00000  Uiso   1.00
C243   C     0.48505   0.38574   0.57302   0.00000  Uiso   1.00
C244   C     0.19411   0.32970   0.75901   0.00000  Uiso   1.00
C245   C     0.21989   0.29936   0.84354   0.00000  Uiso   1.00
C246   C     0.18848   0.21997   0.85904   0.00000  Uiso   1.00
C247   C     0.22013   0.20454   0.94064   0.00000  Uiso   1.00
C248   C     0.16404   0.41223   0.78584   0.00000  Uiso   1.00
C249   C     0.08569   0.42773   0.75281   0.00000  Uiso   1.00
C250   C     0.07032   0.50732   0.78583   0.00000  Uiso   1.00
C251   C     0.27517   0.35547   0.72806   0.00000  Uiso   1.00
C252   C     0.29024   0.32327   0.64643   0.00000  Uiso   1.00
C253   C     0.36844   0.35509   0.63078   0.00000  Uiso   1.00
H254   H     0.35354   0.49160   0.92598   0.00000  Uiso   1.00
H255   H     0.35955   0.39370   0.03819   0.00000  Uiso   1.00
H256   H     0.25677   0.60143   0.93196   0.00000  Uiso   1.00
H257   H     0.46130   0.49698   0.82560   0.00000  Uiso   1.00
H258   H     0.33934   0.25792   0.13449   0.00000  Uiso   1.00
H259   H     0.12265   0.69595   0.91050   0.00000  Uiso   1.00
H260   H     0.55393   0.47570   0.68621   0.00000  Uiso   1.00
H261   H     0.14672   0.28158   0.70938   0.00000  Uiso   1.00
H262   H     0.14138   0.17216   0.80970   0.00000  Uiso   1.00
H263   H     0.03861   0.37990   0.70349   0.00000  Uiso   1.00
H264   H     0.24313   0.27545   0.59713   0.00000  Uiso   1.00
H265   H     0.16227   0.07811   0.94905   0.00000  Uiso   1.00
H266   H     0.94558   0.51615   0.72505   0.00000  Uiso   1.00
H267   H     0.37686   0.29589   0.50077   0.00000  Uiso   1.00
O268   O     0.25100   0.09983   0.11168   0.00000  Uiso   1.00
O269   O     0.96672   0.67452   0.81780   0.00000  Uiso   1.00
O270   O     0.53255   0.38555   0.52355   0.00000  Uiso   1.00
N271   N     0.29841   0.23061   0.07707   0.00000  Uiso   1.00
N272   N     0.09581   0.64014   0.86766   0.00000  Uiso   1.00
N273   N     0.49902   0.43424   0.65797   0.00000  Uiso   1.00
N274   N     0.20313   0.13386   0.97729   0.00000  Uiso   1.00
N275   N     0.00053   0.54339   0.76788   0.00000  Uiso   1.00
N276   N     0.40373   0.33749   0.55818   0.00000  Uiso   1.00
