data_job_01030
_audit_creation_date              2018-12-19
_audit_creation_method            'Materials Studio'
_symmetry_space_group_name_H-M    'P1'
_symmetry_Int_Tables_number       1
_symmetry_cell_setting            triclinic
loop_
_symmetry_equiv_pos_as_xyz
  x,y,z
_cell_length_a                    23.7024
_cell_length_b                    14.5937
_cell_length_c                    12.6669
_cell_angle_alpha                 90.0000
_cell_angle_beta                  90.0000
_cell_angle_gamma                 90.0000
loop_
_atom_site_label
_atom_site_type_symbol
_atom_site_fract_x
_atom_site_fract_y
_atom_site_fract_z
_atom_site_U_iso_or_equiv
_atom_site_adp_type
_atom_site_occupancy
C1     C     0.10338   0.10267   0.80589   0.00000  Uiso   1.00
C2     C     0.11445   0.05247   0.70236   0.00000  Uiso   1.00
C3     C     0.13965   0.96708   0.69235   0.00000  Uiso   1.00
C4     C     0.14600   0.93291   0.59075   0.00000  Uiso   1.00
C5     C     0.16598   0.84744   0.44343   0.00000  Uiso   1.00
C6     C     0.13247   0.19546   0.79572   0.00000  Uiso   1.00
C7     C     0.17282   0.23029   0.86422   0.00000  Uiso   1.00
C8     C     0.19434   0.31650   0.84121   0.00000  Uiso   1.00
C9     C     0.24227   0.45304   0.83888   0.00000  Uiso   1.00
C10    C     0.04024   0.12258   0.80812   0.00000  Uiso   1.00
C11    C     0.00304   0.09617   0.88706   0.00000  Uiso   1.00
C12    C     0.94689   0.12104   0.87451   0.00000  Uiso   1.00
C13    C     0.85162   0.14445   0.89143   0.00000  Uiso   1.00
C14    C     0.06983   0.19385   0.64323   0.00000  Uiso   1.00
C15    C     0.09623   0.10199   0.61401   0.00000  Uiso   1.00
C16    C     0.10253   0.06794   0.51239   0.00000  Uiso   1.00
C17    C     0.12774   0.98252   0.50224   0.00000  Uiso   1.00
C18    C     0.11425   0.24498   0.70737   0.00000  Uiso   1.00
C19    C     0.13571   0.33116   0.68426   0.00000  Uiso   1.00
C20    C     0.17608   0.36611   0.75271   0.00000  Uiso   1.00
C21    C     0.02201   0.17210   0.71977   0.00000  Uiso   1.00
C22    C     0.96592   0.19703   0.70710   0.00000  Uiso   1.00
C23    C     0.92864   0.17066   0.78600   0.00000  Uiso   1.00
H24    H     0.11757   0.06413   0.87467   0.00000  Uiso   1.00
H25    H     0.15375   0.92878   0.76075   0.00000  Uiso   1.00
H26    H     0.18691   0.19195   0.93259   0.00000  Uiso   1.00
H27    H     0.01715   0.05785   0.95542   0.00000  Uiso   1.00
H28    H     0.18585   0.80057   0.59547   0.00000  Uiso   1.00
H29    H     0.25576   0.35550   0.95784   0.00000  Uiso   1.00
H30    H     0.89779   0.07272   0.00599   0.00000  Uiso   1.00
H31    H     0.05564   0.23240   0.57445   0.00000  Uiso   1.00
H32    H     0.08843   0.10628   0.44404   0.00000  Uiso   1.00
H33    H     0.12159   0.36946   0.61589   0.00000  Uiso   1.00
H34    H     0.95183   0.23535   0.63872   0.00000  Uiso   1.00
H35    H     0.13283   0.94464   0.33842   0.00000  Uiso   1.00
H36    H     0.20274   0.49958   0.70079   0.00000  Uiso   1.00
H37    H     0.84477   0.21679   0.74894   0.00000  Uiso   1.00
O38    O     0.18204   0.78662   0.38658   0.00000  Uiso   1.00
O39    O     0.27375   0.51467   0.86200   0.00000  Uiso   1.00
O40    O     0.80410   0.14367   0.92516   0.00000  Uiso   1.00
N41    N     0.16886   0.85178   0.55287   0.00000  Uiso   1.00
N42    N     0.23423   0.37060   0.89165   0.00000  Uiso   1.00
N43    N     0.89956   0.10624   0.93668   0.00000  Uiso   1.00
N44    N     0.14034   0.92930   0.41456   0.00000  Uiso   1.00
N45    N     0.20570   0.44812   0.75334   0.00000  Uiso   1.00
N46    N     0.87103   0.18377   0.79837   0.00000  Uiso   1.00
C47    C     0.39662   0.89733   0.30589   0.00000  Uiso   1.00
C48    C     0.38555   0.94753   0.20236   0.00000  Uiso   1.00
C49    C     0.36035   0.03292   0.19235   0.00000  Uiso   1.00
C50    C     0.35400   0.06709   0.09075   0.00000  Uiso   1.00
C51    C     0.33402   0.15256   0.94343   0.00000  Uiso   1.00
C52    C     0.36753   0.80454   0.29572   0.00000  Uiso   1.00
C53    C     0.32718   0.76971   0.36422   0.00000  Uiso   1.00
C54    C     0.30566   0.68350   0.34121   0.00000  Uiso   1.00
C55    C     0.25773   0.54696   0.33888   0.00000  Uiso   1.00
C56    C     0.45976   0.87742   0.30812   0.00000  Uiso   1.00
C57    C     0.49696   0.90383   0.38706   0.00000  Uiso   1.00
C58    C     0.55311   0.87896   0.37451   0.00000  Uiso   1.00
C59    C     0.64838   0.85555   0.39143   0.00000  Uiso   1.00
C60    C     0.43017   0.80615   0.14323   0.00000  Uiso   1.00
C61    C     0.40377   0.89801   0.11401   0.00000  Uiso   1.00
C62    C     0.39747   0.93206   0.01239   0.00000  Uiso   1.00
C63    C     0.37226   0.01748   0.00224   0.00000  Uiso   1.00
C64    C     0.38575   0.75502   0.20737   0.00000  Uiso   1.00
C65    C     0.36429   0.66884   0.18426   0.00000  Uiso   1.00
C66    C     0.32392   0.63389   0.25271   0.00000  Uiso   1.00
C67    C     0.47799   0.82790   0.21977   0.00000  Uiso   1.00
C68    C     0.53408   0.80297   0.20710   0.00000  Uiso   1.00
C69    C     0.57136   0.82934   0.28600   0.00000  Uiso   1.00
H70    H     0.38243   0.93587   0.37467   0.00000  Uiso   1.00
H71    H     0.34625   0.07122   0.26075   0.00000  Uiso   1.00
H72    H     0.31309   0.80805   0.43259   0.00000  Uiso   1.00
H73    H     0.48285   0.94215   0.45542   0.00000  Uiso   1.00
H74    H     0.31415   0.19943   0.09547   0.00000  Uiso   1.00
H75    H     0.24424   0.64450   0.45784   0.00000  Uiso   1.00
H76    H     0.60221   0.92728   0.50599   0.00000  Uiso   1.00
H77    H     0.44436   0.76760   0.07445   0.00000  Uiso   1.00
H78    H     0.41157   0.89372   0.94404   0.00000  Uiso   1.00
H79    H     0.37841   0.63054   0.11589   0.00000  Uiso   1.00
H80    H     0.54817   0.76465   0.13872   0.00000  Uiso   1.00
H81    H     0.36717   0.05536   0.83842   0.00000  Uiso   1.00
H82    H     0.29726   0.50042   0.20079   0.00000  Uiso   1.00
H83    H     0.65523   0.78321   0.24894   0.00000  Uiso   1.00
O84    O     0.31796   0.21338   0.88658   0.00000  Uiso   1.00
O85    O     0.22625   0.48533   0.36200   0.00000  Uiso   1.00
O86    O     0.69590   0.85633   0.42516   0.00000  Uiso   1.00
N87    N     0.33114   0.14822   0.05287   0.00000  Uiso   1.00
N88    N     0.26577   0.62940   0.39165   0.00000  Uiso   1.00
N89    N     0.60044   0.89376   0.43668   0.00000  Uiso   1.00
N90    N     0.35966   0.07070   0.91456   0.00000  Uiso   1.00
N91    N     0.29430   0.55188   0.25334   0.00000  Uiso   1.00
N92    N     0.62897   0.81623   0.29837   0.00000  Uiso   1.00
C93    C     0.89662   0.60267   0.69411   0.00000  Uiso   1.00
C94    C     0.88555   0.55247   0.79764   0.00000  Uiso   1.00
C95    C     0.86035   0.46708   0.80765   0.00000  Uiso   1.00
C96    C     0.85400   0.43291   0.90925   0.00000  Uiso   1.00
C97    C     0.83402   0.34744   0.05657   0.00000  Uiso   1.00
C98    C     0.86753   0.69546   0.70428   0.00000  Uiso   1.00
C99    C     0.82718   0.73029   0.63578   0.00000  Uiso   1.00
C100   C     0.80566   0.81650   0.65879   0.00000  Uiso   1.00
C101   C     0.75773   0.95304   0.66112   0.00000  Uiso   1.00
C102   C     0.95976   0.62258   0.69188   0.00000  Uiso   1.00
C103   C     0.99696   0.59617   0.61294   0.00000  Uiso   1.00
C104   C     0.05311   0.62104   0.62549   0.00000  Uiso   1.00
C105   C     0.14838   0.64445   0.60857   0.00000  Uiso   1.00
C106   C     0.93017   0.69385   0.85677   0.00000  Uiso   1.00
C107   C     0.90377   0.60199   0.88599   0.00000  Uiso   1.00
C108   C     0.89747   0.56794   0.98761   0.00000  Uiso   1.00
C109   C     0.87226   0.48252   0.99776   0.00000  Uiso   1.00
C110   C     0.88575   0.74498   0.79263   0.00000  Uiso   1.00
C111   C     0.86429   0.83116   0.81574   0.00000  Uiso   1.00
C112   C     0.82392   0.86611   0.74729   0.00000  Uiso   1.00
C113   C     0.97799   0.67210   0.78023   0.00000  Uiso   1.00
C114   C     0.03408   0.69703   0.79290   0.00000  Uiso   1.00
C115   C     0.07136   0.67066   0.71400   0.00000  Uiso   1.00
H116   H     0.88243   0.56413   0.62533   0.00000  Uiso   1.00
H117   H     0.84625   0.42878   0.73925   0.00000  Uiso   1.00
H118   H     0.81309   0.69195   0.56741   0.00000  Uiso   1.00
H119   H     0.98285   0.55785   0.54458   0.00000  Uiso   1.00
H120   H     0.81415   0.30057   0.90453   0.00000  Uiso   1.00
H121   H     0.74424   0.85550   0.54216   0.00000  Uiso   1.00
H122   H     0.10221   0.57272   0.49401   0.00000  Uiso   1.00
H123   H     0.94436   0.73240   0.92555   0.00000  Uiso   1.00
H124   H     0.91157   0.60628   0.05596   0.00000  Uiso   1.00
H125   H     0.87841   0.86946   0.88411   0.00000  Uiso   1.00
H126   H     0.04817   0.73535   0.86128   0.00000  Uiso   1.00
H127   H     0.86717   0.44464   0.16158   0.00000  Uiso   1.00
H128   H     0.79726   0.99958   0.79921   0.00000  Uiso   1.00
H129   H     0.15523   0.71679   0.75106   0.00000  Uiso   1.00
O130   O     0.81796   0.28662   0.11342   0.00000  Uiso   1.00
O131   O     0.72625   0.01467   0.63800   0.00000  Uiso   1.00
O132   O     0.19590   0.64367   0.57484   0.00000  Uiso   1.00
N133   N     0.83114   0.35178   0.94713   0.00000  Uiso   1.00
N134   N     0.76577   0.87060   0.60835   0.00000  Uiso   1.00
N135   N     0.10044   0.60624   0.56332   0.00000  Uiso   1.00
N136   N     0.85966   0.42930   0.08544   0.00000  Uiso   1.00
N137   N     0.79430   0.94812   0.74666   0.00000  Uiso   1.00
N138   N     0.12897   0.68377   0.70163   0.00000  Uiso   1.00
C139   C     0.60338   0.39733   0.19411   0.00000  Uiso   1.00
C140   C     0.61445   0.44753   0.29764   0.00000  Uiso   1.00
C141   C     0.63965   0.53292   0.30765   0.00000  Uiso   1.00
C142   C     0.64600   0.56709   0.40925   0.00000  Uiso   1.00
C143   C     0.66598   0.65256   0.55657   0.00000  Uiso   1.00
C144   C     0.63247   0.30454   0.20428   0.00000  Uiso   1.00
C145   C     0.67282   0.26971   0.13578   0.00000  Uiso   1.00
C146   C     0.69434   0.18350   0.15879   0.00000  Uiso   1.00
C147   C     0.74227   0.04696   0.16112   0.00000  Uiso   1.00
C148   C     0.54024   0.37742   0.19188   0.00000  Uiso   1.00
C149   C     0.50304   0.40383   0.11294   0.00000  Uiso   1.00
C150   C     0.44689   0.37896   0.12549   0.00000  Uiso   1.00
C151   C     0.35162   0.35555   0.10857   0.00000  Uiso   1.00
C152   C     0.56983   0.30615   0.35677   0.00000  Uiso   1.00
C153   C     0.59623   0.39801   0.38599   0.00000  Uiso   1.00
C154   C     0.60253   0.43206   0.48761   0.00000  Uiso   1.00
C155   C     0.62774   0.51748   0.49776   0.00000  Uiso   1.00
C156   C     0.61425   0.25502   0.29263   0.00000  Uiso   1.00
C157   C     0.63571   0.16884   0.31574   0.00000  Uiso   1.00
C158   C     0.67608   0.13389   0.24729   0.00000  Uiso   1.00
C159   C     0.52201   0.32790   0.28023   0.00000  Uiso   1.00
C160   C     0.46592   0.30297   0.29290   0.00000  Uiso   1.00
C161   C     0.42864   0.32934   0.21400   0.00000  Uiso   1.00
H162   H     0.61757   0.43587   0.12533   0.00000  Uiso   1.00
H163   H     0.65375   0.57122   0.23925   0.00000  Uiso   1.00
H164   H     0.68691   0.30805   0.06741   0.00000  Uiso   1.00
H165   H     0.51715   0.44215   0.04458   0.00000  Uiso   1.00
H166   H     0.68585   0.69943   0.40453   0.00000  Uiso   1.00
H167   H     0.75576   0.14450   0.04216   0.00000  Uiso   1.00
H168   H     0.39779   0.42728   0.99401   0.00000  Uiso   1.00
H169   H     0.55564   0.26760   0.42555   0.00000  Uiso   1.00
H170   H     0.58843   0.39372   0.55596   0.00000  Uiso   1.00
H171   H     0.62159   0.13054   0.38411   0.00000  Uiso   1.00
H172   H     0.45183   0.26465   0.36128   0.00000  Uiso   1.00
H173   H     0.63283   0.55536   0.66158   0.00000  Uiso   1.00
H174   H     0.70274   0.00042   0.29921   0.00000  Uiso   1.00
H175   H     0.34477   0.28321   0.25106   0.00000  Uiso   1.00
O176   O     0.68204   0.71338   0.61342   0.00000  Uiso   1.00
O177   O     0.77375   0.98533   0.13800   0.00000  Uiso   1.00
O178   O     0.30410   0.35633   0.07484   0.00000  Uiso   1.00
N179   N     0.66886   0.64822   0.44713   0.00000  Uiso   1.00
N180   N     0.73423   0.12940   0.10835   0.00000  Uiso   1.00
N181   N     0.39956   0.39376   0.06332   0.00000  Uiso   1.00
N182   N     0.64034   0.57070   0.58544   0.00000  Uiso   1.00
N183   N     0.70570   0.05188   0.24666   0.00000  Uiso   1.00
N184   N     0.37103   0.31623   0.20163   0.00000  Uiso   1.00
C185   C     0.89662   0.89733   0.19411   0.00000  Uiso   1.00
C186   C     0.88555   0.94753   0.29764   0.00000  Uiso   1.00
C187   C     0.86035   0.03292   0.30765   0.00000  Uiso   1.00
C188   C     0.85400   0.06709   0.40925   0.00000  Uiso   1.00
C189   C     0.83402   0.15256   0.55657   0.00000  Uiso   1.00
C190   C     0.86753   0.80454   0.20428   0.00000  Uiso   1.00
C191   C     0.82718   0.76971   0.13578   0.00000  Uiso   1.00
C192   C     0.80566   0.68350   0.15879   0.00000  Uiso   1.00
C193   C     0.75773   0.54696   0.16112   0.00000  Uiso   1.00
C194   C     0.95976   0.87742   0.19188   0.00000  Uiso   1.00
C195   C     0.99696   0.90383   0.11294   0.00000  Uiso   1.00
C196   C     0.05311   0.87896   0.12549   0.00000  Uiso   1.00
C197   C     0.14838   0.85555   0.10857   0.00000  Uiso   1.00
C198   C     0.93017   0.80615   0.35677   0.00000  Uiso   1.00
C199   C     0.90377   0.89801   0.38599   0.00000  Uiso   1.00
C200   C     0.89747   0.93206   0.48761   0.00000  Uiso   1.00
C201   C     0.87226   0.01748   0.49776   0.00000  Uiso   1.00
C202   C     0.88575   0.75502   0.29263   0.00000  Uiso   1.00
C203   C     0.86429   0.66884   0.31574   0.00000  Uiso   1.00
C204   C     0.82392   0.63389   0.24729   0.00000  Uiso   1.00
C205   C     0.97799   0.82790   0.28023   0.00000  Uiso   1.00
C206   C     0.03408   0.80297   0.29290   0.00000  Uiso   1.00
C207   C     0.07136   0.82934   0.21400   0.00000  Uiso   1.00
H208   H     0.88243   0.93587   0.12533   0.00000  Uiso   1.00
H209   H     0.84625   0.07122   0.23925   0.00000  Uiso   1.00
H210   H     0.81309   0.80805   0.06741   0.00000  Uiso   1.00
H211   H     0.98285   0.94215   0.04458   0.00000  Uiso   1.00
H212   H     0.81415   0.19943   0.40453   0.00000  Uiso   1.00
H213   H     0.74424   0.64450   0.04216   0.00000  Uiso   1.00
H214   H     0.10221   0.92728   0.99401   0.00000  Uiso   1.00
H215   H     0.94436   0.76760   0.42555   0.00000  Uiso   1.00
H216   H     0.91157   0.89372   0.55596   0.00000  Uiso   1.00
H217   H     0.87841   0.63054   0.38411   0.00000  Uiso   1.00
H218   H     0.04817   0.76465   0.36128   0.00000  Uiso   1.00
H219   H     0.86717   0.05536   0.66158   0.00000  Uiso   1.00
H220   H     0.79726   0.50042   0.29921   0.00000  Uiso   1.00
H221   H     0.15523   0.78321   0.25106   0.00000  Uiso   1.00
O222   O     0.81796   0.21338   0.61342   0.00000  Uiso   1.00
O223   O     0.72625   0.48533   0.13800   0.00000  Uiso   1.00
O224   O     0.19590   0.85633   0.07484   0.00000  Uiso   1.00
N225   N     0.83114   0.14822   0.44713   0.00000  Uiso   1.00
N226   N     0.76577   0.62940   0.10835   0.00000  Uiso   1.00
N227   N     0.10044   0.89376   0.06332   0.00000  Uiso   1.00
N228   N     0.85966   0.07070   0.58544   0.00000  Uiso   1.00
N229   N     0.79430   0.55188   0.24666   0.00000  Uiso   1.00
N230   N     0.12897   0.81623   0.20163   0.00000  Uiso   1.00
C231   C     0.60338   0.10267   0.69411   0.00000  Uiso   1.00
C232   C     0.61445   0.05247   0.79764   0.00000  Uiso   1.00
C233   C     0.63965   0.96708   0.80765   0.00000  Uiso   1.00
C234   C     0.64600   0.93291   0.90925   0.00000  Uiso   1.00
C235   C     0.66598   0.84744   0.05657   0.00000  Uiso   1.00
C236   C     0.63247   0.19546   0.70428   0.00000  Uiso   1.00
C237   C     0.67282   0.23029   0.63578   0.00000  Uiso   1.00
C238   C     0.69434   0.31650   0.65879   0.00000  Uiso   1.00
C239   C     0.74227   0.45304   0.66112   0.00000  Uiso   1.00
C240   C     0.54024   0.12258   0.69188   0.00000  Uiso   1.00
C241   C     0.50304   0.09617   0.61294   0.00000  Uiso   1.00
C242   C     0.44689   0.12104   0.62549   0.00000  Uiso   1.00
C243   C     0.35162   0.14445   0.60857   0.00000  Uiso   1.00
C244   C     0.56983   0.19385   0.85677   0.00000  Uiso   1.00
C245   C     0.59623   0.10199   0.88599   0.00000  Uiso   1.00
C246   C     0.60253   0.06794   0.98761   0.00000  Uiso   1.00
C247   C     0.62774   0.98252   0.99776   0.00000  Uiso   1.00
C248   C     0.61425   0.24498   0.79263   0.00000  Uiso   1.00
C249   C     0.63571   0.33116   0.81574   0.00000  Uiso   1.00
C250   C     0.67608   0.36611   0.74729   0.00000  Uiso   1.00
C251   C     0.52201   0.17210   0.78023   0.00000  Uiso   1.00
C252   C     0.46592   0.19703   0.79290   0.00000  Uiso   1.00
C253   C     0.42864   0.17066   0.71400   0.00000  Uiso   1.00
H254   H     0.61757   0.06413   0.62533   0.00000  Uiso   1.00
H255   H     0.65375   0.92878   0.73925   0.00000  Uiso   1.00
H256   H     0.68691   0.19195   0.56741   0.00000  Uiso   1.00
H257   H     0.51715   0.05785   0.54458   0.00000  Uiso   1.00
H258   H     0.68585   0.80057   0.90453   0.00000  Uiso   1.00
H259   H     0.75576   0.35550   0.54216   0.00000  Uiso   1.00
H260   H     0.39779   0.07272   0.49401   0.00000  Uiso   1.00
H261   H     0.55564   0.23240   0.92555   0.00000  Uiso   1.00
H262   H     0.58843   0.10628   0.05596   0.00000  Uiso   1.00
H263   H     0.62159   0.36946   0.88411   0.00000  Uiso   1.00
H264   H     0.45183   0.23535   0.86128   0.00000  Uiso   1.00
H265   H     0.63283   0.94464   0.16158   0.00000  Uiso   1.00
H266   H     0.70274   0.49958   0.79921   0.00000  Uiso   1.00
H267   H     0.34477   0.21679   0.75106   0.00000  Uiso   1.00
O268   O     0.68204   0.78662   0.11342   0.00000  Uiso   1.00
O269   O     0.77375   0.51467   0.63800   0.00000  Uiso   1.00
O270   O     0.30410   0.14367   0.57484   0.00000  Uiso   1.00
N271   N     0.66886   0.85178   0.94713   0.00000  Uiso   1.00
N272   N     0.73423   0.37060   0.60835   0.00000  Uiso   1.00
N273   N     0.39956   0.10624   0.56332   0.00000  Uiso   1.00
N274   N     0.64034   0.92930   0.08544   0.00000  Uiso   1.00
N275   N     0.70570   0.44812   0.74666   0.00000  Uiso   1.00
N276   N     0.37103   0.18377   0.70163   0.00000  Uiso   1.00
C277   C     0.10338   0.39733   0.30589   0.00000  Uiso   1.00
C278   C     0.11445   0.44753   0.20236   0.00000  Uiso   1.00
C279   C     0.13965   0.53292   0.19235   0.00000  Uiso   1.00
C280   C     0.14600   0.56709   0.09075   0.00000  Uiso   1.00
C281   C     0.16598   0.65256   0.94343   0.00000  Uiso   1.00
C282   C     0.13247   0.30454   0.29572   0.00000  Uiso   1.00
C283   C     0.17282   0.26971   0.36422   0.00000  Uiso   1.00
C284   C     0.19434   0.18350   0.34121   0.00000  Uiso   1.00
C285   C     0.24227   0.04696   0.33888   0.00000  Uiso   1.00
C286   C     0.04024   0.37742   0.30812   0.00000  Uiso   1.00
C287   C     0.00304   0.40383   0.38706   0.00000  Uiso   1.00
C288   C     0.94689   0.37896   0.37451   0.00000  Uiso   1.00
C289   C     0.85162   0.35555   0.39143   0.00000  Uiso   1.00
C290   C     0.06983   0.30615   0.14323   0.00000  Uiso   1.00
C291   C     0.09623   0.39801   0.11401   0.00000  Uiso   1.00
C292   C     0.10253   0.43206   0.01239   0.00000  Uiso   1.00
C293   C     0.12774   0.51748   0.00224   0.00000  Uiso   1.00
C294   C     0.11425   0.25502   0.20737   0.00000  Uiso   1.00
C295   C     0.13571   0.16884   0.18426   0.00000  Uiso   1.00
C296   C     0.17608   0.13389   0.25271   0.00000  Uiso   1.00
C297   C     0.02201   0.32790   0.21977   0.00000  Uiso   1.00
C298   C     0.96592   0.30297   0.20710   0.00000  Uiso   1.00
C299   C     0.92864   0.32934   0.28600   0.00000  Uiso   1.00
H300   H     0.11757   0.43587   0.37467   0.00000  Uiso   1.00
H301   H     0.15375   0.57122   0.26075   0.00000  Uiso   1.00
H302   H     0.18691   0.30805   0.43259   0.00000  Uiso   1.00
H303   H     0.01715   0.44215   0.45542   0.00000  Uiso   1.00
H304   H     0.18585   0.69943   0.09547   0.00000  Uiso   1.00
H305   H     0.25576   0.14450   0.45784   0.00000  Uiso   1.00
H306   H     0.89779   0.42728   0.50599   0.00000  Uiso   1.00
H307   H     0.05564   0.26760   0.07445   0.00000  Uiso   1.00
H308   H     0.08843   0.39372   0.94404   0.00000  Uiso   1.00
H309   H     0.12159   0.13054   0.11589   0.00000  Uiso   1.00
H310   H     0.95183   0.26465   0.13872   0.00000  Uiso   1.00
H311   H     0.13283   0.55536   0.83842   0.00000  Uiso   1.00
H312   H     0.20274   0.00042   0.20079   0.00000  Uiso   1.00
H313   H     0.84477   0.28321   0.24894   0.00000  Uiso   1.00
O314   O     0.18204   0.71338   0.88658   0.00000  Uiso   1.00
O315   O     0.27375   0.98533   0.36200   0.00000  Uiso   1.00
O316   O     0.80410   0.35633   0.42516   0.00000  Uiso   1.00
N317   N     0.16886   0.64822   0.05287   0.00000  Uiso   1.00
N318   N     0.23423   0.12940   0.39165   0.00000  Uiso   1.00
N319   N     0.89956   0.39376   0.43668   0.00000  Uiso   1.00
N320   N     0.14034   0.57070   0.91456   0.00000  Uiso   1.00
N321   N     0.20570   0.05188   0.25334   0.00000  Uiso   1.00
N322   N     0.87103   0.31623   0.29837   0.00000  Uiso   1.00
C323   C     0.39662   0.60267   0.80589   0.00000  Uiso   1.00
C324   C     0.38555   0.55247   0.70236   0.00000  Uiso   1.00
C325   C     0.36035   0.46708   0.69235   0.00000  Uiso   1.00
C326   C     0.35400   0.43291   0.59075   0.00000  Uiso   1.00
C327   C     0.33402   0.34744   0.44343   0.00000  Uiso   1.00
C328   C     0.36753   0.69546   0.79572   0.00000  Uiso   1.00
C329   C     0.32718   0.73029   0.86422   0.00000  Uiso   1.00
C330   C     0.30566   0.81650   0.84121   0.00000  Uiso   1.00
C331   C     0.25773   0.95304   0.83888   0.00000  Uiso   1.00
C332   C     0.45976   0.62258   0.80812   0.00000  Uiso   1.00
C333   C     0.49696   0.59617   0.88706   0.00000  Uiso   1.00
C334   C     0.55311   0.62104   0.87451   0.00000  Uiso   1.00
C335   C     0.64838   0.64445   0.89143   0.00000  Uiso   1.00
C336   C     0.43017   0.69385   0.64323   0.00000  Uiso   1.00
C337   C     0.40377   0.60199   0.61401   0.00000  Uiso   1.00
C338   C     0.39747   0.56794   0.51239   0.00000  Uiso   1.00
C339   C     0.37226   0.48252   0.50224   0.00000  Uiso   1.00
C340   C     0.38575   0.74498   0.70737   0.00000  Uiso   1.00
C341   C     0.36429   0.83116   0.68426   0.00000  Uiso   1.00
C342   C     0.32392   0.86611   0.75271   0.00000  Uiso   1.00
C343   C     0.47799   0.67210   0.71977   0.00000  Uiso   1.00
C344   C     0.53408   0.69703   0.70710   0.00000  Uiso   1.00
C345   C     0.57136   0.67066   0.78600   0.00000  Uiso   1.00
H346   H     0.38243   0.56413   0.87467   0.00000  Uiso   1.00
H347   H     0.34625   0.42878   0.76075   0.00000  Uiso   1.00
H348   H     0.31309   0.69195   0.93259   0.00000  Uiso   1.00
H349   H     0.48285   0.55785   0.95542   0.00000  Uiso   1.00
H350   H     0.31415   0.30057   0.59547   0.00000  Uiso   1.00
H351   H     0.24424   0.85550   0.95784   0.00000  Uiso   1.00
H352   H     0.60221   0.57272   0.00599   0.00000  Uiso   1.00
H353   H     0.44436   0.73240   0.57445   0.00000  Uiso   1.00
H354   H     0.41157   0.60628   0.44404   0.00000  Uiso   1.00
H355   H     0.37841   0.86946   0.61589   0.00000  Uiso   1.00
H356   H     0.54817   0.73535   0.63872   0.00000  Uiso   1.00
H357   H     0.36717   0.44464   0.33842   0.00000  Uiso   1.00
H358   H     0.29726   0.99958   0.70079   0.00000  Uiso   1.00
H359   H     0.65523   0.71679   0.74894   0.00000  Uiso   1.00
O360   O     0.31796   0.28662   0.38658   0.00000  Uiso   1.00
O361   O     0.22625   0.01467   0.86200   0.00000  Uiso   1.00
O362   O     0.69590   0.64367   0.92516   0.00000  Uiso   1.00
N363   N     0.33114   0.35178   0.55287   0.00000  Uiso   1.00
N364   N     0.26577   0.87060   0.89165   0.00000  Uiso   1.00
N365   N     0.60044   0.60624   0.93668   0.00000  Uiso   1.00
N366   N     0.35966   0.42930   0.41456   0.00000  Uiso   1.00
N367   N     0.29430   0.94812   0.75334   0.00000  Uiso   1.00
N368   N     0.62897   0.68377   0.79837   0.00000  Uiso   1.00
