data_job_04609
_audit_creation_date              2018-12-19
_audit_creation_method            'Materials Studio'
_symmetry_space_group_name_H-M    'P1'
_symmetry_Int_Tables_number       1
_symmetry_cell_setting            triclinic
loop_
_symmetry_equiv_pos_as_xyz
  x,y,z
_cell_length_a                    12.4411
_cell_length_b                    13.5147
_cell_length_c                    27.7942
_cell_angle_alpha                 90.0000
_cell_angle_beta                  88.6438
_cell_angle_gamma                 90.0000
loop_
_atom_site_label
_atom_site_type_symbol
_atom_site_fract_x
_atom_site_fract_y
_atom_site_fract_z
_atom_site_U_iso_or_equiv
_atom_site_adp_type
_atom_site_occupancy
C1     C     0.13569   0.39927   0.64431   0.00000  Uiso   1.00
C2     C     0.03087   0.37524   0.67137   0.00000  Uiso   1.00
C3     C     0.97220   0.44017   0.70040   0.00000  Uiso   1.00
C4     C     0.87844   0.40397   0.72202   0.00000  Uiso   1.00
C5     C     0.72085   0.38150   0.76515   0.00000  Uiso   1.00
C6     C     0.21750   0.32333   0.66094   0.00000  Uiso   1.00
C7     C     0.31575   0.34461   0.68120   0.00000  Uiso   1.00
C8     C     0.37910   0.26471   0.69403   0.00000  Uiso   1.00
C9     C     0.51128   0.16163   0.72094   0.00000  Uiso   1.00
C10    C     0.11611   0.37607   0.59155   0.00000  Uiso   1.00
C11    C     0.12912   0.44170   0.55345   0.00000  Uiso   1.00
C12    C     0.10713   0.40619   0.50784   0.00000  Uiso   1.00
C13    C     0.08189   0.38502   0.42701   0.00000  Uiso   1.00
C14    C     0.07352   0.21953   0.63108   0.00000  Uiso   1.00
C15    C     0.99711   0.27761   0.66418   0.00000  Uiso   1.00
C16    C     0.90342   0.24131   0.68576   0.00000  Uiso   1.00
C17    C     0.84461   0.30617   0.71481   0.00000  Uiso   1.00
C18    C     0.18374   0.22570   0.65376   0.00000  Uiso   1.00
C19    C     0.24696   0.14575   0.66656   0.00000  Uiso   1.00
C20    C     0.34527   0.16690   0.68683   0.00000  Uiso   1.00
C21    C     0.08234   0.27845   0.58436   0.00000  Uiso   1.00
C22    C     0.06033   0.24284   0.53881   0.00000  Uiso   1.00
C23    C     0.07331   0.30839   0.50064   0.00000  Uiso   1.00
H24    H     0.16199   0.47528   0.64991   0.00000  Uiso   1.00
H25    H     0.99836   0.51571   0.70596   0.00000  Uiso   1.00
H26    H     0.34186   0.42017   0.68675   0.00000  Uiso   1.00
H27    H     0.15526   0.51724   0.55902   0.00000  Uiso   1.00
H28    H     0.80209   0.51748   0.76495   0.00000  Uiso   1.00
H29    H     0.52638   0.31602   0.72443   0.00000  Uiso   1.00
H30    H     0.13290   0.52071   0.45509   0.00000  Uiso   1.00
H31    H     0.04724   0.14352   0.62548   0.00000  Uiso   1.00
H32    H     0.87731   0.16576   0.68019   0.00000  Uiso   1.00
H33    H     0.22081   0.07021   0.66099   0.00000  Uiso   1.00
H34    H     0.03420   0.16728   0.53326   0.00000  Uiso   1.00
H35    H     0.70383   0.23344   0.74403   0.00000  Uiso   1.00
H36    H     0.42813   0.03198   0.70352   0.00000  Uiso   1.00
H37    H     0.03464   0.23667   0.43418   0.00000  Uiso   1.00
O38    O     0.64326   0.39606   0.79093   0.00000  Uiso   1.00
O39    O     0.59352   0.13175   0.73778   0.00000  Uiso   1.00
O40    O     0.07727   0.40031   0.38440   0.00000  Uiso   1.00
N41    N     0.80227   0.44759   0.75251   0.00000  Uiso   1.00
N42    N     0.47944   0.25923   0.71464   0.00000  Uiso   1.00
N43    N     0.11159   0.45059   0.46282   0.00000  Uiso   1.00
N44    N     0.74940   0.29475   0.74126   0.00000  Uiso   1.00
N45    N     0.42657   0.10639   0.70339   0.00000  Uiso   1.00
N46    N     0.05872   0.29776   0.45157   0.00000  Uiso   1.00
C47    C     0.33610   0.64003   0.59020   0.00000  Uiso   1.00
C48    C     0.44152   0.66984   0.61306   0.00000  Uiso   1.00
C49    C     0.50272   0.61066   0.64266   0.00000  Uiso   1.00
C50    C     0.59660   0.65156   0.65996   0.00000  Uiso   1.00
C51    C     0.75548   0.68317   0.69728   0.00000  Uiso   1.00
C52    C     0.25354   0.71729   0.60638   0.00000  Uiso   1.00
C53    C     0.15669   0.69800   0.63035   0.00000  Uiso   1.00
C54    C     0.09233   0.77884   0.64203   0.00000  Uiso   1.00
C55    C     0.95933   0.88411   0.66894   0.00000  Uiso   1.00
C56    C     0.35291   0.65485   0.53616   0.00000  Uiso   1.00
C57    C     0.33958   0.58306   0.50109   0.00000  Uiso   1.00
C58    C     0.35886   0.61134   0.45365   0.00000  Uiso   1.00
C59    C     0.38015   0.61966   0.37154   0.00000  Uiso   1.00
C60    C     0.39401   0.81789   0.56829   0.00000  Uiso   1.00
C61    C     0.47297   0.76645   0.60115   0.00000  Uiso   1.00
C62    C     0.56679   0.80745   0.61841   0.00000  Uiso   1.00
C63    C     0.62812   0.74834   0.64803   0.00000  Uiso   1.00
C64    C     0.28499   0.81389   0.59447   0.00000  Uiso   1.00
C65    C     0.22076   0.89478   0.60611   0.00000  Uiso   1.00
C66    C     0.12384   0.87562   0.63010   0.00000  Uiso   1.00
C67    C     0.38437   0.75146   0.52425   0.00000  Uiso   1.00
C68    C     0.40366   0.77985   0.47685   0.00000  Uiso   1.00
C69    C     0.39037   0.70813   0.44172   0.00000  Uiso   1.00
H70    H     0.31160   0.56481   0.59947   0.00000  Uiso   1.00
H71    H     0.47834   0.53590   0.65186   0.00000  Uiso   1.00
H72    H     0.13236   0.62323   0.63956   0.00000  Uiso   1.00
H73    H     0.31524   0.50831   0.51032   0.00000  Uiso   1.00
H74    H     0.67705   0.54647   0.70472   0.00000  Uiso   1.00
H75    H     0.94752   0.73059   0.67875   0.00000  Uiso   1.00
H76    H     0.33314   0.48827   0.40623   0.00000  Uiso   1.00
H77    H     0.41850   0.89311   0.55902   0.00000  Uiso   1.00
H78    H     0.59111   0.88221   0.60919   0.00000  Uiso   1.00
H79    H     0.24512   0.96954   0.59689   0.00000  Uiso   1.00
H80    H     0.42800   0.85462   0.46765   0.00000  Uiso   1.00
H81    H     0.76858   0.82755   0.67009   0.00000  Uiso   1.00
H82    H     0.03904   0.01167   0.64412   0.00000  Uiso   1.00
H83    H     0.42467   0.76935   0.37160   0.00000  Uiso   1.00
O84    O     0.83441   0.67393   0.72115   0.00000  Uiso   1.00
O85    O     0.87729   0.91548   0.68708   0.00000  Uiso   1.00
O86    O     0.38322   0.59756   0.32954   0.00000  Uiso   1.00
N87    N     0.67492   0.61411   0.68967   0.00000  Uiso   1.00
N88    N     0.99285   0.78625   0.66541   0.00000  Uiso   1.00
N89    N     0.35335   0.55971   0.41062   0.00000  Uiso   1.00
N90    N     0.72416   0.76535   0.67104   0.00000  Uiso   1.00
N91    N     0.04210   0.93750   0.64677   0.00000  Uiso   1.00
N92    N     0.40260   0.71095   0.39198   0.00000  Uiso   1.00
C93    C     0.86431   0.89927   0.85569   0.00000  Uiso   1.00
C94    C     0.96913   0.87524   0.82863   0.00000  Uiso   1.00
C95    C     0.02780   0.94017   0.79960   0.00000  Uiso   1.00
C96    C     0.12156   0.90397   0.77798   0.00000  Uiso   1.00
C97    C     0.27915   0.88150   0.73485   0.00000  Uiso   1.00
C98    C     0.78250   0.82333   0.83906   0.00000  Uiso   1.00
C99    C     0.68425   0.84461   0.81880   0.00000  Uiso   1.00
C100   C     0.62090   0.76471   0.80597   0.00000  Uiso   1.00
C101   C     0.48872   0.66163   0.77906   0.00000  Uiso   1.00
C102   C     0.88389   0.87607   0.90845   0.00000  Uiso   1.00
C103   C     0.87088   0.94170   0.94655   0.00000  Uiso   1.00
C104   C     0.89287   0.90619   0.99216   0.00000  Uiso   1.00
C105   C     0.91811   0.88502   0.07299   0.00000  Uiso   1.00
C106   C     0.92648   0.71953   0.86892   0.00000  Uiso   1.00
C107   C     0.00289   0.77761   0.83582   0.00000  Uiso   1.00
C108   C     0.09658   0.74131   0.81424   0.00000  Uiso   1.00
C109   C     0.15539   0.80617   0.78519   0.00000  Uiso   1.00
C110   C     0.81626   0.72570   0.84624   0.00000  Uiso   1.00
C111   C     0.75304   0.64575   0.83344   0.00000  Uiso   1.00
C112   C     0.65473   0.66690   0.81317   0.00000  Uiso   1.00
C113   C     0.91766   0.77845   0.91564   0.00000  Uiso   1.00
C114   C     0.93967   0.74284   0.96119   0.00000  Uiso   1.00
C115   C     0.92669   0.80839   0.99936   0.00000  Uiso   1.00
H116   H     0.83801   0.97528   0.85009   0.00000  Uiso   1.00
H117   H     0.00164   0.01571   0.79404   0.00000  Uiso   1.00
H118   H     0.65814   0.92017   0.81325   0.00000  Uiso   1.00
H119   H     0.84474   0.01724   0.94098   0.00000  Uiso   1.00
H120   H     0.19791   0.01748   0.73505   0.00000  Uiso   1.00
H121   H     0.47362   0.81602   0.77557   0.00000  Uiso   1.00
H122   H     0.86710   0.02071   0.04491   0.00000  Uiso   1.00
H123   H     0.95276   0.64352   0.87452   0.00000  Uiso   1.00
H124   H     0.12269   0.66576   0.81981   0.00000  Uiso   1.00
H125   H     0.77919   0.57021   0.83901   0.00000  Uiso   1.00
H126   H     0.96580   0.66728   0.96674   0.00000  Uiso   1.00
H127   H     0.29617   0.73344   0.75597   0.00000  Uiso   1.00
H128   H     0.57187   0.53198   0.79648   0.00000  Uiso   1.00
H129   H     0.96536   0.73667   0.06582   0.00000  Uiso   1.00
O130   O     0.35674   0.89606   0.70907   0.00000  Uiso   1.00
O131   O     0.40648   0.63175   0.76222   0.00000  Uiso   1.00
O132   O     0.92273   0.90031   0.11560   0.00000  Uiso   1.00
N133   N     0.19773   0.94759   0.74749   0.00000  Uiso   1.00
N134   N     0.52056   0.75923   0.78536   0.00000  Uiso   1.00
N135   N     0.88841   0.95059   0.03718   0.00000  Uiso   1.00
N136   N     0.25060   0.79475   0.75874   0.00000  Uiso   1.00
N137   N     0.57343   0.60639   0.79661   0.00000  Uiso   1.00
N138   N     0.94128   0.79776   0.04843   0.00000  Uiso   1.00
C139   C     0.66390   0.14003   0.90980   0.00000  Uiso   1.00
C140   C     0.55848   0.16984   0.88694   0.00000  Uiso   1.00
C141   C     0.49728   0.11066   0.85734   0.00000  Uiso   1.00
C142   C     0.40340   0.15156   0.84004   0.00000  Uiso   1.00
C143   C     0.24452   0.18317   0.80272   0.00000  Uiso   1.00
C144   C     0.74646   0.21729   0.89362   0.00000  Uiso   1.00
C145   C     0.84331   0.19800   0.86965   0.00000  Uiso   1.00
C146   C     0.90767   0.27884   0.85797   0.00000  Uiso   1.00
C147   C     0.04067   0.38411   0.83106   0.00000  Uiso   1.00
C148   C     0.64709   0.15485   0.96384   0.00000  Uiso   1.00
C149   C     0.66042   0.08306   0.99891   0.00000  Uiso   1.00
C150   C     0.64114   0.11134   0.04635   0.00000  Uiso   1.00
C151   C     0.61985   0.11966   0.12846   0.00000  Uiso   1.00
C152   C     0.60599   0.31789   0.93171   0.00000  Uiso   1.00
C153   C     0.52703   0.26645   0.89885   0.00000  Uiso   1.00
C154   C     0.43321   0.30745   0.88159   0.00000  Uiso   1.00
C155   C     0.37188   0.24834   0.85197   0.00000  Uiso   1.00
C156   C     0.71501   0.31389   0.90553   0.00000  Uiso   1.00
C157   C     0.77924   0.39478   0.89389   0.00000  Uiso   1.00
C158   C     0.87616   0.37562   0.86990   0.00000  Uiso   1.00
C159   C     0.61563   0.25146   0.97575   0.00000  Uiso   1.00
C160   C     0.59634   0.27985   0.02315   0.00000  Uiso   1.00
C161   C     0.60963   0.20813   0.05828   0.00000  Uiso   1.00
H162   H     0.68840   0.06481   0.90053   0.00000  Uiso   1.00
H163   H     0.52166   0.03590   0.84814   0.00000  Uiso   1.00
H164   H     0.86764   0.12323   0.86044   0.00000  Uiso   1.00
H165   H     0.68476   0.00831   0.98968   0.00000  Uiso   1.00
H166   H     0.32295   0.04647   0.79528   0.00000  Uiso   1.00
H167   H     0.05248   0.23059   0.82125   0.00000  Uiso   1.00
H168   H     0.66686   0.98827   0.09377   0.00000  Uiso   1.00
H169   H     0.58150   0.39311   0.94098   0.00000  Uiso   1.00
H170   H     0.40889   0.38221   0.89081   0.00000  Uiso   1.00
H171   H     0.75488   0.46954   0.90311   0.00000  Uiso   1.00
H172   H     0.57200   0.35462   0.03235   0.00000  Uiso   1.00
H173   H     0.23142   0.32755   0.82991   0.00000  Uiso   1.00
H174   H     0.96096   0.51167   0.85588   0.00000  Uiso   1.00
H175   H     0.57533   0.26935   0.12840   0.00000  Uiso   1.00
O176   O     0.16559   0.17393   0.77885   0.00000  Uiso   1.00
O177   O     0.12271   0.41548   0.81292   0.00000  Uiso   1.00
O178   O     0.61678   0.09756   0.17046   0.00000  Uiso   1.00
N179   N     0.32508   0.11411   0.81033   0.00000  Uiso   1.00
N180   N     0.00715   0.28625   0.83459   0.00000  Uiso   1.00
N181   N     0.64665   0.05971   0.08938   0.00000  Uiso   1.00
N182   N     0.27584   0.26535   0.82896   0.00000  Uiso   1.00
N183   N     0.95790   0.43750   0.85323   0.00000  Uiso   1.00
N184   N     0.59740   0.21095   0.10802   0.00000  Uiso   1.00
C185   C     0.86431   0.60073   0.35569   0.00000  Uiso   1.00
C186   C     0.96913   0.62476   0.32863   0.00000  Uiso   1.00
C187   C     0.02780   0.55983   0.29960   0.00000  Uiso   1.00
C188   C     0.12156   0.59603   0.27798   0.00000  Uiso   1.00
C189   C     0.27915   0.61850   0.23485   0.00000  Uiso   1.00
C190   C     0.78250   0.67667   0.33906   0.00000  Uiso   1.00
C191   C     0.68425   0.65539   0.31880   0.00000  Uiso   1.00
C192   C     0.62090   0.73529   0.30597   0.00000  Uiso   1.00
C193   C     0.48872   0.83837   0.27906   0.00000  Uiso   1.00
C194   C     0.88389   0.62393   0.40845   0.00000  Uiso   1.00
C195   C     0.87088   0.55830   0.44655   0.00000  Uiso   1.00
C196   C     0.89287   0.59381   0.49216   0.00000  Uiso   1.00
C197   C     0.91811   0.61498   0.57299   0.00000  Uiso   1.00
C198   C     0.92648   0.78047   0.36892   0.00000  Uiso   1.00
C199   C     0.00289   0.72239   0.33582   0.00000  Uiso   1.00
C200   C     0.09658   0.75869   0.31424   0.00000  Uiso   1.00
C201   C     0.15539   0.69383   0.28519   0.00000  Uiso   1.00
C202   C     0.81626   0.77430   0.34624   0.00000  Uiso   1.00
C203   C     0.75304   0.85425   0.33344   0.00000  Uiso   1.00
C204   C     0.65473   0.83310   0.31317   0.00000  Uiso   1.00
C205   C     0.91766   0.72155   0.41564   0.00000  Uiso   1.00
C206   C     0.93967   0.75716   0.46119   0.00000  Uiso   1.00
C207   C     0.92669   0.69161   0.49936   0.00000  Uiso   1.00
H208   H     0.83801   0.52472   0.35009   0.00000  Uiso   1.00
H209   H     0.00164   0.48429   0.29404   0.00000  Uiso   1.00
H210   H     0.65814   0.57983   0.31325   0.00000  Uiso   1.00
H211   H     0.84474   0.48276   0.44098   0.00000  Uiso   1.00
H212   H     0.19791   0.48252   0.23505   0.00000  Uiso   1.00
H213   H     0.47362   0.68398   0.27557   0.00000  Uiso   1.00
H214   H     0.86710   0.47929   0.54491   0.00000  Uiso   1.00
H215   H     0.95276   0.85648   0.37452   0.00000  Uiso   1.00
H216   H     0.12269   0.83424   0.31981   0.00000  Uiso   1.00
H217   H     0.77919   0.92979   0.33901   0.00000  Uiso   1.00
H218   H     0.96580   0.83272   0.46674   0.00000  Uiso   1.00
H219   H     0.29617   0.76656   0.25597   0.00000  Uiso   1.00
H220   H     0.57187   0.96802   0.29648   0.00000  Uiso   1.00
H221   H     0.96536   0.76333   0.56582   0.00000  Uiso   1.00
O222   O     0.35674   0.60394   0.20907   0.00000  Uiso   1.00
O223   O     0.40648   0.86825   0.26222   0.00000  Uiso   1.00
O224   O     0.92273   0.59969   0.61560   0.00000  Uiso   1.00
N225   N     0.19773   0.55241   0.24749   0.00000  Uiso   1.00
N226   N     0.52056   0.74077   0.28536   0.00000  Uiso   1.00
N227   N     0.88841   0.54941   0.53718   0.00000  Uiso   1.00
N228   N     0.25060   0.70525   0.25874   0.00000  Uiso   1.00
N229   N     0.57343   0.89361   0.29661   0.00000  Uiso   1.00
N230   N     0.94128   0.70224   0.54843   0.00000  Uiso   1.00
C231   C     0.66390   0.35997   0.40980   0.00000  Uiso   1.00
C232   C     0.55848   0.33016   0.38694   0.00000  Uiso   1.00
C233   C     0.49728   0.38934   0.35734   0.00000  Uiso   1.00
C234   C     0.40340   0.34844   0.34004   0.00000  Uiso   1.00
C235   C     0.24452   0.31683   0.30272   0.00000  Uiso   1.00
C236   C     0.74646   0.28271   0.39362   0.00000  Uiso   1.00
C237   C     0.84331   0.30200   0.36965   0.00000  Uiso   1.00
C238   C     0.90767   0.22116   0.35797   0.00000  Uiso   1.00
C239   C     0.04067   0.11589   0.33106   0.00000  Uiso   1.00
C240   C     0.64709   0.34515   0.46384   0.00000  Uiso   1.00
C241   C     0.66042   0.41694   0.49891   0.00000  Uiso   1.00
C242   C     0.64114   0.38866   0.54635   0.00000  Uiso   1.00
C243   C     0.61985   0.38034   0.62846   0.00000  Uiso   1.00
C244   C     0.60599   0.18211   0.43171   0.00000  Uiso   1.00
C245   C     0.52703   0.23355   0.39885   0.00000  Uiso   1.00
C246   C     0.43321   0.19255   0.38159   0.00000  Uiso   1.00
C247   C     0.37188   0.25166   0.35197   0.00000  Uiso   1.00
C248   C     0.71501   0.18611   0.40553   0.00000  Uiso   1.00
C249   C     0.77924   0.10522   0.39389   0.00000  Uiso   1.00
C250   C     0.87616   0.12438   0.36990   0.00000  Uiso   1.00
C251   C     0.61563   0.24854   0.47575   0.00000  Uiso   1.00
C252   C     0.59634   0.22015   0.52315   0.00000  Uiso   1.00
C253   C     0.60963   0.29187   0.55828   0.00000  Uiso   1.00
H254   H     0.68840   0.43519   0.40053   0.00000  Uiso   1.00
H255   H     0.52166   0.46410   0.34814   0.00000  Uiso   1.00
H256   H     0.86764   0.37677   0.36044   0.00000  Uiso   1.00
H257   H     0.68476   0.49169   0.48968   0.00000  Uiso   1.00
H258   H     0.32295   0.45353   0.29528   0.00000  Uiso   1.00
H259   H     0.05248   0.26941   0.32125   0.00000  Uiso   1.00
H260   H     0.66686   0.51173   0.59377   0.00000  Uiso   1.00
H261   H     0.58150   0.10689   0.44098   0.00000  Uiso   1.00
H262   H     0.40889   0.11779   0.39081   0.00000  Uiso   1.00
H263   H     0.75488   0.03046   0.40311   0.00000  Uiso   1.00
H264   H     0.57200   0.14538   0.53235   0.00000  Uiso   1.00
H265   H     0.23142   0.17245   0.32991   0.00000  Uiso   1.00
H266   H     0.96096   0.98833   0.35588   0.00000  Uiso   1.00
H267   H     0.57533   0.23065   0.62840   0.00000  Uiso   1.00
O268   O     0.16559   0.32607   0.27885   0.00000  Uiso   1.00
O269   O     0.12271   0.08452   0.31292   0.00000  Uiso   1.00
O270   O     0.61678   0.40244   0.67046   0.00000  Uiso   1.00
N271   N     0.32508   0.38589   0.31033   0.00000  Uiso   1.00
N272   N     0.00715   0.21375   0.33459   0.00000  Uiso   1.00
N273   N     0.64665   0.44029   0.58938   0.00000  Uiso   1.00
N274   N     0.27584   0.23465   0.32896   0.00000  Uiso   1.00
N275   N     0.95790   0.06250   0.35323   0.00000  Uiso   1.00
N276   N     0.59740   0.28905   0.60802   0.00000  Uiso   1.00
C277   C     0.13569   0.10073   0.14431   0.00000  Uiso   1.00
C278   C     0.03087   0.12476   0.17137   0.00000  Uiso   1.00
C279   C     0.97220   0.05983   0.20040   0.00000  Uiso   1.00
C280   C     0.87844   0.09603   0.22202   0.00000  Uiso   1.00
C281   C     0.72085   0.11850   0.26515   0.00000  Uiso   1.00
C282   C     0.21750   0.17667   0.16094   0.00000  Uiso   1.00
C283   C     0.31575   0.15539   0.18120   0.00000  Uiso   1.00
C284   C     0.37910   0.23529   0.19403   0.00000  Uiso   1.00
C285   C     0.51128   0.33837   0.22094   0.00000  Uiso   1.00
C286   C     0.11611   0.12393   0.09155   0.00000  Uiso   1.00
C287   C     0.12912   0.05830   0.05345   0.00000  Uiso   1.00
C288   C     0.10713   0.09381   0.00784   0.00000  Uiso   1.00
C289   C     0.08189   0.11498   0.92701   0.00000  Uiso   1.00
C290   C     0.07352   0.28047   0.13108   0.00000  Uiso   1.00
C291   C     0.99711   0.22239   0.16418   0.00000  Uiso   1.00
C292   C     0.90342   0.25869   0.18576   0.00000  Uiso   1.00
C293   C     0.84461   0.19383   0.21481   0.00000  Uiso   1.00
C294   C     0.18374   0.27430   0.15376   0.00000  Uiso   1.00
C295   C     0.24696   0.35425   0.16656   0.00000  Uiso   1.00
C296   C     0.34527   0.33310   0.18683   0.00000  Uiso   1.00
C297   C     0.08234   0.22155   0.08436   0.00000  Uiso   1.00
C298   C     0.06033   0.25716   0.03881   0.00000  Uiso   1.00
C299   C     0.07331   0.19161   0.00064   0.00000  Uiso   1.00
H300   H     0.16199   0.02472   0.14991   0.00000  Uiso   1.00
H301   H     0.99836   0.98429   0.20596   0.00000  Uiso   1.00
H302   H     0.34186   0.07983   0.18675   0.00000  Uiso   1.00
H303   H     0.15526   0.98276   0.05902   0.00000  Uiso   1.00
H304   H     0.80209   0.98252   0.26495   0.00000  Uiso   1.00
H305   H     0.52638   0.18398   0.22443   0.00000  Uiso   1.00
H306   H     0.13290   0.97929   0.95509   0.00000  Uiso   1.00
H307   H     0.04724   0.35648   0.12548   0.00000  Uiso   1.00
H308   H     0.87731   0.33424   0.18019   0.00000  Uiso   1.00
H309   H     0.22081   0.42979   0.16099   0.00000  Uiso   1.00
H310   H     0.03420   0.33272   0.03326   0.00000  Uiso   1.00
H311   H     0.70383   0.26656   0.24403   0.00000  Uiso   1.00
H312   H     0.42813   0.46802   0.20352   0.00000  Uiso   1.00
H313   H     0.03464   0.26333   0.93418   0.00000  Uiso   1.00
O314   O     0.64326   0.10394   0.29093   0.00000  Uiso   1.00
O315   O     0.59352   0.36825   0.23778   0.00000  Uiso   1.00
O316   O     0.07727   0.09969   0.88440   0.00000  Uiso   1.00
N317   N     0.80227   0.05241   0.25251   0.00000  Uiso   1.00
N318   N     0.47944   0.24077   0.21464   0.00000  Uiso   1.00
N319   N     0.11159   0.04941   0.96282   0.00000  Uiso   1.00
N320   N     0.74940   0.20525   0.24126   0.00000  Uiso   1.00
N321   N     0.42657   0.39361   0.20339   0.00000  Uiso   1.00
N322   N     0.05872   0.20224   0.95157   0.00000  Uiso   1.00
C323   C     0.33610   0.85997   0.09020   0.00000  Uiso   1.00
C324   C     0.44152   0.83016   0.11306   0.00000  Uiso   1.00
C325   C     0.50272   0.88934   0.14266   0.00000  Uiso   1.00
C326   C     0.59660   0.84844   0.15996   0.00000  Uiso   1.00
C327   C     0.75548   0.81683   0.19728   0.00000  Uiso   1.00
C328   C     0.25354   0.78271   0.10638   0.00000  Uiso   1.00
C329   C     0.15669   0.80200   0.13035   0.00000  Uiso   1.00
C330   C     0.09233   0.72116   0.14203   0.00000  Uiso   1.00
C331   C     0.95933   0.61589   0.16894   0.00000  Uiso   1.00
C332   C     0.35291   0.84515   0.03616   0.00000  Uiso   1.00
C333   C     0.33958   0.91694   0.00109   0.00000  Uiso   1.00
C334   C     0.35886   0.88866   0.95365   0.00000  Uiso   1.00
C335   C     0.38015   0.88034   0.87154   0.00000  Uiso   1.00
C336   C     0.39401   0.68211   0.06829   0.00000  Uiso   1.00
C337   C     0.47297   0.73355   0.10115   0.00000  Uiso   1.00
C338   C     0.56679   0.69255   0.11841   0.00000  Uiso   1.00
C339   C     0.62812   0.75166   0.14803   0.00000  Uiso   1.00
C340   C     0.28499   0.68611   0.09447   0.00000  Uiso   1.00
C341   C     0.22076   0.60522   0.10611   0.00000  Uiso   1.00
C342   C     0.12384   0.62438   0.13010   0.00000  Uiso   1.00
C343   C     0.38437   0.74854   0.02425   0.00000  Uiso   1.00
C344   C     0.40366   0.72015   0.97685   0.00000  Uiso   1.00
C345   C     0.39037   0.79187   0.94172   0.00000  Uiso   1.00
H346   H     0.31160   0.93519   0.09947   0.00000  Uiso   1.00
H347   H     0.47834   0.96410   0.15186   0.00000  Uiso   1.00
H348   H     0.13236   0.87677   0.13956   0.00000  Uiso   1.00
H349   H     0.31524   0.99169   0.01032   0.00000  Uiso   1.00
H350   H     0.67705   0.95353   0.20472   0.00000  Uiso   1.00
H351   H     0.94752   0.76941   0.17875   0.00000  Uiso   1.00
H352   H     0.33314   0.01173   0.90623   0.00000  Uiso   1.00
H353   H     0.41850   0.60689   0.05902   0.00000  Uiso   1.00
H354   H     0.59111   0.61779   0.10919   0.00000  Uiso   1.00
H355   H     0.24512   0.53046   0.09689   0.00000  Uiso   1.00
H356   H     0.42800   0.64538   0.96765   0.00000  Uiso   1.00
H357   H     0.76858   0.67245   0.17009   0.00000  Uiso   1.00
H358   H     0.03904   0.48833   0.14412   0.00000  Uiso   1.00
H359   H     0.42467   0.73065   0.87160   0.00000  Uiso   1.00
O360   O     0.83441   0.82607   0.22115   0.00000  Uiso   1.00
O361   O     0.87729   0.58452   0.18708   0.00000  Uiso   1.00
O362   O     0.38322   0.90244   0.82954   0.00000  Uiso   1.00
N363   N     0.67492   0.88589   0.18967   0.00000  Uiso   1.00
N364   N     0.99285   0.71375   0.16541   0.00000  Uiso   1.00
N365   N     0.35335   0.94029   0.91062   0.00000  Uiso   1.00
N366   N     0.72416   0.73465   0.17104   0.00000  Uiso   1.00
N367   N     0.04210   0.56250   0.14677   0.00000  Uiso   1.00
N368   N     0.40260   0.78905   0.89198   0.00000  Uiso   1.00
