data_job_02320
_audit_creation_date              2018-12-19
_audit_creation_method            'Materials Studio'
_symmetry_space_group_name_H-M    'P1'
_symmetry_Int_Tables_number       1
_symmetry_cell_setting            triclinic
loop_
_symmetry_equiv_pos_as_xyz
  x,y,z
_cell_length_a                    23.6297
_cell_length_b                    25.0906
_cell_length_c                    10.9158
_cell_angle_alpha                 90.0000
_cell_angle_beta                  90.0000
_cell_angle_gamma                 90.0000
loop_
_atom_site_label
_atom_site_type_symbol
_atom_site_fract_x
_atom_site_fract_y
_atom_site_fract_z
_atom_site_U_iso_or_equiv
_atom_site_adp_type
_atom_site_occupancy
C1     C     0.39826   0.07809   0.30857   0.00000  Uiso   1.00
C2     C     0.35158   0.11956   0.32343   0.00000  Uiso   1.00
C3     C     0.30073   0.11198   0.38459   0.00000  Uiso   1.00
C4     C     0.26360   0.15484   0.38796   0.00000  Uiso   1.00
C5     C     0.18908   0.21181   0.41947   0.00000  Uiso   1.00
C6     C     0.40822   0.07275   0.17109   0.00000  Uiso   1.00
C7     C     0.40499   0.02582   0.10417   0.00000  Uiso   1.00
C8     C     0.41555   0.02928   0.97930   0.00000  Uiso   1.00
C9     C     0.42900   0.01358   0.77432   0.00000  Uiso   1.00
C10    C     0.45177   0.10337   0.36075   0.00000  Uiso   1.00
C11    C     0.48518   0.08217   0.45327   0.00000  Uiso   1.00
C12    C     0.53241   0.11140   0.48806   0.00000  Uiso   1.00
C13    C     0.61348   0.14324   0.57754   0.00000  Uiso   1.00
C14    C     0.42276   0.16769   0.20579   0.00000  Uiso   1.00
C15    C     0.36489   0.16822   0.26760   0.00000  Uiso   1.00
C16    C     0.32782   0.21111   0.27088   0.00000  Uiso   1.00
C17    C     0.27692   0.20359   0.33204   0.00000  Uiso   1.00
C18    C     0.42152   0.12142   0.11526   0.00000  Uiso   1.00
C19    C     0.43209   0.12495   0.99046   0.00000  Uiso   1.00
C20    C     0.42887   0.07804   0.92337   0.00000  Uiso   1.00
C21    C     0.46508   0.15204   0.30492   0.00000  Uiso   1.00
C22    C     0.51227   0.18130   0.33956   0.00000  Uiso   1.00
C23    C     0.54574   0.16016   0.43213   0.00000  Uiso   1.00
H24    H     0.38791   0.04020   0.35202   0.00000  Uiso   1.00
H25    H     0.29045   0.07430   0.42777   0.00000  Uiso   1.00
H26    H     0.39470   0.98816   0.14740   0.00000  Uiso   1.00
H27    H     0.47487   0.04451   0.49645   0.00000  Uiso   1.00
H28    H     0.18825   0.13357   0.48710   0.00000  Uiso   1.00
H29    H     0.40809   0.95193   0.89593   0.00000  Uiso   1.00
H30    H     0.57715   0.07074   0.63196   0.00000  Uiso   1.00
H31    H     0.43311   0.20558   0.16233   0.00000  Uiso   1.00
H32    H     0.33813   0.24876   0.22767   0.00000  Uiso   1.00
H33    H     0.44238   0.16262   0.94730   0.00000  Uiso   1.00
H34    H     0.52255   0.21896   0.29635   0.00000  Uiso   1.00
H35    H     0.22695   0.27517   0.32468   0.00000  Uiso   1.00
H36    H     0.44680   0.09353   0.73351   0.00000  Uiso   1.00
H37    H     0.61585   0.21234   0.46955   0.00000  Uiso   1.00
O38    O     0.14429   0.22978   0.45226   0.00000  Uiso   1.00
O39    O     0.43273   0.99148   0.67668   0.00000  Uiso   1.00
O40    O     0.65452   0.14736   0.64234   0.00000  Uiso   1.00
N41    N     0.21040   0.16097   0.43993   0.00000  Uiso   1.00
N42    N     0.41593   0.99115   0.88721   0.00000  Uiso   1.00
N43    N     0.57399   0.10222   0.57532   0.00000  Uiso   1.00
N44    N     0.23122   0.23716   0.35254   0.00000  Uiso   1.00
N45    N     0.43676   0.06734   0.79982   0.00000  Uiso   1.00
N46    N     0.59481   0.17841   0.48793   0.00000  Uiso   1.00
C47    C     0.39826   0.57809   0.80857   0.00000  Uiso   1.00
C48    C     0.35158   0.61956   0.82343   0.00000  Uiso   1.00
C49    C     0.30073   0.61198   0.88459   0.00000  Uiso   1.00
C50    C     0.26360   0.65484   0.88796   0.00000  Uiso   1.00
C51    C     0.18908   0.71181   0.91947   0.00000  Uiso   1.00
C52    C     0.40822   0.57275   0.67109   0.00000  Uiso   1.00
C53    C     0.40499   0.52582   0.60417   0.00000  Uiso   1.00
C54    C     0.41555   0.52928   0.47930   0.00000  Uiso   1.00
C55    C     0.42900   0.51358   0.27432   0.00000  Uiso   1.00
C56    C     0.45177   0.60337   0.86075   0.00000  Uiso   1.00
C57    C     0.48518   0.58217   0.95327   0.00000  Uiso   1.00
C58    C     0.53241   0.61140   0.98806   0.00000  Uiso   1.00
C59    C     0.61348   0.64324   0.07754   0.00000  Uiso   1.00
C60    C     0.42276   0.66769   0.70579   0.00000  Uiso   1.00
C61    C     0.36489   0.66822   0.76760   0.00000  Uiso   1.00
C62    C     0.32782   0.71111   0.77088   0.00000  Uiso   1.00
C63    C     0.27692   0.70359   0.83204   0.00000  Uiso   1.00
C64    C     0.42152   0.62142   0.61526   0.00000  Uiso   1.00
C65    C     0.43209   0.62495   0.49046   0.00000  Uiso   1.00
C66    C     0.42887   0.57804   0.42337   0.00000  Uiso   1.00
C67    C     0.46508   0.65204   0.80492   0.00000  Uiso   1.00
C68    C     0.51227   0.68130   0.83956   0.00000  Uiso   1.00
C69    C     0.54574   0.66016   0.93213   0.00000  Uiso   1.00
H70    H     0.38791   0.54020   0.85202   0.00000  Uiso   1.00
H71    H     0.29045   0.57430   0.92777   0.00000  Uiso   1.00
H72    H     0.39470   0.48816   0.64740   0.00000  Uiso   1.00
H73    H     0.47487   0.54451   0.99645   0.00000  Uiso   1.00
H74    H     0.18825   0.63357   0.98710   0.00000  Uiso   1.00
H75    H     0.40809   0.45193   0.39593   0.00000  Uiso   1.00
H76    H     0.57715   0.57074   0.13196   0.00000  Uiso   1.00
H77    H     0.43311   0.70558   0.66233   0.00000  Uiso   1.00
H78    H     0.33813   0.74876   0.72767   0.00000  Uiso   1.00
H79    H     0.44238   0.66262   0.44730   0.00000  Uiso   1.00
H80    H     0.52255   0.71896   0.79635   0.00000  Uiso   1.00
H81    H     0.22695   0.77517   0.82468   0.00000  Uiso   1.00
H82    H     0.44680   0.59353   0.23351   0.00000  Uiso   1.00
H83    H     0.61585   0.71234   0.96955   0.00000  Uiso   1.00
O84    O     0.14429   0.72978   0.95226   0.00000  Uiso   1.00
O85    O     0.43273   0.49148   0.17668   0.00000  Uiso   1.00
O86    O     0.65452   0.64736   0.14234   0.00000  Uiso   1.00
N87    N     0.21040   0.66097   0.93993   0.00000  Uiso   1.00
N88    N     0.41593   0.49115   0.38721   0.00000  Uiso   1.00
N89    N     0.57399   0.60222   0.07532   0.00000  Uiso   1.00
N90    N     0.23122   0.73716   0.85254   0.00000  Uiso   1.00
N91    N     0.43676   0.56734   0.29982   0.00000  Uiso   1.00
N92    N     0.59481   0.67841   0.98793   0.00000  Uiso   1.00
C93    C     0.60174   0.92191   0.30857   0.00000  Uiso   1.00
C94    C     0.64842   0.88044   0.32343   0.00000  Uiso   1.00
C95    C     0.69927   0.88802   0.38459   0.00000  Uiso   1.00
C96    C     0.73640   0.84516   0.38796   0.00000  Uiso   1.00
C97    C     0.81092   0.78819   0.41947   0.00000  Uiso   1.00
C98    C     0.59178   0.92725   0.17109   0.00000  Uiso   1.00
C99    C     0.59501   0.97418   0.10417   0.00000  Uiso   1.00
C100   C     0.58445   0.97072   0.97930   0.00000  Uiso   1.00
C101   C     0.57100   0.98642   0.77432   0.00000  Uiso   1.00
C102   C     0.54823   0.89663   0.36075   0.00000  Uiso   1.00
C103   C     0.51482   0.91783   0.45327   0.00000  Uiso   1.00
C104   C     0.46759   0.88860   0.48806   0.00000  Uiso   1.00
C105   C     0.38652   0.85676   0.57754   0.00000  Uiso   1.00
C106   C     0.57724   0.83231   0.20579   0.00000  Uiso   1.00
C107   C     0.63511   0.83178   0.26760   0.00000  Uiso   1.00
C108   C     0.67218   0.78889   0.27088   0.00000  Uiso   1.00
C109   C     0.72308   0.79641   0.33204   0.00000  Uiso   1.00
C110   C     0.57848   0.87858   0.11526   0.00000  Uiso   1.00
C111   C     0.56791   0.87505   0.99046   0.00000  Uiso   1.00
C112   C     0.57113   0.92196   0.92337   0.00000  Uiso   1.00
C113   C     0.53492   0.84796   0.30492   0.00000  Uiso   1.00
C114   C     0.48773   0.81870   0.33956   0.00000  Uiso   1.00
C115   C     0.45426   0.83984   0.43213   0.00000  Uiso   1.00
H116   H     0.61209   0.95980   0.35202   0.00000  Uiso   1.00
H117   H     0.70955   0.92570   0.42777   0.00000  Uiso   1.00
H118   H     0.60530   0.01184   0.14740   0.00000  Uiso   1.00
H119   H     0.52513   0.95549   0.49645   0.00000  Uiso   1.00
H120   H     0.81175   0.86643   0.48710   0.00000  Uiso   1.00
H121   H     0.59191   0.04807   0.89593   0.00000  Uiso   1.00
H122   H     0.42285   0.92926   0.63196   0.00000  Uiso   1.00
H123   H     0.56689   0.79442   0.16233   0.00000  Uiso   1.00
H124   H     0.66187   0.75124   0.22767   0.00000  Uiso   1.00
H125   H     0.55762   0.83738   0.94730   0.00000  Uiso   1.00
H126   H     0.47745   0.78104   0.29635   0.00000  Uiso   1.00
H127   H     0.77305   0.72483   0.32468   0.00000  Uiso   1.00
H128   H     0.55320   0.90647   0.73351   0.00000  Uiso   1.00
H129   H     0.38415   0.78766   0.46955   0.00000  Uiso   1.00
O130   O     0.85571   0.77022   0.45226   0.00000  Uiso   1.00
O131   O     0.56727   0.00852   0.67668   0.00000  Uiso   1.00
O132   O     0.34548   0.85264   0.64234   0.00000  Uiso   1.00
N133   N     0.78960   0.83903   0.43993   0.00000  Uiso   1.00
N134   N     0.58407   0.00885   0.88721   0.00000  Uiso   1.00
N135   N     0.42601   0.89778   0.57532   0.00000  Uiso   1.00
N136   N     0.76878   0.76284   0.35254   0.00000  Uiso   1.00
N137   N     0.56324   0.93266   0.79982   0.00000  Uiso   1.00
N138   N     0.40519   0.82159   0.48793   0.00000  Uiso   1.00
C139   C     0.60174   0.42191   0.80857   0.00000  Uiso   1.00
C140   C     0.64842   0.38044   0.82343   0.00000  Uiso   1.00
C141   C     0.69927   0.38802   0.88459   0.00000  Uiso   1.00
C142   C     0.73640   0.34516   0.88796   0.00000  Uiso   1.00
C143   C     0.81092   0.28819   0.91947   0.00000  Uiso   1.00
C144   C     0.59178   0.42725   0.67109   0.00000  Uiso   1.00
C145   C     0.59501   0.47418   0.60417   0.00000  Uiso   1.00
C146   C     0.58445   0.47072   0.47930   0.00000  Uiso   1.00
C147   C     0.57100   0.48642   0.27432   0.00000  Uiso   1.00
C148   C     0.54823   0.39663   0.86075   0.00000  Uiso   1.00
C149   C     0.51482   0.41783   0.95327   0.00000  Uiso   1.00
C150   C     0.46759   0.38860   0.98806   0.00000  Uiso   1.00
C151   C     0.38652   0.35676   0.07754   0.00000  Uiso   1.00
C152   C     0.57724   0.33231   0.70579   0.00000  Uiso   1.00
C153   C     0.63511   0.33178   0.76760   0.00000  Uiso   1.00
C154   C     0.67218   0.28889   0.77088   0.00000  Uiso   1.00
C155   C     0.72308   0.29641   0.83204   0.00000  Uiso   1.00
C156   C     0.57848   0.37858   0.61526   0.00000  Uiso   1.00
C157   C     0.56791   0.37505   0.49046   0.00000  Uiso   1.00
C158   C     0.57113   0.42196   0.42337   0.00000  Uiso   1.00
C159   C     0.53492   0.34796   0.80492   0.00000  Uiso   1.00
C160   C     0.48773   0.31870   0.83956   0.00000  Uiso   1.00
C161   C     0.45426   0.33984   0.93213   0.00000  Uiso   1.00
H162   H     0.61209   0.45980   0.85202   0.00000  Uiso   1.00
H163   H     0.70955   0.42570   0.92777   0.00000  Uiso   1.00
H164   H     0.60530   0.51184   0.64740   0.00000  Uiso   1.00
H165   H     0.52513   0.45549   0.99645   0.00000  Uiso   1.00
H166   H     0.81175   0.36643   0.98710   0.00000  Uiso   1.00
H167   H     0.59191   0.54807   0.39593   0.00000  Uiso   1.00
H168   H     0.42285   0.42926   0.13196   0.00000  Uiso   1.00
H169   H     0.56689   0.29442   0.66233   0.00000  Uiso   1.00
H170   H     0.66187   0.25124   0.72767   0.00000  Uiso   1.00
H171   H     0.55762   0.33738   0.44730   0.00000  Uiso   1.00
H172   H     0.47745   0.28104   0.79635   0.00000  Uiso   1.00
H173   H     0.77305   0.22483   0.82468   0.00000  Uiso   1.00
H174   H     0.55320   0.40647   0.23351   0.00000  Uiso   1.00
H175   H     0.38415   0.28766   0.96955   0.00000  Uiso   1.00
O176   O     0.85571   0.27022   0.95226   0.00000  Uiso   1.00
O177   O     0.56727   0.50852   0.17668   0.00000  Uiso   1.00
O178   O     0.34548   0.35264   0.14234   0.00000  Uiso   1.00
N179   N     0.78960   0.33903   0.93993   0.00000  Uiso   1.00
N180   N     0.58407   0.50885   0.38721   0.00000  Uiso   1.00
N181   N     0.42601   0.39778   0.07532   0.00000  Uiso   1.00
N182   N     0.76878   0.26284   0.85254   0.00000  Uiso   1.00
N183   N     0.56324   0.43266   0.29982   0.00000  Uiso   1.00
N184   N     0.40519   0.32159   0.98793   0.00000  Uiso   1.00
C185   C     0.89826   0.42191   0.30857   0.00000  Uiso   1.00
C186   C     0.85158   0.38044   0.32343   0.00000  Uiso   1.00
C187   C     0.80073   0.38802   0.38459   0.00000  Uiso   1.00
C188   C     0.76360   0.34516   0.38796   0.00000  Uiso   1.00
C189   C     0.68908   0.28819   0.41947   0.00000  Uiso   1.00
C190   C     0.90822   0.42725   0.17109   0.00000  Uiso   1.00
C191   C     0.90499   0.47418   0.10417   0.00000  Uiso   1.00
C192   C     0.91555   0.47072   0.97930   0.00000  Uiso   1.00
C193   C     0.92900   0.48642   0.77432   0.00000  Uiso   1.00
C194   C     0.95177   0.39663   0.36075   0.00000  Uiso   1.00
C195   C     0.98518   0.41783   0.45327   0.00000  Uiso   1.00
C196   C     0.03241   0.38860   0.48806   0.00000  Uiso   1.00
C197   C     0.11348   0.35676   0.57754   0.00000  Uiso   1.00
C198   C     0.92276   0.33231   0.20579   0.00000  Uiso   1.00
C199   C     0.86489   0.33178   0.26760   0.00000  Uiso   1.00
C200   C     0.82782   0.28889   0.27088   0.00000  Uiso   1.00
C201   C     0.77692   0.29641   0.33204   0.00000  Uiso   1.00
C202   C     0.92152   0.37858   0.11526   0.00000  Uiso   1.00
C203   C     0.93209   0.37505   0.99046   0.00000  Uiso   1.00
C204   C     0.92887   0.42196   0.92337   0.00000  Uiso   1.00
C205   C     0.96508   0.34796   0.30492   0.00000  Uiso   1.00
C206   C     0.01227   0.31870   0.33956   0.00000  Uiso   1.00
C207   C     0.04574   0.33984   0.43213   0.00000  Uiso   1.00
H208   H     0.88791   0.45980   0.35202   0.00000  Uiso   1.00
H209   H     0.79045   0.42570   0.42777   0.00000  Uiso   1.00
H210   H     0.89470   0.51184   0.14740   0.00000  Uiso   1.00
H211   H     0.97487   0.45549   0.49645   0.00000  Uiso   1.00
H212   H     0.68825   0.36643   0.48710   0.00000  Uiso   1.00
H213   H     0.90809   0.54807   0.89593   0.00000  Uiso   1.00
H214   H     0.07715   0.42926   0.63196   0.00000  Uiso   1.00
H215   H     0.93311   0.29442   0.16233   0.00000  Uiso   1.00
H216   H     0.83813   0.25124   0.22767   0.00000  Uiso   1.00
H217   H     0.94238   0.33738   0.94730   0.00000  Uiso   1.00
H218   H     0.02255   0.28104   0.29635   0.00000  Uiso   1.00
H219   H     0.72695   0.22483   0.32468   0.00000  Uiso   1.00
H220   H     0.94680   0.40647   0.73351   0.00000  Uiso   1.00
H221   H     0.11585   0.28766   0.46955   0.00000  Uiso   1.00
O222   O     0.64429   0.27022   0.45226   0.00000  Uiso   1.00
O223   O     0.93273   0.50852   0.67668   0.00000  Uiso   1.00
O224   O     0.15452   0.35264   0.64234   0.00000  Uiso   1.00
N225   N     0.71040   0.33903   0.43993   0.00000  Uiso   1.00
N226   N     0.91593   0.50885   0.88721   0.00000  Uiso   1.00
N227   N     0.07399   0.39778   0.57532   0.00000  Uiso   1.00
N228   N     0.73122   0.26284   0.35254   0.00000  Uiso   1.00
N229   N     0.93676   0.43266   0.79982   0.00000  Uiso   1.00
N230   N     0.09481   0.32159   0.48793   0.00000  Uiso   1.00
C231   C     0.89826   0.92191   0.80857   0.00000  Uiso   1.00
C232   C     0.85158   0.88044   0.82343   0.00000  Uiso   1.00
C233   C     0.80073   0.88802   0.88459   0.00000  Uiso   1.00
C234   C     0.76360   0.84516   0.88796   0.00000  Uiso   1.00
C235   C     0.68908   0.78819   0.91947   0.00000  Uiso   1.00
C236   C     0.90822   0.92725   0.67109   0.00000  Uiso   1.00
C237   C     0.90499   0.97418   0.60417   0.00000  Uiso   1.00
C238   C     0.91555   0.97072   0.47930   0.00000  Uiso   1.00
C239   C     0.92900   0.98642   0.27432   0.00000  Uiso   1.00
C240   C     0.95177   0.89663   0.86075   0.00000  Uiso   1.00
C241   C     0.98518   0.91783   0.95327   0.00000  Uiso   1.00
C242   C     0.03241   0.88860   0.98806   0.00000  Uiso   1.00
C243   C     0.11348   0.85676   0.07754   0.00000  Uiso   1.00
C244   C     0.92276   0.83231   0.70579   0.00000  Uiso   1.00
C245   C     0.86489   0.83178   0.76760   0.00000  Uiso   1.00
C246   C     0.82782   0.78889   0.77088   0.00000  Uiso   1.00
C247   C     0.77692   0.79641   0.83204   0.00000  Uiso   1.00
C248   C     0.92152   0.87858   0.61526   0.00000  Uiso   1.00
C249   C     0.93209   0.87505   0.49046   0.00000  Uiso   1.00
C250   C     0.92887   0.92196   0.42337   0.00000  Uiso   1.00
C251   C     0.96508   0.84796   0.80492   0.00000  Uiso   1.00
C252   C     0.01227   0.81870   0.83956   0.00000  Uiso   1.00
C253   C     0.04574   0.83984   0.93213   0.00000  Uiso   1.00
H254   H     0.88791   0.95980   0.85202   0.00000  Uiso   1.00
H255   H     0.79045   0.92570   0.92777   0.00000  Uiso   1.00
H256   H     0.89470   0.01184   0.64740   0.00000  Uiso   1.00
H257   H     0.97487   0.95549   0.99645   0.00000  Uiso   1.00
H258   H     0.68825   0.86643   0.98710   0.00000  Uiso   1.00
H259   H     0.90809   0.04807   0.39593   0.00000  Uiso   1.00
H260   H     0.07715   0.92926   0.13196   0.00000  Uiso   1.00
H261   H     0.93311   0.79442   0.66233   0.00000  Uiso   1.00
H262   H     0.83813   0.75124   0.72767   0.00000  Uiso   1.00
H263   H     0.94238   0.83738   0.44730   0.00000  Uiso   1.00
H264   H     0.02255   0.78104   0.79635   0.00000  Uiso   1.00
H265   H     0.72695   0.72483   0.82468   0.00000  Uiso   1.00
H266   H     0.94680   0.90647   0.23351   0.00000  Uiso   1.00
H267   H     0.11585   0.78766   0.96955   0.00000  Uiso   1.00
O268   O     0.64429   0.77022   0.95226   0.00000  Uiso   1.00
O269   O     0.93273   0.00852   0.17668   0.00000  Uiso   1.00
O270   O     0.15452   0.85264   0.14234   0.00000  Uiso   1.00
N271   N     0.71040   0.83903   0.93993   0.00000  Uiso   1.00
N272   N     0.91593   0.00885   0.38721   0.00000  Uiso   1.00
N273   N     0.07399   0.89778   0.07532   0.00000  Uiso   1.00
N274   N     0.73122   0.76284   0.85254   0.00000  Uiso   1.00
N275   N     0.93676   0.93266   0.29982   0.00000  Uiso   1.00
N276   N     0.09481   0.82159   0.98793   0.00000  Uiso   1.00
C277   C     0.10174   0.57809   0.30857   0.00000  Uiso   1.00
C278   C     0.14842   0.61956   0.32343   0.00000  Uiso   1.00
C279   C     0.19927   0.61198   0.38459   0.00000  Uiso   1.00
C280   C     0.23640   0.65484   0.38796   0.00000  Uiso   1.00
C281   C     0.31092   0.71181   0.41947   0.00000  Uiso   1.00
C282   C     0.09178   0.57275   0.17109   0.00000  Uiso   1.00
C283   C     0.09501   0.52582   0.10417   0.00000  Uiso   1.00
C284   C     0.08445   0.52928   0.97930   0.00000  Uiso   1.00
C285   C     0.07100   0.51358   0.77432   0.00000  Uiso   1.00
C286   C     0.04823   0.60337   0.36075   0.00000  Uiso   1.00
C287   C     0.01482   0.58217   0.45327   0.00000  Uiso   1.00
C288   C     0.96759   0.61140   0.48806   0.00000  Uiso   1.00
C289   C     0.88652   0.64324   0.57754   0.00000  Uiso   1.00
C290   C     0.07724   0.66769   0.20579   0.00000  Uiso   1.00
C291   C     0.13511   0.66822   0.26760   0.00000  Uiso   1.00
C292   C     0.17218   0.71111   0.27088   0.00000  Uiso   1.00
C293   C     0.22308   0.70359   0.33204   0.00000  Uiso   1.00
C294   C     0.07848   0.62142   0.11526   0.00000  Uiso   1.00
C295   C     0.06791   0.62495   0.99046   0.00000  Uiso   1.00
C296   C     0.07113   0.57804   0.92337   0.00000  Uiso   1.00
C297   C     0.03492   0.65204   0.30492   0.00000  Uiso   1.00
C298   C     0.98773   0.68130   0.33956   0.00000  Uiso   1.00
C299   C     0.95426   0.66016   0.43213   0.00000  Uiso   1.00
H300   H     0.11209   0.54020   0.35202   0.00000  Uiso   1.00
H301   H     0.20955   0.57430   0.42777   0.00000  Uiso   1.00
H302   H     0.10530   0.48816   0.14740   0.00000  Uiso   1.00
H303   H     0.02513   0.54451   0.49645   0.00000  Uiso   1.00
H304   H     0.31175   0.63357   0.48710   0.00000  Uiso   1.00
H305   H     0.09191   0.45193   0.89593   0.00000  Uiso   1.00
H306   H     0.92285   0.57074   0.63196   0.00000  Uiso   1.00
H307   H     0.06689   0.70558   0.16233   0.00000  Uiso   1.00
H308   H     0.16187   0.74876   0.22767   0.00000  Uiso   1.00
H309   H     0.05762   0.66262   0.94730   0.00000  Uiso   1.00
H310   H     0.97745   0.71896   0.29635   0.00000  Uiso   1.00
H311   H     0.27305   0.77517   0.32468   0.00000  Uiso   1.00
H312   H     0.05320   0.59353   0.73351   0.00000  Uiso   1.00
H313   H     0.88415   0.71234   0.46955   0.00000  Uiso   1.00
O314   O     0.35571   0.72978   0.45226   0.00000  Uiso   1.00
O315   O     0.06727   0.49148   0.67668   0.00000  Uiso   1.00
O316   O     0.84548   0.64736   0.64234   0.00000  Uiso   1.00
N317   N     0.28960   0.66097   0.43993   0.00000  Uiso   1.00
N318   N     0.08407   0.49115   0.88721   0.00000  Uiso   1.00
N319   N     0.92601   0.60222   0.57532   0.00000  Uiso   1.00
N320   N     0.26878   0.73716   0.35254   0.00000  Uiso   1.00
N321   N     0.06324   0.56734   0.79982   0.00000  Uiso   1.00
N322   N     0.90519   0.67841   0.48793   0.00000  Uiso   1.00
C323   C     0.10174   0.07809   0.80857   0.00000  Uiso   1.00
C324   C     0.14842   0.11956   0.82343   0.00000  Uiso   1.00
C325   C     0.19927   0.11198   0.88459   0.00000  Uiso   1.00
C326   C     0.23640   0.15484   0.88796   0.00000  Uiso   1.00
C327   C     0.31092   0.21181   0.91947   0.00000  Uiso   1.00
C328   C     0.09178   0.07275   0.67109   0.00000  Uiso   1.00
C329   C     0.09501   0.02582   0.60417   0.00000  Uiso   1.00
C330   C     0.08445   0.02928   0.47930   0.00000  Uiso   1.00
C331   C     0.07100   0.01358   0.27432   0.00000  Uiso   1.00
C332   C     0.04823   0.10337   0.86075   0.00000  Uiso   1.00
C333   C     0.01482   0.08217   0.95327   0.00000  Uiso   1.00
C334   C     0.96759   0.11140   0.98806   0.00000  Uiso   1.00
C335   C     0.88652   0.14324   0.07754   0.00000  Uiso   1.00
C336   C     0.07724   0.16769   0.70579   0.00000  Uiso   1.00
C337   C     0.13511   0.16822   0.76760   0.00000  Uiso   1.00
C338   C     0.17218   0.21111   0.77088   0.00000  Uiso   1.00
C339   C     0.22308   0.20359   0.83204   0.00000  Uiso   1.00
C340   C     0.07848   0.12142   0.61526   0.00000  Uiso   1.00
C341   C     0.06791   0.12495   0.49046   0.00000  Uiso   1.00
C342   C     0.07113   0.07804   0.42337   0.00000  Uiso   1.00
C343   C     0.03492   0.15204   0.80492   0.00000  Uiso   1.00
C344   C     0.98773   0.18130   0.83956   0.00000  Uiso   1.00
C345   C     0.95426   0.16016   0.93213   0.00000  Uiso   1.00
H346   H     0.11209   0.04020   0.85202   0.00000  Uiso   1.00
H347   H     0.20955   0.07430   0.92777   0.00000  Uiso   1.00
H348   H     0.10530   0.98816   0.64740   0.00000  Uiso   1.00
H349   H     0.02513   0.04451   0.99645   0.00000  Uiso   1.00
H350   H     0.31175   0.13357   0.98710   0.00000  Uiso   1.00
H351   H     0.09191   0.95193   0.39593   0.00000  Uiso   1.00
H352   H     0.92285   0.07074   0.13196   0.00000  Uiso   1.00
H353   H     0.06689   0.20558   0.66233   0.00000  Uiso   1.00
H354   H     0.16187   0.24876   0.72767   0.00000  Uiso   1.00
H355   H     0.05762   0.16262   0.44730   0.00000  Uiso   1.00
H356   H     0.97745   0.21896   0.79635   0.00000  Uiso   1.00
H357   H     0.27305   0.27517   0.82468   0.00000  Uiso   1.00
H358   H     0.05320   0.09353   0.23351   0.00000  Uiso   1.00
H359   H     0.88415   0.21234   0.96955   0.00000  Uiso   1.00
O360   O     0.35571   0.22978   0.95226   0.00000  Uiso   1.00
O361   O     0.06727   0.99148   0.17668   0.00000  Uiso   1.00
O362   O     0.84548   0.14736   0.14234   0.00000  Uiso   1.00
N363   N     0.28960   0.16097   0.93993   0.00000  Uiso   1.00
N364   N     0.08407   0.99115   0.38721   0.00000  Uiso   1.00
N365   N     0.92601   0.10222   0.07532   0.00000  Uiso   1.00
N366   N     0.26878   0.23716   0.85254   0.00000  Uiso   1.00
N367   N     0.06324   0.06734   0.29982   0.00000  Uiso   1.00
N368   N     0.90519   0.17841   0.98793   0.00000  Uiso   1.00
