data_job_03599
_audit_creation_date              2018-12-19
_audit_creation_method            'Materials Studio'
_symmetry_space_group_name_H-M    'P1'
_symmetry_Int_Tables_number       1
_symmetry_cell_setting            triclinic
loop_
_symmetry_equiv_pos_as_xyz
  x,y,z
_cell_length_a                    12.5415
_cell_length_b                    17.2893
_cell_length_c                    17.4736
_cell_angle_alpha                 90.0000
_cell_angle_beta                  82.1272
_cell_angle_gamma                 90.0000
loop_
_atom_site_label
_atom_site_type_symbol
_atom_site_fract_x
_atom_site_fract_y
_atom_site_fract_z
_atom_site_U_iso_or_equiv
_atom_site_adp_type
_atom_site_occupancy
C1     C     0.78390   0.48882   0.90087   0.00000  Uiso   1.00
C2     C     0.68396   0.51291   0.86598   0.00000  Uiso   1.00
C3     C     0.61549   0.57344   0.89146   0.00000  Uiso   1.00
C4     C     0.52844   0.58617   0.85182   0.00000  Uiso   1.00
C5     C     0.37595   0.63058   0.80722   0.00000  Uiso   1.00
C6     C     0.76813   0.40370   0.92237   0.00000  Uiso   1.00
C7     C     0.77045   0.37241   0.99527   0.00000  Uiso   1.00
C8     C     0.75425   0.29320   0.00309   0.00000  Uiso   1.00
C9     C     0.73252   0.16805   0.04603   0.00000  Uiso   1.00
C10    C     0.87707   0.49157   0.83497   0.00000  Uiso   1.00
C11    C     0.97100   0.53413   0.83439   0.00000  Uiso   1.00
C12    C     0.04655   0.52888   0.76863   0.00000  Uiso   1.00
C13    C     0.19396   0.54016   0.67587   0.00000  Uiso   1.00
C14    C     0.75105   0.40380   0.78515   0.00000  Uiso   1.00
C15    C     0.66612   0.46673   0.80312   0.00000  Uiso   1.00
C16    C     0.57915   0.47937   0.76343   0.00000  Uiso   1.00
C17    C     0.51056   0.53991   0.78884   0.00000  Uiso   1.00
C18    C     0.75029   0.35752   0.85952   0.00000  Uiso   1.00
C19    C     0.73410   0.27834   0.86723   0.00000  Uiso   1.00
C20    C     0.73638   0.24693   0.94012   0.00000  Uiso   1.00
C21    C     0.85923   0.44539   0.77211   0.00000  Uiso   1.00
C22    C     0.93465   0.44007   0.70635   0.00000  Uiso   1.00
C23    C     0.02867   0.48262   0.70566   0.00000  Uiso   1.00
H24    H     0.79779   0.52477   0.94981   0.00000  Uiso   1.00
H25    H     0.62932   0.60916   0.94011   0.00000  Uiso   1.00
H26    H     0.78426   0.40816   0.04389   0.00000  Uiso   1.00
H27    H     0.98478   0.56986   0.88304   0.00000  Uiso   1.00
H28    H     0.43466   0.68234   0.90165   0.00000  Uiso   1.00
H29    H     0.76140   0.25851   0.12048   0.00000  Uiso   1.00
H30    H     0.18423   0.59950   0.78129   0.00000  Uiso   1.00
H31    H     0.73716   0.36784   0.73621   0.00000  Uiso   1.00
H32    H     0.56536   0.44362   0.71479   0.00000  Uiso   1.00
H33    H     0.72030   0.24262   0.81858   0.00000  Uiso   1.00
H34    H     0.92082   0.40432   0.65772   0.00000  Uiso   1.00
H35    H     0.38274   0.54798   0.71877   0.00000  Uiso   1.00
H36    H     0.70948   0.12415   0.93761   0.00000  Uiso   1.00
H37    H     0.13231   0.46514   0.59841   0.00000  Uiso   1.00
O38    O     0.29677   0.66783   0.79999   0.00000  Uiso   1.00
O39    O     0.72545   0.11178   0.08708   0.00000  Uiso   1.00
O40    O     0.28019   0.55915   0.64207   0.00000  Uiso   1.00
N41    N     0.44603   0.64033   0.86154   0.00000  Uiso   1.00
N42    N     0.75149   0.24408   0.06614   0.00000  Uiso   1.00
N43    N     0.14682   0.56285   0.74903   0.00000  Uiso   1.00
N44    N     0.41810   0.56803   0.76314   0.00000  Uiso   1.00
N45    N     0.72356   0.17178   0.96773   0.00000  Uiso   1.00
N46    N     0.11888   0.49056   0.65062   0.00000  Uiso   1.00
C47    C     0.21610   0.98882   0.59913   0.00000  Uiso   1.00
C48    C     0.31604   0.01291   0.63402   0.00000  Uiso   1.00
C49    C     0.38451   0.07344   0.60854   0.00000  Uiso   1.00
C50    C     0.47156   0.08617   0.64818   0.00000  Uiso   1.00
C51    C     0.62405   0.13058   0.69278   0.00000  Uiso   1.00
C52    C     0.23187   0.90370   0.57763   0.00000  Uiso   1.00
C53    C     0.22955   0.87241   0.50473   0.00000  Uiso   1.00
C54    C     0.24575   0.79320   0.49691   0.00000  Uiso   1.00
C55    C     0.26748   0.66805   0.45397   0.00000  Uiso   1.00
C56    C     0.12293   0.99157   0.66503   0.00000  Uiso   1.00
C57    C     0.02900   0.03413   0.66561   0.00000  Uiso   1.00
C58    C     0.95345   0.02888   0.73137   0.00000  Uiso   1.00
C59    C     0.80604   0.04016   0.82413   0.00000  Uiso   1.00
C60    C     0.24895   0.90380   0.71485   0.00000  Uiso   1.00
C61    C     0.33388   0.96673   0.69688   0.00000  Uiso   1.00
C62    C     0.42085   0.97937   0.73657   0.00000  Uiso   1.00
C63    C     0.48944   0.03991   0.71116   0.00000  Uiso   1.00
C64    C     0.24971   0.85752   0.64048   0.00000  Uiso   1.00
C65    C     0.26590   0.77834   0.63277   0.00000  Uiso   1.00
C66    C     0.26362   0.74693   0.55988   0.00000  Uiso   1.00
C67    C     0.14077   0.94539   0.72789   0.00000  Uiso   1.00
C68    C     0.06535   0.94007   0.79365   0.00000  Uiso   1.00
C69    C     0.97133   0.98262   0.79434   0.00000  Uiso   1.00
H70    H     0.20221   0.02477   0.55019   0.00000  Uiso   1.00
H71    H     0.37068   0.10916   0.55989   0.00000  Uiso   1.00
H72    H     0.21574   0.90816   0.45611   0.00000  Uiso   1.00
H73    H     0.01522   0.06986   0.61696   0.00000  Uiso   1.00
H74    H     0.56534   0.18234   0.59835   0.00000  Uiso   1.00
H75    H     0.23860   0.75851   0.37952   0.00000  Uiso   1.00
H76    H     0.81577   0.09950   0.71871   0.00000  Uiso   1.00
H77    H     0.26284   0.86784   0.76379   0.00000  Uiso   1.00
H78    H     0.43464   0.94362   0.78521   0.00000  Uiso   1.00
H79    H     0.27970   0.74262   0.68142   0.00000  Uiso   1.00
H80    H     0.07918   0.90432   0.84228   0.00000  Uiso   1.00
H81    H     0.61726   0.04798   0.78123   0.00000  Uiso   1.00
H82    H     0.29052   0.62415   0.56239   0.00000  Uiso   1.00
H83    H     0.86769   0.96514   0.90159   0.00000  Uiso   1.00
O84    O     0.70323   0.16783   0.70001   0.00000  Uiso   1.00
O85    O     0.27455   0.61178   0.41292   0.00000  Uiso   1.00
O86    O     0.71981   0.05915   0.85793   0.00000  Uiso   1.00
N87    N     0.55397   0.14033   0.63846   0.00000  Uiso   1.00
N88    N     0.24851   0.74408   0.43386   0.00000  Uiso   1.00
N89    N     0.85318   0.06285   0.75097   0.00000  Uiso   1.00
N90    N     0.58190   0.06803   0.73686   0.00000  Uiso   1.00
N91    N     0.27644   0.67178   0.53227   0.00000  Uiso   1.00
N92    N     0.88112   0.99056   0.84938   0.00000  Uiso   1.00
C93    C     0.21610   0.51118   0.09913   0.00000  Uiso   1.00
C94    C     0.31604   0.48709   0.13402   0.00000  Uiso   1.00
C95    C     0.38451   0.42656   0.10854   0.00000  Uiso   1.00
C96    C     0.47156   0.41383   0.14818   0.00000  Uiso   1.00
C97    C     0.62405   0.36942   0.19278   0.00000  Uiso   1.00
C98    C     0.23187   0.59630   0.07763   0.00000  Uiso   1.00
C99    C     0.22955   0.62759   0.00473   0.00000  Uiso   1.00
C100   C     0.24575   0.70680   0.99691   0.00000  Uiso   1.00
C101   C     0.26748   0.83195   0.95397   0.00000  Uiso   1.00
C102   C     0.12293   0.50843   0.16503   0.00000  Uiso   1.00
C103   C     0.02900   0.46587   0.16561   0.00000  Uiso   1.00
C104   C     0.95345   0.47112   0.23137   0.00000  Uiso   1.00
C105   C     0.80604   0.45984   0.32413   0.00000  Uiso   1.00
C106   C     0.24895   0.59620   0.21485   0.00000  Uiso   1.00
C107   C     0.33388   0.53327   0.19688   0.00000  Uiso   1.00
C108   C     0.42085   0.52063   0.23657   0.00000  Uiso   1.00
C109   C     0.48944   0.46009   0.21116   0.00000  Uiso   1.00
C110   C     0.24971   0.64248   0.14048   0.00000  Uiso   1.00
C111   C     0.26590   0.72166   0.13277   0.00000  Uiso   1.00
C112   C     0.26362   0.75307   0.05988   0.00000  Uiso   1.00
C113   C     0.14077   0.55461   0.22789   0.00000  Uiso   1.00
C114   C     0.06535   0.55993   0.29365   0.00000  Uiso   1.00
C115   C     0.97133   0.51738   0.29434   0.00000  Uiso   1.00
H116   H     0.20221   0.47523   0.05019   0.00000  Uiso   1.00
H117   H     0.37068   0.39084   0.05989   0.00000  Uiso   1.00
H118   H     0.21574   0.59184   0.95611   0.00000  Uiso   1.00
H119   H     0.01522   0.43014   0.11696   0.00000  Uiso   1.00
H120   H     0.56534   0.31766   0.09835   0.00000  Uiso   1.00
H121   H     0.23860   0.74149   0.87952   0.00000  Uiso   1.00
H122   H     0.81577   0.40050   0.21871   0.00000  Uiso   1.00
H123   H     0.26284   0.63216   0.26379   0.00000  Uiso   1.00
H124   H     0.43464   0.55638   0.28521   0.00000  Uiso   1.00
H125   H     0.27970   0.75738   0.18142   0.00000  Uiso   1.00
H126   H     0.07918   0.59568   0.34228   0.00000  Uiso   1.00
H127   H     0.61726   0.45202   0.28123   0.00000  Uiso   1.00
H128   H     0.29052   0.87585   0.06239   0.00000  Uiso   1.00
H129   H     0.86769   0.53486   0.40159   0.00000  Uiso   1.00
O130   O     0.70323   0.33217   0.20001   0.00000  Uiso   1.00
O131   O     0.27455   0.88822   0.91292   0.00000  Uiso   1.00
O132   O     0.71981   0.44085   0.35793   0.00000  Uiso   1.00
N133   N     0.55397   0.35967   0.13846   0.00000  Uiso   1.00
N134   N     0.24851   0.75592   0.93386   0.00000  Uiso   1.00
N135   N     0.85318   0.43715   0.25097   0.00000  Uiso   1.00
N136   N     0.58190   0.43197   0.23686   0.00000  Uiso   1.00
N137   N     0.27644   0.82822   0.03227   0.00000  Uiso   1.00
N138   N     0.88112   0.50944   0.34938   0.00000  Uiso   1.00
C139   C     0.78390   0.01118   0.40087   0.00000  Uiso   1.00
C140   C     0.68396   0.98709   0.36598   0.00000  Uiso   1.00
C141   C     0.61549   0.92656   0.39146   0.00000  Uiso   1.00
C142   C     0.52844   0.91383   0.35182   0.00000  Uiso   1.00
C143   C     0.37595   0.86942   0.30722   0.00000  Uiso   1.00
C144   C     0.76813   0.09630   0.42237   0.00000  Uiso   1.00
C145   C     0.77045   0.12759   0.49527   0.00000  Uiso   1.00
C146   C     0.75425   0.20680   0.50309   0.00000  Uiso   1.00
C147   C     0.73252   0.33195   0.54603   0.00000  Uiso   1.00
C148   C     0.87707   0.00843   0.33497   0.00000  Uiso   1.00
C149   C     0.97100   0.96587   0.33439   0.00000  Uiso   1.00
C150   C     0.04655   0.97112   0.26863   0.00000  Uiso   1.00
C151   C     0.19396   0.95984   0.17587   0.00000  Uiso   1.00
C152   C     0.75105   0.09620   0.28515   0.00000  Uiso   1.00
C153   C     0.66612   0.03327   0.30312   0.00000  Uiso   1.00
C154   C     0.57915   0.02063   0.26343   0.00000  Uiso   1.00
C155   C     0.51056   0.96009   0.28884   0.00000  Uiso   1.00
C156   C     0.75029   0.14248   0.35952   0.00000  Uiso   1.00
C157   C     0.73410   0.22166   0.36723   0.00000  Uiso   1.00
C158   C     0.73638   0.25307   0.44012   0.00000  Uiso   1.00
C159   C     0.85923   0.05461   0.27211   0.00000  Uiso   1.00
C160   C     0.93465   0.05993   0.20635   0.00000  Uiso   1.00
C161   C     0.02867   0.01738   0.20566   0.00000  Uiso   1.00
H162   H     0.79779   0.97523   0.44981   0.00000  Uiso   1.00
H163   H     0.62932   0.89084   0.44011   0.00000  Uiso   1.00
H164   H     0.78426   0.09184   0.54389   0.00000  Uiso   1.00
H165   H     0.98478   0.93014   0.38304   0.00000  Uiso   1.00
H166   H     0.43466   0.81766   0.40165   0.00000  Uiso   1.00
H167   H     0.76140   0.24149   0.62048   0.00000  Uiso   1.00
H168   H     0.18423   0.90050   0.28129   0.00000  Uiso   1.00
H169   H     0.73716   0.13216   0.23621   0.00000  Uiso   1.00
H170   H     0.56536   0.05638   0.21479   0.00000  Uiso   1.00
H171   H     0.72030   0.25738   0.31858   0.00000  Uiso   1.00
H172   H     0.92082   0.09568   0.15772   0.00000  Uiso   1.00
H173   H     0.38274   0.95202   0.21877   0.00000  Uiso   1.00
H174   H     0.70948   0.37585   0.43761   0.00000  Uiso   1.00
H175   H     0.13231   0.03486   0.09841   0.00000  Uiso   1.00
O176   O     0.29677   0.83217   0.29999   0.00000  Uiso   1.00
O177   O     0.72545   0.38822   0.58708   0.00000  Uiso   1.00
O178   O     0.28019   0.94085   0.14207   0.00000  Uiso   1.00
N179   N     0.44603   0.85967   0.36154   0.00000  Uiso   1.00
N180   N     0.75149   0.25592   0.56614   0.00000  Uiso   1.00
N181   N     0.14682   0.93715   0.24903   0.00000  Uiso   1.00
N182   N     0.41810   0.93197   0.26314   0.00000  Uiso   1.00
N183   N     0.72356   0.32822   0.46773   0.00000  Uiso   1.00
N184   N     0.11888   0.00944   0.15062   0.00000  Uiso   1.00
