data_job_03194
_audit_creation_date              2018-12-19
_audit_creation_method            'Materials Studio'
_symmetry_space_group_name_H-M    'P1'
_symmetry_Int_Tables_number       1
_symmetry_cell_setting            triclinic
loop_
_symmetry_equiv_pos_as_xyz
  x,y,z
_cell_length_a                    12.3550
_cell_length_b                    12.4512
_cell_length_c                    12.7549
_cell_angle_alpha                 93.1494
_cell_angle_beta                  117.3484
_cell_angle_gamma                 118.1788
loop_
_atom_site_label
_atom_site_type_symbol
_atom_site_fract_x
_atom_site_fract_y
_atom_site_fract_z
_atom_site_U_iso_or_equiv
_atom_site_adp_type
_atom_site_occupancy
C1     C     0.13518   0.94451   0.58460   0.00000  Uiso   1.00
C2     C     0.07882   0.83052   0.62852   0.00000  Uiso   1.00
C3     C     0.95495   0.77759   0.63368   0.00000  Uiso   1.00
C4     C     0.92185   0.67360   0.67663   0.00000  Uiso   1.00
C5     C     0.82104   0.50413   0.73934   0.00000  Uiso   1.00
C6     C     0.29376   0.04562   0.69300   0.00000  Uiso   1.00
C7     C     0.35059   0.17355   0.75237   0.00000  Uiso   1.00
C8     C     0.49843   0.25064   0.84959   0.00000  Uiso   1.00
C9     C     0.73132   0.41515   0.01235   0.00000  Uiso   1.00
C10    C     0.14367   0.89533   0.47827   0.00000  Uiso   1.00
C11    C     0.07434   0.89692   0.35708   0.00000  Uiso   1.00
C12    C     0.09585   0.84750   0.27353   0.00000  Uiso   1.00
C13    C     0.09571   0.77866   0.10288   0.00000  Uiso   1.00
C14    C     0.29670   0.85396   0.65169   0.00000  Uiso   1.00
C15    C     0.16656   0.78134   0.66496   0.00000  Uiso   1.00
C16    C     0.13364   0.67740   0.70791   0.00000  Uiso   1.00
C17    C     0.00973   0.62432   0.71314   0.00000  Uiso   1.00
C18    C     0.38148   0.99644   0.72945   0.00000  Uiso   1.00
C19    C     0.52928   0.07336   0.82660   0.00000  Uiso   1.00
C20    C     0.58632   0.20137   0.88610   0.00000  Uiso   1.00
C21    C     0.23139   0.84614   0.51471   0.00000  Uiso   1.00
C22    C     0.25303   0.79673   0.43132   0.00000  Uiso   1.00
C23    C     0.18374   0.79823   0.31004   0.00000  Uiso   1.00
H24    H     0.06690   0.98281   0.55623   0.00000  Uiso   1.00
H25    H     0.88709   0.81569   0.60548   0.00000  Uiso   1.00
H26    H     0.28267   0.21159   0.72413   0.00000  Uiso   1.00
H27    H     0.00646   0.93499   0.32892   0.00000  Uiso   1.00
H28    H     0.72646   0.60874   0.67619   0.00000  Uiso   1.00
H29    H     0.56058   0.44353   0.92636   0.00000  Uiso   1.00
H30    H     0.97814   0.86028   0.09297   0.00000  Uiso   1.00
H31    H     0.36501   0.81566   0.68007   0.00000  Uiso   1.00
H32    H     0.20155   0.63936   0.73611   0.00000  Uiso   1.00
H33    H     0.59714   0.03527   0.85477   0.00000  Uiso   1.00
H34    H     0.32093   0.75867   0.45956   0.00000  Uiso   1.00
H35    H     0.98169   0.46563   0.78223   0.00000  Uiso   1.00
H36    H     0.81582   0.30043   0.03239   0.00000  Uiso   1.00
H37    H     0.23337   0.71717   0.19900   0.00000  Uiso   1.00
O38    O     0.74120   0.42426   0.76388   0.00000  Uiso   1.00
O39    O     0.83554   0.51947   0.09207   0.00000  Uiso   1.00
O40    O     0.07138   0.75426   0.99869   0.00000  Uiso   1.00
N41    N     0.80895   0.59924   0.69343   0.00000  Uiso   1.00
N42    N     0.58879   0.37971   0.92734   0.00000  Uiso   1.00
N43    N     0.04429   0.83446   0.14820   0.00000  Uiso   1.00
N44    N     0.94628   0.52223   0.75049   0.00000  Uiso   1.00
N45    N     0.72613   0.30271   0.98439   0.00000  Uiso   1.00
N46    N     0.18163   0.75745   0.20525   0.00000  Uiso   1.00
C47    C     0.86482   0.05549   0.41540   0.00000  Uiso   1.00
C48    C     0.92118   0.16948   0.37148   0.00000  Uiso   1.00
C49    C     0.04505   0.22241   0.36632   0.00000  Uiso   1.00
C50    C     0.07815   0.32640   0.32337   0.00000  Uiso   1.00
C51    C     0.17896   0.49587   0.26066   0.00000  Uiso   1.00
C52    C     0.70624   0.95438   0.30700   0.00000  Uiso   1.00
C53    C     0.64941   0.82645   0.24763   0.00000  Uiso   1.00
C54    C     0.50157   0.74936   0.15041   0.00000  Uiso   1.00
C55    C     0.26868   0.58485   0.98765   0.00000  Uiso   1.00
C56    C     0.85633   0.10467   0.52173   0.00000  Uiso   1.00
C57    C     0.92566   0.10308   0.64292   0.00000  Uiso   1.00
C58    C     0.90415   0.15250   0.72647   0.00000  Uiso   1.00
C59    C     0.90429   0.22134   0.89712   0.00000  Uiso   1.00
C60    C     0.70330   0.14604   0.34831   0.00000  Uiso   1.00
C61    C     0.83344   0.21866   0.33504   0.00000  Uiso   1.00
C62    C     0.86636   0.32260   0.29209   0.00000  Uiso   1.00
C63    C     0.99027   0.37568   0.28686   0.00000  Uiso   1.00
C64    C     0.61852   0.00356   0.27055   0.00000  Uiso   1.00
C65    C     0.47072   0.92664   0.17340   0.00000  Uiso   1.00
C66    C     0.41368   0.79863   0.11390   0.00000  Uiso   1.00
C67    C     0.76861   0.15386   0.48529   0.00000  Uiso   1.00
C68    C     0.74697   0.20327   0.56868   0.00000  Uiso   1.00
C69    C     0.81626   0.20177   0.68996   0.00000  Uiso   1.00
H70    H     0.93310   0.01719   0.44377   0.00000  Uiso   1.00
H71    H     0.11291   0.18431   0.39452   0.00000  Uiso   1.00
H72    H     0.71733   0.78841   0.27587   0.00000  Uiso   1.00
H73    H     0.99354   0.06501   0.67108   0.00000  Uiso   1.00
H74    H     0.27354   0.39126   0.32381   0.00000  Uiso   1.00
H75    H     0.43942   0.55647   0.07364   0.00000  Uiso   1.00
H76    H     0.02186   0.13972   0.90703   0.00000  Uiso   1.00
H77    H     0.63499   0.18434   0.31993   0.00000  Uiso   1.00
H78    H     0.79845   0.36064   0.26389   0.00000  Uiso   1.00
H79    H     0.40286   0.96473   0.14523   0.00000  Uiso   1.00
H80    H     0.67907   0.24133   0.54044   0.00000  Uiso   1.00
H81    H     0.01831   0.53437   0.21777   0.00000  Uiso   1.00
H82    H     0.18418   0.69957   0.96761   0.00000  Uiso   1.00
H83    H     0.76663   0.28283   0.80100   0.00000  Uiso   1.00
O84    O     0.25880   0.57574   0.23612   0.00000  Uiso   1.00
O85    O     0.16446   0.48053   0.90793   0.00000  Uiso   1.00
O86    O     0.92862   0.24574   0.00131   0.00000  Uiso   1.00
N87    N     0.19105   0.40076   0.30657   0.00000  Uiso   1.00
N88    N     0.41121   0.62029   0.07266   0.00000  Uiso   1.00
N89    N     0.95571   0.16554   0.85180   0.00000  Uiso   1.00
N90    N     0.05372   0.47777   0.24951   0.00000  Uiso   1.00
N91    N     0.27387   0.69729   0.01561   0.00000  Uiso   1.00
N92    N     0.81837   0.24255   0.79475   0.00000  Uiso   1.00
