data_job_06176
_audit_creation_date              2018-12-19
_audit_creation_method            'Materials Studio'
_symmetry_space_group_name_H-M    'P1'
_symmetry_Int_Tables_number       1
_symmetry_cell_setting            triclinic
loop_
_symmetry_equiv_pos_as_xyz
  x,y,z
_cell_length_a                    17.8470
_cell_length_b                    17.3395
_cell_length_c                    16.4384
_cell_angle_alpha                 104.6480
_cell_angle_beta                  104.9220
_cell_angle_gamma                 104.0010
loop_
_atom_site_label
_atom_site_type_symbol
_atom_site_fract_x
_atom_site_fract_y
_atom_site_fract_z
_atom_site_U_iso_or_equiv
_atom_site_adp_type
_atom_site_occupancy
C1     C     0.01874   0.23027   0.51734   0.00000  Uiso   1.00
C2     C     0.06040   0.32362   0.53507   0.00000  Uiso   1.00
C3     C     0.04121   0.36738   0.47705   0.00000  Uiso   1.00
C4     C     0.08646   0.45248   0.50563   0.00000  Uiso   1.00
C5     C     0.14172   0.59136   0.52042   0.00000  Uiso   1.00
C6     C     0.08700   0.19114   0.52786   0.00000  Uiso   1.00
C7     C     0.09017   0.12350   0.46378   0.00000  Uiso   1.00
C8     C     0.15781   0.09707   0.48631   0.00000  Uiso   1.00
C9     C     0.25434   0.03023   0.48992   0.00000  Uiso   1.00
C10    C     0.98727   0.22629   0.59459   0.00000  Uiso   1.00
C11    C     0.90659   0.18819   0.58662   0.00000  Uiso   1.00
C12    C     0.89027   0.19134   0.66533   0.00000  Uiso   1.00
C13    C     0.83195   0.17908   0.77255   0.00000  Uiso   1.00
C14    C     0.13323   0.30360   0.67127   0.00000  Uiso   1.00
C15    C     0.12259   0.36345   0.61868   0.00000  Uiso   1.00
C16    C     0.16788   0.44850   0.64736   0.00000  Uiso   1.00
C17    C     0.14875   0.49238   0.58939   0.00000  Uiso   1.00
C18    C     0.14919   0.23096   0.61146   0.00000  Uiso   1.00
C19    C     0.21684   0.20463   0.63409   0.00000  Uiso   1.00
C20    C     0.22011   0.13697   0.57007   0.00000  Uiso   1.00
C21    C     0.04946   0.26612   0.67820   0.00000  Uiso   1.00
C22    C     0.03326   0.26932   0.75693   0.00000  Uiso   1.00
C23    C     0.95257   0.23124   0.74909   0.00000  Uiso   1.00
H24    H     0.97033   0.19926   0.45225   0.00000  Uiso   1.00
H25    H     0.99308   0.33653   0.41235   0.00000  Uiso   1.00
H26    H     0.04203   0.09269   0.39909   0.00000  Uiso   1.00
H27    H     0.85848   0.15737   0.52191   0.00000  Uiso   1.00
H28    H     0.04576   0.50628   0.40497   0.00000  Uiso   1.00
H29    H     0.14896   0.99210   0.37702   0.00000  Uiso   1.00
H30    H     0.76190   0.12850   0.63602   0.00000  Uiso   1.00
H31    H     0.18164   0.33460   0.73637   0.00000  Uiso   1.00
H32    H     0.21600   0.47931   0.71206   0.00000  Uiso   1.00
H33    H     0.26495   0.23546   0.69880   0.00000  Uiso   1.00
H34    H     0.08140   0.30015   0.82162   0.00000  Uiso   1.00
H35    H     0.22669   0.62216   0.64823   0.00000  Uiso   1.00
H36    H     0.32988   0.10798   0.62028   0.00000  Uiso   1.00
H37    H     0.94283   0.24438   0.87928   0.00000  Uiso   1.00
O38    O     0.15503   0.65696   0.50547   0.00000  Uiso   1.00
O39    O     0.29041   0.98237   0.46881   0.00000  Uiso   1.00
O40    O     0.78260   0.16133   0.80860   0.00000  Uiso   1.00
N41    N     0.08362   0.51370   0.46556   0.00000  Uiso   1.00
N42    N     0.18011   0.03298   0.43943   0.00000  Uiso   1.00
N43    N     0.81825   0.16048   0.68157   0.00000  Uiso   1.00
N44    N     0.18097   0.57605   0.59646   0.00000  Uiso   1.00
N45    N     0.27746   0.09533   0.57033   0.00000  Uiso   1.00
N46    N     0.91560   0.22284   0.81246   0.00000  Uiso   1.00
C47    C     0.52098   0.01833   0.22910   0.00000  Uiso   1.00
C48    C     0.53755   0.06168   0.32806   0.00000  Uiso   1.00
C49    C     0.48460   0.04280   0.37436   0.00000  Uiso   1.00
C50    C     0.51108   0.08967   0.46460   0.00000  Uiso   1.00
C51    C     0.52512   0.14735   0.61183   0.00000  Uiso   1.00
C52    C     0.53008   0.08823   0.18804   0.00000  Uiso   1.00
C53    C     0.47087   0.09166   0.11660   0.00000  Uiso   1.00
C54    C     0.49107   0.16088   0.08896   0.00000  Uiso   1.00
C55    C     0.49355   0.25975   0.01876   0.00000  Uiso   1.00
C56    C     0.59205   0.98515   0.22458   0.00000  Uiso   1.00
C57    C     0.58493   0.90192   0.18384   0.00000  Uiso   1.00
C58    C     0.65731   0.88436   0.18694   0.00000  Uiso   1.00
C59    C     0.75599   0.82319   0.17346   0.00000  Uiso   1.00
C60    C     0.66215   0.13515   0.30702   0.00000  Uiso   1.00
C61    C     0.61422   0.12513   0.37039   0.00000  Uiso   1.00
C62    C     0.64079   0.17204   0.46058   0.00000  Uiso   1.00
C63    C     0.58790   0.15323   0.50700   0.00000  Uiso   1.00
C64    C     0.60676   0.15167   0.23036   0.00000  Uiso   1.00
C65    C     0.62706   0.22090   0.20282   0.00000  Uiso   1.00
C66    C     0.56789   0.22444   0.13136   0.00000  Uiso   1.00
C67    C     0.66873   0.04860   0.26690   0.00000  Uiso   1.00
C68    C     0.74112   0.03117   0.27006   0.00000  Uiso   1.00
C69    C     0.73412   0.94793   0.22934   0.00000  Uiso   1.00
H70    H     0.46128   0.96894   0.19614   0.00000  Uiso   1.00
H71    H     0.42526   0.99370   0.34158   0.00000  Uiso   1.00
H72    H     0.41154   0.04255   0.08386   0.00000  Uiso   1.00
H73    H     0.52559   0.85284   0.15109   0.00000  Uiso   1.00
H74    H     0.41913   0.04915   0.52149   0.00000  Uiso   1.00
H75    H     0.39020   0.15214   0.97805   0.00000  Uiso   1.00
H76    H     0.63070   0.75210   0.11981   0.00000  Uiso   1.00
H77    H     0.72185   0.18455   0.33997   0.00000  Uiso   1.00
H78    H     0.70013   0.22114   0.49331   0.00000  Uiso   1.00
H79    H     0.68640   0.26999   0.23559   0.00000  Uiso   1.00
H80    H     0.80045   0.08028   0.30282   0.00000  Uiso   1.00
H81    H     0.64223   0.23375   0.64464   0.00000  Uiso   1.00
H82    H     0.61329   0.33674   0.10119   0.00000  Uiso   1.00
H83    H     0.85379   0.93671   0.24296   0.00000  Uiso   1.00
O84    O     0.51168   0.16165   0.68134   0.00000  Uiso   1.00
O85    O     0.47372   0.29675   0.96834   0.00000  Uiso   1.00
O86    O     0.78925   0.77192   0.15435   0.00000  Uiso   1.00
N87    N     0.47463   0.08756   0.52943   0.00000  Uiso   1.00
N88    N     0.44757   0.18386   0.02135   0.00000  Uiso   1.00
N89    N     0.67241   0.80986   0.15387   0.00000  Uiso   1.00
N90    N     0.59467   0.18689   0.59570   0.00000  Uiso   1.00
N91    N     0.56761   0.28319   0.08762   0.00000  Uiso   1.00
N92    N     0.79245   0.90919   0.22014   0.00000  Uiso   1.00
C93    C     0.23075   0.51977   0.01662   0.00000  Uiso   1.00
C94    C     0.32178   0.53613   0.06239   0.00000  Uiso   1.00
C95    C     0.36446   0.48105   0.04205   0.00000  Uiso   1.00
C96    C     0.44744   0.50773   0.09162   0.00000  Uiso   1.00
C97    C     0.58287   0.52111   0.15246   0.00000  Uiso   1.00
C98    C     0.19338   0.53002   0.09070   0.00000  Uiso   1.00
C99    C     0.12810   0.46981   0.09414   0.00000  Uiso   1.00
C100   C     0.10299   0.49135   0.16754   0.00000  Uiso   1.00
C101   C     0.03904   0.49527   0.27229   0.00000  Uiso   1.00
C102   C     0.22607   0.59274   0.98190   0.00000  Uiso   1.00
C103   C     0.18825   0.58525   0.89387   0.00000  Uiso   1.00
C104   C     0.19064   0.65959   0.87568   0.00000  Uiso   1.00
C105   C     0.17744   0.76089   0.81151   0.00000  Uiso   1.00
C106   C     0.30223   0.66510   0.14084   0.00000  Uiso   1.00
C107   C     0.36060   0.61507   0.12987   0.00000  Uiso   1.00
C108   C     0.44354   0.64184   0.17949   0.00000  Uiso   1.00
C109   C     0.48633   0.58681   0.15922   0.00000  Uiso   1.00
C110   C     0.23220   0.60896   0.15817   0.00000  Uiso   1.00
C111   C     0.20718   0.63060   0.23158   0.00000  Uiso   1.00
C112   C     0.14188   0.57043   0.23514   0.00000  Uiso   1.00
C113   C     0.26489   0.67167   0.04938   0.00000  Uiso   1.00
C114   C     0.26733   0.74604   0.03131   0.00000  Uiso   1.00
C115   C     0.22953   0.73867   0.94327   0.00000  Uiso   1.00
H116   H     0.20052   0.45831   0.96409   0.00000  Uiso   1.00
H117   H     0.33439   0.41996   0.98983   0.00000  Uiso   1.00
H118   H     0.09806   0.40873   0.04191   0.00000  Uiso   1.00
H119   H     0.15821   0.52416   0.84168   0.00000  Uiso   1.00
H120   H     0.49992   0.41225   0.04815   0.00000  Uiso   1.00
H121   H     0.00159   0.38857   0.15795   0.00000  Uiso   1.00
H122   H     0.12842   0.63197   0.73571   0.00000  Uiso   1.00
H123   H     0.33245   0.72655   0.19338   0.00000  Uiso   1.00
H124   H     0.47357   0.70293   0.23170   0.00000  Uiso   1.00
H125   H     0.23723   0.69169   0.28378   0.00000  Uiso   1.00
H126   H     0.29738   0.80711   0.08354   0.00000  Uiso   1.00
H127   H     0.61288   0.64191   0.24446   0.00000  Uiso   1.00
H128   H     0.11454   0.61823   0.35425   0.00000  Uiso   1.00
H129   H     0.24138   0.86163   0.93202   0.00000  Uiso   1.00
O130   O     0.64684   0.50668   0.16739   0.00000  Uiso   1.00
O131   O     0.99304   0.47562   0.31144   0.00000  Uiso   1.00
O132   O     0.15945   0.79495   0.75747   0.00000  Uiso   1.00
N133   N     0.50715   0.46955   0.08908   0.00000  Uiso   1.00
N134   N     0.04124   0.44740   0.19174   0.00000  Uiso   1.00
N135   N     0.15980   0.67496   0.79699   0.00000  Uiso   1.00
N136   N     0.56793   0.59313   0.19471   0.00000  Uiso   1.00
N137   N     0.10202   0.57098   0.29737   0.00000  Uiso   1.00
N138   N     0.22058   0.79854   0.90262   0.00000  Uiso   1.00
C139   C     0.98126   0.76973   0.48266   0.00000  Uiso   1.00
C140   C     0.93960   0.67638   0.46493   0.00000  Uiso   1.00
C141   C     0.95879   0.63262   0.52295   0.00000  Uiso   1.00
C142   C     0.91354   0.54752   0.49437   0.00000  Uiso   1.00
C143   C     0.85828   0.40864   0.47958   0.00000  Uiso   1.00
C144   C     0.91300   0.80886   0.47214   0.00000  Uiso   1.00
C145   C     0.90983   0.87650   0.53622   0.00000  Uiso   1.00
C146   C     0.84219   0.90293   0.51369   0.00000  Uiso   1.00
C147   C     0.74566   0.96977   0.51008   0.00000  Uiso   1.00
C148   C     0.01273   0.77371   0.40541   0.00000  Uiso   1.00
C149   C     0.09341   0.81181   0.41338   0.00000  Uiso   1.00
C150   C     0.10973   0.80866   0.33467   0.00000  Uiso   1.00
C151   C     0.16805   0.82092   0.22745   0.00000  Uiso   1.00
C152   C     0.86677   0.69640   0.32873   0.00000  Uiso   1.00
C153   C     0.87741   0.63655   0.38132   0.00000  Uiso   1.00
C154   C     0.83212   0.55150   0.35264   0.00000  Uiso   1.00
C155   C     0.85125   0.50762   0.41061   0.00000  Uiso   1.00
C156   C     0.85081   0.76904   0.38854   0.00000  Uiso   1.00
C157   C     0.78316   0.79538   0.36591   0.00000  Uiso   1.00
C158   C     0.77989   0.86303   0.42993   0.00000  Uiso   1.00
C159   C     0.95054   0.73388   0.32180   0.00000  Uiso   1.00
C160   C     0.96674   0.73068   0.24307   0.00000  Uiso   1.00
C161   C     0.04743   0.76877   0.25091   0.00000  Uiso   1.00
H162   H     0.02967   0.80074   0.54775   0.00000  Uiso   1.00
H163   H     0.00692   0.66347   0.58765   0.00000  Uiso   1.00
H164   H     0.95797   0.90731   0.60091   0.00000  Uiso   1.00
H165   H     0.14152   0.84263   0.47809   0.00000  Uiso   1.00
H166   H     0.95424   0.49372   0.59503   0.00000  Uiso   1.00
H167   H     0.85104   0.00790   0.62298   0.00000  Uiso   1.00
H168   H     0.23810   0.87150   0.36398   0.00000  Uiso   1.00
H169   H     0.81836   0.66540   0.26363   0.00000  Uiso   1.00
H170   H     0.78400   0.52069   0.28794   0.00000  Uiso   1.00
H171   H     0.73505   0.76454   0.30120   0.00000  Uiso   1.00
H172   H     0.91860   0.69985   0.17838   0.00000  Uiso   1.00
H173   H     0.77331   0.37784   0.35177   0.00000  Uiso   1.00
H174   H     0.67012   0.89202   0.37972   0.00000  Uiso   1.00
H175   H     0.05717   0.75562   0.12072   0.00000  Uiso   1.00
O176   O     0.84497   0.34304   0.49453   0.00000  Uiso   1.00
O177   O     0.70959   0.01763   0.53119   0.00000  Uiso   1.00
O178   O     0.21740   0.83867   0.19140   0.00000  Uiso   1.00
N179   N     0.91638   0.48630   0.53444   0.00000  Uiso   1.00
N180   N     0.81989   0.96702   0.56057   0.00000  Uiso   1.00
N181   N     0.18175   0.83952   0.31843   0.00000  Uiso   1.00
N182   N     0.81903   0.42395   0.40354   0.00000  Uiso   1.00
N183   N     0.72254   0.90467   0.42967   0.00000  Uiso   1.00
N184   N     0.08440   0.77716   0.18754   0.00000  Uiso   1.00
C185   C     0.47902   0.98167   0.77090   0.00000  Uiso   1.00
C186   C     0.46246   0.93832   0.67194   0.00000  Uiso   1.00
C187   C     0.51540   0.95720   0.62564   0.00000  Uiso   1.00
C188   C     0.48892   0.91033   0.53540   0.00000  Uiso   1.00
C189   C     0.47488   0.85265   0.38817   0.00000  Uiso   1.00
C190   C     0.46992   0.91177   0.81196   0.00000  Uiso   1.00
C191   C     0.52913   0.90834   0.88340   0.00000  Uiso   1.00
C192   C     0.50893   0.83912   0.91104   0.00000  Uiso   1.00
C193   C     0.50645   0.74025   0.98124   0.00000  Uiso   1.00
C194   C     0.40795   0.01485   0.77542   0.00000  Uiso   1.00
C195   C     0.41507   0.09808   0.81616   0.00000  Uiso   1.00
C196   C     0.34269   0.11564   0.81306   0.00000  Uiso   1.00
C197   C     0.24401   0.17681   0.82654   0.00000  Uiso   1.00
C198   C     0.33785   0.86485   0.69298   0.00000  Uiso   1.00
C199   C     0.38578   0.87487   0.62961   0.00000  Uiso   1.00
C200   C     0.35921   0.82796   0.53942   0.00000  Uiso   1.00
C201   C     0.41210   0.84677   0.49300   0.00000  Uiso   1.00
C202   C     0.39324   0.84833   0.76964   0.00000  Uiso   1.00
C203   C     0.37295   0.77910   0.79718   0.00000  Uiso   1.00
C204   C     0.43211   0.77556   0.86864   0.00000  Uiso   1.00
C205   C     0.33127   0.95140   0.73310   0.00000  Uiso   1.00
C206   C     0.25888   0.96883   0.72994   0.00000  Uiso   1.00
C207   C     0.26588   0.05207   0.77066   0.00000  Uiso   1.00
H208   H     0.53872   0.03106   0.80386   0.00000  Uiso   1.00
H209   H     0.57474   0.00630   0.65842   0.00000  Uiso   1.00
H210   H     0.58846   0.95745   0.91614   0.00000  Uiso   1.00
H211   H     0.47441   0.14716   0.84891   0.00000  Uiso   1.00
H212   H     0.58087   0.95085   0.47851   0.00000  Uiso   1.00
H213   H     0.60980   0.84786   0.02195   0.00000  Uiso   1.00
H214   H     0.36930   0.24790   0.88019   0.00000  Uiso   1.00
H215   H     0.27815   0.81545   0.66003   0.00000  Uiso   1.00
H216   H     0.29987   0.77886   0.50669   0.00000  Uiso   1.00
H217   H     0.31360   0.73001   0.76441   0.00000  Uiso   1.00
H218   H     0.19955   0.91972   0.69718   0.00000  Uiso   1.00
H219   H     0.35777   0.76625   0.35536   0.00000  Uiso   1.00
H220   H     0.38671   0.66326   0.89881   0.00000  Uiso   1.00
H221   H     0.14621   0.06329   0.75704   0.00000  Uiso   1.00
O222   O     0.48832   0.83835   0.31866   0.00000  Uiso   1.00
O223   O     0.52628   0.70325   0.03166   0.00000  Uiso   1.00
O224   O     0.21075   0.22808   0.84565   0.00000  Uiso   1.00
N225   N     0.52537   0.91244   0.47057   0.00000  Uiso   1.00
N226   N     0.55243   0.81614   0.97865   0.00000  Uiso   1.00
N227   N     0.32759   0.19014   0.84613   0.00000  Uiso   1.00
N228   N     0.40533   0.81311   0.40430   0.00000  Uiso   1.00
N229   N     0.43239   0.71681   0.91238   0.00000  Uiso   1.00
N230   N     0.20755   0.09081   0.77986   0.00000  Uiso   1.00
C231   C     0.76925   0.48023   0.98338   0.00000  Uiso   1.00
C232   C     0.67822   0.46387   0.93761   0.00000  Uiso   1.00
C233   C     0.63554   0.51895   0.95795   0.00000  Uiso   1.00
C234   C     0.55256   0.49227   0.90838   0.00000  Uiso   1.00
C235   C     0.41713   0.47889   0.84754   0.00000  Uiso   1.00
C236   C     0.80662   0.46998   0.90930   0.00000  Uiso   1.00
C237   C     0.87190   0.53019   0.90586   0.00000  Uiso   1.00
C238   C     0.89701   0.50865   0.83246   0.00000  Uiso   1.00
C239   C     0.96096   0.50473   0.72771   0.00000  Uiso   1.00
C240   C     0.77393   0.40726   0.01810   0.00000  Uiso   1.00
C241   C     0.81175   0.41475   0.10613   0.00000  Uiso   1.00
C242   C     0.80936   0.34041   0.12432   0.00000  Uiso   1.00
C243   C     0.82256   0.23911   0.18849   0.00000  Uiso   1.00
C244   C     0.69777   0.33490   0.85916   0.00000  Uiso   1.00
C245   C     0.63940   0.38493   0.87013   0.00000  Uiso   1.00
C246   C     0.55646   0.35816   0.82051   0.00000  Uiso   1.00
C247   C     0.51367   0.41319   0.84078   0.00000  Uiso   1.00
C248   C     0.76780   0.39104   0.84183   0.00000  Uiso   1.00
C249   C     0.79282   0.36940   0.76842   0.00000  Uiso   1.00
C250   C     0.85812   0.42957   0.76486   0.00000  Uiso   1.00
C251   C     0.73511   0.32833   0.95062   0.00000  Uiso   1.00
C252   C     0.73267   0.25396   0.96869   0.00000  Uiso   1.00
C253   C     0.77047   0.26133   0.05673   0.00000  Uiso   1.00
H254   H     0.79948   0.54169   0.03591   0.00000  Uiso   1.00
H255   H     0.66561   0.58004   0.01017   0.00000  Uiso   1.00
H256   H     0.90194   0.59127   0.95809   0.00000  Uiso   1.00
H257   H     0.84179   0.47584   0.15832   0.00000  Uiso   1.00
H258   H     0.50008   0.58775   0.95185   0.00000  Uiso   1.00
H259   H     0.99841   0.61143   0.84205   0.00000  Uiso   1.00
H260   H     0.87158   0.36803   0.26429   0.00000  Uiso   1.00
H261   H     0.66755   0.27345   0.80662   0.00000  Uiso   1.00
H262   H     0.52643   0.29707   0.76830   0.00000  Uiso   1.00
H263   H     0.76277   0.30831   0.71622   0.00000  Uiso   1.00
H264   H     0.70262   0.19289   0.91646   0.00000  Uiso   1.00
H265   H     0.38712   0.35809   0.75554   0.00000  Uiso   1.00
H266   H     0.88546   0.38177   0.64575   0.00000  Uiso   1.00
H267   H     0.75862   0.13837   0.06798   0.00000  Uiso   1.00
O268   O     0.35316   0.49332   0.83261   0.00000  Uiso   1.00
O269   O     0.00696   0.52438   0.68856   0.00000  Uiso   1.00
O270   O     0.84055   0.20505   0.24253   0.00000  Uiso   1.00
N271   N     0.49285   0.53045   0.91092   0.00000  Uiso   1.00
N272   N     0.95876   0.55260   0.80826   0.00000  Uiso   1.00
N273   N     0.84020   0.32504   0.20301   0.00000  Uiso   1.00
N274   N     0.43207   0.40687   0.80529   0.00000  Uiso   1.00
N275   N     0.89798   0.42902   0.70263   0.00000  Uiso   1.00
N276   N     0.77942   0.20146   0.09738   0.00000  Uiso   1.00
