data_job_02717
_audit_creation_date              2018-12-19
_audit_creation_method            'Materials Studio'
_symmetry_space_group_name_H-M    'P1'
_symmetry_Int_Tables_number       1
_symmetry_cell_setting            triclinic
loop_
_symmetry_equiv_pos_as_xyz
  x,y,z
_cell_length_a                    12.5035
_cell_length_b                    17.8443
_cell_length_c                    20.5453
_cell_angle_alpha                 90.0000
_cell_angle_beta                  142.9769
_cell_angle_gamma                 90.0000
loop_
_atom_site_label
_atom_site_type_symbol
_atom_site_fract_x
_atom_site_fract_y
_atom_site_fract_z
_atom_site_U_iso_or_equiv
_atom_site_adp_type
_atom_site_occupancy
C1     C     0.00814   0.23526   0.44883   0.00000  Uiso   1.00
C2     C     0.85204   0.27629   0.34189   0.00000  Uiso   1.00
C3     C     0.67508   0.25500   0.25984   0.00000  Uiso   1.00
C4     C     0.55224   0.29999   0.16833   0.00000  Uiso   1.00
C5     C     0.30190   0.35395   0.00363   0.00000  Uiso   1.00
C6     C     0.13653   0.21749   0.45592   0.00000  Uiso   1.00
C7     C     0.19877   0.14676   0.46976   0.00000  Uiso   1.00
C8     C     0.31542   0.14226   0.47424   0.00000  Uiso   1.00
C9     C     0.50684   0.10493   0.48665   0.00000  Uiso   1.00
C10    C     0.10200   0.29270   0.53730   0.00000  Uiso   1.00
C11    C     0.13527   0.28520   0.61958   0.00000  Uiso   1.00
C12    C     0.22290   0.34401   0.69260   0.00000  Uiso   1.00
C13    C     0.36072   0.42346   0.83136   0.00000  Uiso   1.00
C14    C     0.10467   0.35303   0.43222   0.00000  Uiso   1.00
C15    C     0.90448   0.34026   0.33287   0.00000  Uiso   1.00
C16    C     0.78188   0.38530   0.24146   0.00000  Uiso   1.00
C17    C     0.60476   0.36408   0.15929   0.00000  Uiso   1.00
C18    C     0.18896   0.28145   0.44689   0.00000  Uiso   1.00
C19    C     0.30556   0.27706   0.45137   0.00000  Uiso   1.00
C20    C     0.36795   0.20634   0.46520   0.00000  Uiso   1.00
C21    C     0.15443   0.35667   0.52827   0.00000  Uiso   1.00
C22    C     0.24205   0.41550   0.60119   0.00000  Uiso   1.00
C23    C     0.27543   0.40809   0.68356   0.00000  Uiso   1.00
H24    H     0.96733   0.18545   0.45586   0.00000  Uiso   1.00
H25    H     0.63456   0.20549   0.26686   0.00000  Uiso   1.00
H26    H     0.15818   0.09727   0.47675   0.00000  Uiso   1.00
H27    H     0.09468   0.23569   0.62654   0.00000  Uiso   1.00
H28    H     0.28876   0.25589   0.05331   0.00000  Uiso   1.00
H29    H     0.39288   0.02771   0.49591   0.00000  Uiso   1.00
H30    H     0.25898   0.31959   0.81179   0.00000  Uiso   1.00
H31    H     0.14549   0.40283   0.42519   0.00000  Uiso   1.00
H32    H     0.82249   0.43480   0.23449   0.00000  Uiso   1.00
H33    H     0.34611   0.32657   0.44439   0.00000  Uiso   1.00
H34    H     0.28260   0.46499   0.59418   0.00000  Uiso   1.00
H35    H     0.44128   0.44201   0.02704   0.00000  Uiso   1.00
H36    H     0.54542   0.21382   0.46965   0.00000  Uiso   1.00
H37    H     0.41151   0.50570   0.78552   0.00000  Uiso   1.00
O38    O     0.14933   0.36604   0.91527   0.00000  Uiso   1.00
O39    O     0.59792   0.06667   0.49597   0.00000  Uiso   1.00
O40    O     0.42224   0.44962   0.91038   0.00000  Uiso   1.00
N41    N     0.36898   0.29532   0.07331   0.00000  Uiso   1.00
N42    N     0.40124   0.08197   0.48710   0.00000  Uiso   1.00
N43    N     0.27610   0.35485   0.78243   0.00000  Uiso   1.00
N44    N     0.45105   0.39546   0.05917   0.00000  Uiso   1.00
N45    N     0.48332   0.18212   0.47296   0.00000  Uiso   1.00
N46    N     0.35818   0.45500   0.76829   0.00000  Uiso   1.00
C47    C     0.99186   0.23526   0.05117   0.00000  Uiso   1.00
C48    C     0.14796   0.27629   0.15811   0.00000  Uiso   1.00
C49    C     0.32492   0.25500   0.24016   0.00000  Uiso   1.00
C50    C     0.44776   0.29999   0.33167   0.00000  Uiso   1.00
C51    C     0.69810   0.35395   0.49637   0.00000  Uiso   1.00
C52    C     0.86347   0.21749   0.04408   0.00000  Uiso   1.00
C53    C     0.80123   0.14676   0.03024   0.00000  Uiso   1.00
C54    C     0.68458   0.14226   0.02576   0.00000  Uiso   1.00
C55    C     0.49316   0.10493   0.01335   0.00000  Uiso   1.00
C56    C     0.89800   0.29270   0.96270   0.00000  Uiso   1.00
C57    C     0.86473   0.28520   0.88042   0.00000  Uiso   1.00
C58    C     0.77710   0.34401   0.80740   0.00000  Uiso   1.00
C59    C     0.63928   0.42346   0.66864   0.00000  Uiso   1.00
C60    C     0.89533   0.35303   0.06778   0.00000  Uiso   1.00
C61    C     0.09552   0.34026   0.16713   0.00000  Uiso   1.00
C62    C     0.21812   0.38530   0.25854   0.00000  Uiso   1.00
C63    C     0.39524   0.36408   0.34071   0.00000  Uiso   1.00
C64    C     0.81104   0.28145   0.05311   0.00000  Uiso   1.00
C65    C     0.69444   0.27706   0.04863   0.00000  Uiso   1.00
C66    C     0.63205   0.20634   0.03480   0.00000  Uiso   1.00
C67    C     0.84557   0.35667   0.97173   0.00000  Uiso   1.00
C68    C     0.75795   0.41550   0.89881   0.00000  Uiso   1.00
C69    C     0.72457   0.40809   0.81644   0.00000  Uiso   1.00
H70    H     0.03267   0.18545   0.04414   0.00000  Uiso   1.00
H71    H     0.36544   0.20549   0.23314   0.00000  Uiso   1.00
H72    H     0.84182   0.09727   0.02325   0.00000  Uiso   1.00
H73    H     0.90532   0.23569   0.87346   0.00000  Uiso   1.00
H74    H     0.71124   0.25589   0.44669   0.00000  Uiso   1.00
H75    H     0.60712   0.02771   0.00409   0.00000  Uiso   1.00
H76    H     0.74102   0.31959   0.68821   0.00000  Uiso   1.00
H77    H     0.85451   0.40283   0.07481   0.00000  Uiso   1.00
H78    H     0.17751   0.43480   0.26551   0.00000  Uiso   1.00
H79    H     0.65389   0.32657   0.05561   0.00000  Uiso   1.00
H80    H     0.71740   0.46499   0.90582   0.00000  Uiso   1.00
H81    H     0.55872   0.44201   0.47296   0.00000  Uiso   1.00
H82    H     0.45458   0.21382   0.03035   0.00000  Uiso   1.00
H83    H     0.58849   0.50570   0.71448   0.00000  Uiso   1.00
O84    O     0.85067   0.36604   0.58473   0.00000  Uiso   1.00
O85    O     0.40208   0.06667   0.00403   0.00000  Uiso   1.00
O86    O     0.57776   0.44962   0.58962   0.00000  Uiso   1.00
N87    N     0.63102   0.29532   0.42669   0.00000  Uiso   1.00
N88    N     0.59876   0.08197   0.01290   0.00000  Uiso   1.00
N89    N     0.72390   0.35485   0.71757   0.00000  Uiso   1.00
N90    N     0.54895   0.39546   0.44083   0.00000  Uiso   1.00
N91    N     0.51668   0.18212   0.02704   0.00000  Uiso   1.00
N92    N     0.64182   0.45500   0.73171   0.00000  Uiso   1.00
C93    C     0.99186   0.76474   0.55117   0.00000  Uiso   1.00
C94    C     0.14796   0.72371   0.65811   0.00000  Uiso   1.00
C95    C     0.32492   0.74500   0.74016   0.00000  Uiso   1.00
C96    C     0.44776   0.70001   0.83167   0.00000  Uiso   1.00
C97    C     0.69810   0.64605   0.99637   0.00000  Uiso   1.00
C98    C     0.86347   0.78251   0.54408   0.00000  Uiso   1.00
C99    C     0.80123   0.85324   0.53024   0.00000  Uiso   1.00
C100   C     0.68458   0.85774   0.52576   0.00000  Uiso   1.00
C101   C     0.49316   0.89507   0.51335   0.00000  Uiso   1.00
C102   C     0.89800   0.70730   0.46270   0.00000  Uiso   1.00
C103   C     0.86473   0.71480   0.38042   0.00000  Uiso   1.00
C104   C     0.77710   0.65599   0.30740   0.00000  Uiso   1.00
C105   C     0.63928   0.57654   0.16864   0.00000  Uiso   1.00
C106   C     0.89533   0.64697   0.56778   0.00000  Uiso   1.00
C107   C     0.09552   0.65974   0.66713   0.00000  Uiso   1.00
C108   C     0.21812   0.61470   0.75854   0.00000  Uiso   1.00
C109   C     0.39524   0.63592   0.84071   0.00000  Uiso   1.00
C110   C     0.81104   0.71855   0.55311   0.00000  Uiso   1.00
C111   C     0.69444   0.72294   0.54863   0.00000  Uiso   1.00
C112   C     0.63205   0.79366   0.53480   0.00000  Uiso   1.00
C113   C     0.84557   0.64333   0.47173   0.00000  Uiso   1.00
C114   C     0.75795   0.58450   0.39881   0.00000  Uiso   1.00
C115   C     0.72457   0.59191   0.31644   0.00000  Uiso   1.00
H116   H     0.03267   0.81455   0.54414   0.00000  Uiso   1.00
H117   H     0.36544   0.79451   0.73314   0.00000  Uiso   1.00
H118   H     0.84182   0.90273   0.52325   0.00000  Uiso   1.00
H119   H     0.90532   0.76431   0.37346   0.00000  Uiso   1.00
H120   H     0.71124   0.74411   0.94669   0.00000  Uiso   1.00
H121   H     0.60712   0.97229   0.50409   0.00000  Uiso   1.00
H122   H     0.74102   0.68041   0.18821   0.00000  Uiso   1.00
H123   H     0.85451   0.59717   0.57481   0.00000  Uiso   1.00
H124   H     0.17751   0.56520   0.76551   0.00000  Uiso   1.00
H125   H     0.65389   0.67343   0.55561   0.00000  Uiso   1.00
H126   H     0.71740   0.53501   0.40582   0.00000  Uiso   1.00
H127   H     0.55872   0.55799   0.97296   0.00000  Uiso   1.00
H128   H     0.45458   0.78618   0.53035   0.00000  Uiso   1.00
H129   H     0.58849   0.49430   0.21448   0.00000  Uiso   1.00
O130   O     0.85067   0.63396   0.08473   0.00000  Uiso   1.00
O131   O     0.40208   0.93333   0.50403   0.00000  Uiso   1.00
O132   O     0.57776   0.55038   0.08962   0.00000  Uiso   1.00
N133   N     0.63102   0.70468   0.92669   0.00000  Uiso   1.00
N134   N     0.59876   0.91803   0.51290   0.00000  Uiso   1.00
N135   N     0.72390   0.64515   0.21757   0.00000  Uiso   1.00
N136   N     0.54895   0.60454   0.94083   0.00000  Uiso   1.00
N137   N     0.51668   0.81788   0.52704   0.00000  Uiso   1.00
N138   N     0.64182   0.54500   0.23171   0.00000  Uiso   1.00
C139   C     0.00814   0.76474   0.94883   0.00000  Uiso   1.00
C140   C     0.85204   0.72371   0.84189   0.00000  Uiso   1.00
C141   C     0.67508   0.74500   0.75984   0.00000  Uiso   1.00
C142   C     0.55224   0.70001   0.66833   0.00000  Uiso   1.00
C143   C     0.30190   0.64605   0.50363   0.00000  Uiso   1.00
C144   C     0.13653   0.78251   0.95592   0.00000  Uiso   1.00
C145   C     0.19877   0.85324   0.96976   0.00000  Uiso   1.00
C146   C     0.31542   0.85774   0.97424   0.00000  Uiso   1.00
C147   C     0.50684   0.89507   0.98665   0.00000  Uiso   1.00
C148   C     0.10200   0.70730   0.03730   0.00000  Uiso   1.00
C149   C     0.13527   0.71480   0.11958   0.00000  Uiso   1.00
C150   C     0.22290   0.65599   0.19260   0.00000  Uiso   1.00
C151   C     0.36072   0.57654   0.33136   0.00000  Uiso   1.00
C152   C     0.10467   0.64697   0.93222   0.00000  Uiso   1.00
C153   C     0.90448   0.65974   0.83287   0.00000  Uiso   1.00
C154   C     0.78188   0.61470   0.74146   0.00000  Uiso   1.00
C155   C     0.60476   0.63592   0.65929   0.00000  Uiso   1.00
C156   C     0.18896   0.71855   0.94689   0.00000  Uiso   1.00
C157   C     0.30556   0.72294   0.95137   0.00000  Uiso   1.00
C158   C     0.36795   0.79366   0.96520   0.00000  Uiso   1.00
C159   C     0.15443   0.64333   0.02827   0.00000  Uiso   1.00
C160   C     0.24205   0.58450   0.10119   0.00000  Uiso   1.00
C161   C     0.27543   0.59191   0.18356   0.00000  Uiso   1.00
H162   H     0.96733   0.81455   0.95586   0.00000  Uiso   1.00
H163   H     0.63456   0.79451   0.76686   0.00000  Uiso   1.00
H164   H     0.15818   0.90273   0.97675   0.00000  Uiso   1.00
H165   H     0.09468   0.76431   0.12654   0.00000  Uiso   1.00
H166   H     0.28876   0.74411   0.55331   0.00000  Uiso   1.00
H167   H     0.39288   0.97229   0.99591   0.00000  Uiso   1.00
H168   H     0.25898   0.68041   0.31179   0.00000  Uiso   1.00
H169   H     0.14549   0.59717   0.92519   0.00000  Uiso   1.00
H170   H     0.82249   0.56520   0.73449   0.00000  Uiso   1.00
H171   H     0.34611   0.67343   0.94439   0.00000  Uiso   1.00
H172   H     0.28260   0.53501   0.09418   0.00000  Uiso   1.00
H173   H     0.44128   0.55799   0.52704   0.00000  Uiso   1.00
H174   H     0.54542   0.78618   0.96965   0.00000  Uiso   1.00
H175   H     0.41151   0.49430   0.28552   0.00000  Uiso   1.00
O176   O     0.14933   0.63396   0.41527   0.00000  Uiso   1.00
O177   O     0.59792   0.93333   0.99597   0.00000  Uiso   1.00
O178   O     0.42224   0.55038   0.41038   0.00000  Uiso   1.00
N179   N     0.36898   0.70468   0.57331   0.00000  Uiso   1.00
N180   N     0.40124   0.91803   0.98710   0.00000  Uiso   1.00
N181   N     0.27610   0.64515   0.28243   0.00000  Uiso   1.00
N182   N     0.45105   0.60454   0.55917   0.00000  Uiso   1.00
N183   N     0.48332   0.81788   0.97296   0.00000  Uiso   1.00
N184   N     0.35818   0.54500   0.26829   0.00000  Uiso   1.00
