data_job_05498
_audit_creation_date              2018-12-19
_audit_creation_method            'Materials Studio'
_symmetry_space_group_name_H-M    'P1'
_symmetry_Int_Tables_number       1
_symmetry_cell_setting            triclinic
loop_
_symmetry_equiv_pos_as_xyz
  x,y,z
_cell_length_a                    12.3993
_cell_length_b                    12.3993
_cell_length_c                    93.7042
_cell_angle_alpha                 90.0000
_cell_angle_beta                  90.0000
_cell_angle_gamma                 120.0000
loop_
_atom_site_label
_atom_site_type_symbol
_atom_site_fract_x
_atom_site_fract_y
_atom_site_fract_z
_atom_site_U_iso_or_equiv
_atom_site_adp_type
_atom_site_occupancy
C1     C     0.69016   0.58678   0.72938   0.00000  Uiso   1.00
C2     C     0.55922   0.49406   0.72422   0.00000  Uiso   1.00
C3     C     0.44902   0.47133   0.73066   0.00000  Uiso   1.00
C4     C     0.33880   0.38290   0.72429   0.00000  Uiso   1.00
C5     C     0.13547   0.24853   0.71816   0.00000  Uiso   1.00
C6     C     0.75634   0.51218   0.73146   0.00000  Uiso   1.00
C7     C     0.81189   0.50471   0.74399   0.00000  Uiso   1.00
C8     C     0.86762   0.43155   0.74372   0.00000  Uiso   1.00
C9     C     0.97039   0.32539   0.74883   0.00000  Uiso   1.00
C10    C     0.75508   0.67416   0.71687   0.00000  Uiso   1.00
C11    C     0.80961   0.80288   0.71713   0.00000  Uiso   1.00
C12    C     0.86430   0.86610   0.70457   0.00000  Uiso   1.00
C13    C     0.96512   0.01143   0.68702   0.00000  Uiso   1.00
C14    C     0.69037   0.47016   0.70661   0.00000  Uiso   1.00
C15    C     0.55934   0.43071   0.71185   0.00000  Uiso   1.00
C16    C     0.44926   0.34230   0.70547   0.00000  Uiso   1.00
C17    C     0.33892   0.31945   0.71190   0.00000  Uiso   1.00
C18    C     0.75645   0.44884   0.71909   0.00000  Uiso   1.00
C19    C     0.81212   0.37569   0.71880   0.00000  Uiso   1.00
C20    C     0.86773   0.36810   0.73133   0.00000  Uiso   1.00
C21    C     0.75519   0.61082   0.70450   0.00000  Uiso   1.00
C22    C     0.80983   0.67385   0.69194   0.00000  Uiso   1.00
C23    C     0.86442   0.80264   0.69218   0.00000  Uiso   1.00
H24    H     0.69008   0.63609   0.73901   0.00000  Uiso   1.00
H25    H     0.44898   0.52036   0.74024   0.00000  Uiso   1.00
H26    H     0.81180   0.55375   0.75356   0.00000  Uiso   1.00
H27    H     0.80950   0.85187   0.72670   0.00000  Uiso   1.00
H28    H     0.18172   0.36409   0.73614   0.00000  Uiso   1.00
H29    H     0.94678   0.43452   0.76424   0.00000  Uiso   1.00
H30    H     0.94195   0.06317   0.70760   0.00000  Uiso   1.00
H31    H     0.69047   0.42084   0.69698   0.00000  Uiso   1.00
H32    H     0.44937   0.29330   0.69590   0.00000  Uiso   1.00
H33    H     0.81220   0.32669   0.70923   0.00000  Uiso   1.00
H34    H     0.80990   0.62480   0.68237   0.00000  Uiso   1.00
H35    H     0.18204   0.17979   0.70015   0.00000  Uiso   1.00
H36    H     0.94711   0.25023   0.72826   0.00000  Uiso   1.00
H37    H     0.94227   0.87887   0.67162   0.00000  Uiso   1.00
O38    O     0.02328   0.19189   0.71819   0.00000  Uiso   1.00
O39    O     0.02703   0.28432   0.75506   0.00000  Uiso   1.00
O40    O     0.02068   0.10908   0.68075   0.00000  Uiso   1.00
N41    N     0.21488   0.33823   0.72782   0.00000  Uiso   1.00
N42    N     0.93015   0.40407   0.75409   0.00000  Uiso   1.00
N43    N     0.92566   0.99180   0.70114   0.00000  Uiso   1.00
N44    N     0.21505   0.23907   0.70845   0.00000  Uiso   1.00
N45    N     0.93032   0.30490   0.73473   0.00000  Uiso   1.00
N46    N     0.92583   0.89263   0.68178   0.00000  Uiso   1.00
C47    C     0.35768   0.41204   0.22941   0.00000  Uiso   1.00
C48    C     0.48862   0.50442   0.22421   0.00000  Uiso   1.00
C49    C     0.59883   0.52663   0.23060   0.00000  Uiso   1.00
C50    C     0.70903   0.61482   0.22421   0.00000  Uiso   1.00
C51    C     0.91236   0.74864   0.21802   0.00000  Uiso   1.00
C52    C     0.29206   0.48708   0.23155   0.00000  Uiso   1.00
C53    C     0.23700   0.49469   0.24412   0.00000  Uiso   1.00
C54    C     0.18173   0.56827   0.24391   0.00000  Uiso   1.00
C55    C     0.07982   0.67509   0.24912   0.00000  Uiso   1.00
C56    C     0.29219   0.32490   0.21689   0.00000  Uiso   1.00
C57    C     0.23720   0.19613   0.21713   0.00000  Uiso   1.00
C58    C     0.18201   0.13316   0.20457   0.00000  Uiso   1.00
C59    C     0.08030   0.98816   0.18701   0.00000  Uiso   1.00
C60    C     0.35741   0.52918   0.20669   0.00000  Uiso   1.00
C61    C     0.48847   0.56805   0.21187   0.00000  Uiso   1.00
C62    C     0.59853   0.65623   0.20546   0.00000  Uiso   1.00
C63    C     0.70889   0.67856   0.21184   0.00000  Uiso   1.00
C64    C     0.29191   0.55071   0.21921   0.00000  Uiso   1.00
C65    C     0.23671   0.62430   0.21898   0.00000  Uiso   1.00
C66    C     0.18158   0.63202   0.23155   0.00000  Uiso   1.00
C67    C     0.29204   0.38852   0.20455   0.00000  Uiso   1.00
C68    C     0.23691   0.32574   0.19199   0.00000  Uiso   1.00
C69    C     0.18186   0.19690   0.19221   0.00000  Uiso   1.00
H70    H     0.35779   0.36250   0.23902   0.00000  Uiso   1.00
H71    H     0.59890   0.47737   0.24015   0.00000  Uiso   1.00
H72    H     0.23712   0.44543   0.25367   0.00000  Uiso   1.00
H73    H     0.23733   0.14692   0.22668   0.00000  Uiso   1.00
H74    H     0.86615   0.63282   0.23597   0.00000  Uiso   1.00
H75    H     0.10328   0.56543   0.26447   0.00000  Uiso   1.00
H76    H     0.10372   0.93596   0.20756   0.00000  Uiso   1.00
H77    H     0.35730   0.57873   0.19708   0.00000  Uiso   1.00
H78    H     0.59839   0.70546   0.19591   0.00000  Uiso   1.00
H79    H     0.23661   0.67352   0.20943   0.00000  Uiso   1.00
H80    H     0.23682   0.37501   0.18244   0.00000  Uiso   1.00
H81    H     0.86574   0.81795   0.20007   0.00000  Uiso   1.00
H82    H     0.10286   0.75055   0.22857   0.00000  Uiso   1.00
H83    H     0.10330   0.12109   0.17166   0.00000  Uiso   1.00
O84    O     0.02455   0.80488   0.21801   0.00000  Uiso   1.00
O85    O     0.02367   0.71644   0.25540   0.00000  Uiso   1.00
O86    O     0.02425   0.89061   0.18074   0.00000  Uiso   1.00
N87    N     0.83297   0.65898   0.22768   0.00000  Uiso   1.00
N88    N     0.11974   0.59599   0.25433   0.00000  Uiso   1.00
N89    N     0.12013   0.00749   0.20112   0.00000  Uiso   1.00
N90    N     0.83275   0.75859   0.20836   0.00000  Uiso   1.00
N91    N     0.11952   0.69560   0.23501   0.00000  Uiso   1.00
N92    N     0.11990   0.10710   0.18180   0.00000  Uiso   1.00
C93    C     0.41322   0.10339   0.39605   0.00000  Uiso   1.00
C94    C     0.50594   0.06516   0.39088   0.00000  Uiso   1.00
C95    C     0.52867   0.97770   0.39733   0.00000  Uiso   1.00
C96    C     0.61710   0.95590   0.39096   0.00000  Uiso   1.00
C97    C     0.75147   0.88694   0.38483   0.00000  Uiso   1.00
C98    C     0.48782   0.24415   0.39813   0.00000  Uiso   1.00
C99    C     0.49529   0.30718   0.41066   0.00000  Uiso   1.00
C100   C     0.56845   0.43606   0.41039   0.00000  Uiso   1.00
C101   C     0.67461   0.64499   0.41549   0.00000  Uiso   1.00
C102   C     0.32584   0.08092   0.38353   0.00000  Uiso   1.00
C103   C     0.19712   0.00672   0.38380   0.00000  Uiso   1.00
C104   C     0.13390   0.99820   0.37124   0.00000  Uiso   1.00
C105   C     0.98857   0.95369   0.35368   0.00000  Uiso   1.00
C106   C     0.52984   0.22022   0.37328   0.00000  Uiso   1.00
C107   C     0.56929   0.12862   0.37852   0.00000  Uiso   1.00
C108   C     0.65770   0.10695   0.37214   0.00000  Uiso   1.00
C109   C     0.68055   0.01947   0.37857   0.00000  Uiso   1.00
C110   C     0.55116   0.30761   0.38576   0.00000  Uiso   1.00
C111   C     0.62431   0.43644   0.38547   0.00000  Uiso   1.00
C112   C     0.63190   0.49964   0.39800   0.00000  Uiso   1.00
C113   C     0.38918   0.14438   0.37116   0.00000  Uiso   1.00
C114   C     0.32615   0.13598   0.35860   0.00000  Uiso   1.00
C115   C     0.19736   0.06178   0.35885   0.00000  Uiso   1.00
H116   H     0.36391   0.05399   0.40568   0.00000  Uiso   1.00
H117   H     0.47964   0.92861   0.40690   0.00000  Uiso   1.00
H118   H     0.44625   0.25805   0.42023   0.00000  Uiso   1.00
H119   H     0.14813   0.95763   0.39337   0.00000  Uiso   1.00
H120   H     0.63591   0.81763   0.40281   0.00000  Uiso   1.00
H121   H     0.56548   0.51226   0.43091   0.00000  Uiso   1.00
H122   H     0.93683   0.87878   0.37427   0.00000  Uiso   1.00
H123   H     0.57916   0.26963   0.36365   0.00000  Uiso   1.00
H124   H     0.70670   0.15608   0.36256   0.00000  Uiso   1.00
H125   H     0.67331   0.48551   0.37589   0.00000  Uiso   1.00
H126   H     0.37520   0.18510   0.34903   0.00000  Uiso   1.00
H127   H     0.82021   0.00225   0.36682   0.00000  Uiso   1.00
H128   H     0.74977   0.69688   0.39492   0.00000  Uiso   1.00
H129   H     0.12113   0.06340   0.33828   0.00000  Uiso   1.00
O130   O     0.80811   0.83138   0.38486   0.00000  Uiso   1.00
O131   O     0.71568   0.74270   0.42173   0.00000  Uiso   1.00
O132   O     0.89092   0.91159   0.34742   0.00000  Uiso   1.00
N133   N     0.66177   0.87665   0.39448   0.00000  Uiso   1.00
N134   N     0.59593   0.52608   0.42076   0.00000  Uiso   1.00
N135   N     0.00820   0.93386   0.36781   0.00000  Uiso   1.00
N136   N     0.76093   0.97599   0.37512   0.00000  Uiso   1.00
N137   N     0.69510   0.62542   0.40139   0.00000  Uiso   1.00
N138   N     0.10737   0.03320   0.34844   0.00000  Uiso   1.00
C139   C     0.58796   0.94564   0.89607   0.00000  Uiso   1.00
C140   C     0.49558   0.98419   0.89088   0.00000  Uiso   1.00
C141   C     0.47337   0.07220   0.89727   0.00000  Uiso   1.00
C142   C     0.38518   0.09421   0.89088   0.00000  Uiso   1.00
C143   C     0.25136   0.16372   0.88468   0.00000  Uiso   1.00
C144   C     0.51292   0.80498   0.89822   0.00000  Uiso   1.00
C145   C     0.50531   0.74231   0.91079   0.00000  Uiso   1.00
C146   C     0.43173   0.61346   0.91058   0.00000  Uiso   1.00
C147   C     0.32491   0.40473   0.91578   0.00000  Uiso   1.00
C148   C     0.67510   0.96729   0.88356   0.00000  Uiso   1.00
C149   C     0.80387   0.04107   0.88380   0.00000  Uiso   1.00
C150   C     0.86684   0.04885   0.87124   0.00000  Uiso   1.00
C151   C     0.01184   0.09214   0.85368   0.00000  Uiso   1.00
C152   C     0.47082   0.82823   0.87335   0.00000  Uiso   1.00
C153   C     0.43195   0.92041   0.87853   0.00000  Uiso   1.00
C154   C     0.34377   0.94230   0.87213   0.00000  Uiso   1.00
C155   C     0.32144   0.03033   0.87851   0.00000  Uiso   1.00
C156   C     0.44929   0.74120   0.88588   0.00000  Uiso   1.00
C157   C     0.37570   0.61241   0.88565   0.00000  Uiso   1.00
C158   C     0.36798   0.54957   0.89821   0.00000  Uiso   1.00
C159   C     0.61148   0.90352   0.87121   0.00000  Uiso   1.00
C160   C     0.67426   0.91117   0.85866   0.00000  Uiso   1.00
C161   C     0.80310   0.98496   0.85888   0.00000  Uiso   1.00
H162   H     0.63750   0.99529   0.90568   0.00000  Uiso   1.00
H163   H     0.52263   0.12153   0.90682   0.00000  Uiso   1.00
H164   H     0.55457   0.79169   0.92034   0.00000  Uiso   1.00
H165   H     0.85308   0.09041   0.89335   0.00000  Uiso   1.00
H166   H     0.36718   0.23333   0.90264   0.00000  Uiso   1.00
H167   H     0.43457   0.53785   0.93114   0.00000  Uiso   1.00
H168   H     0.06404   0.16775   0.87423   0.00000  Uiso   1.00
H169   H     0.42127   0.77857   0.86374   0.00000  Uiso   1.00
H170   H     0.29454   0.89293   0.86258   0.00000  Uiso   1.00
H171   H     0.32648   0.56309   0.87610   0.00000  Uiso   1.00
H172   H     0.62499   0.86181   0.84911   0.00000  Uiso   1.00
H173   H     0.18205   0.04779   0.86673   0.00000  Uiso   1.00
H174   H     0.24945   0.35230   0.89523   0.00000  Uiso   1.00
H175   H     0.87891   0.98221   0.83832   0.00000  Uiso   1.00
O176   O     0.19512   0.21967   0.88468   0.00000  Uiso   1.00
O177   O     0.28356   0.30722   0.92207   0.00000  Uiso   1.00
O178   O     0.10939   0.13364   0.84741   0.00000  Uiso   1.00
N179   N     0.34102   0.17399   0.89435   0.00000  Uiso   1.00
N180   N     0.40401   0.52376   0.92099   0.00000  Uiso   1.00
N181   N     0.99251   0.11264   0.86779   0.00000  Uiso   1.00
N182   N     0.24141   0.07415   0.87503   0.00000  Uiso   1.00
N183   N     0.30440   0.42392   0.90167   0.00000  Uiso   1.00
N184   N     0.89290   0.01280   0.84847   0.00000  Uiso   1.00
C185   C     0.89661   0.30984   0.06272   0.00000  Uiso   1.00
C186   C     0.93484   0.44078   0.05755   0.00000  Uiso   1.00
C187   C     0.02230   0.55098   0.06400   0.00000  Uiso   1.00
C188   C     0.04410   0.66120   0.05763   0.00000  Uiso   1.00
C189   C     0.11306   0.86453   0.05149   0.00000  Uiso   1.00
C190   C     0.75585   0.24366   0.06479   0.00000  Uiso   1.00
C191   C     0.69282   0.18811   0.07733   0.00000  Uiso   1.00
C192   C     0.56394   0.13238   0.07705   0.00000  Uiso   1.00
C193   C     0.35501   0.02961   0.08216   0.00000  Uiso   1.00
C194   C     0.91908   0.24492   0.05020   0.00000  Uiso   1.00
C195   C     0.99328   0.19039   0.05046   0.00000  Uiso   1.00
C196   C     0.00180   0.13570   0.03790   0.00000  Uiso   1.00
C197   C     0.04631   0.03488   0.02035   0.00000  Uiso   1.00
C198   C     0.77978   0.30963   0.03995   0.00000  Uiso   1.00
C199   C     0.87138   0.44066   0.04518   0.00000  Uiso   1.00
C200   C     0.89305   0.55074   0.03880   0.00000  Uiso   1.00
C201   C     0.98053   0.66108   0.04524   0.00000  Uiso   1.00
C202   C     0.69239   0.24355   0.05243   0.00000  Uiso   1.00
C203   C     0.56356   0.18788   0.05213   0.00000  Uiso   1.00
C204   C     0.50036   0.13227   0.06466   0.00000  Uiso   1.00
C205   C     0.85562   0.24481   0.03783   0.00000  Uiso   1.00
C206   C     0.86402   0.19017   0.02527   0.00000  Uiso   1.00
C207   C     0.93822   0.13558   0.02551   0.00000  Uiso   1.00
H208   H     0.94601   0.30992   0.07235   0.00000  Uiso   1.00
H209   H     0.07139   0.55102   0.07357   0.00000  Uiso   1.00
H210   H     0.74195   0.18820   0.08690   0.00000  Uiso   1.00
H211   H     0.04237   0.19050   0.06004   0.00000  Uiso   1.00
H212   H     0.18237   0.81828   0.06947   0.00000  Uiso   1.00
H213   H     0.48774   0.05322   0.09757   0.00000  Uiso   1.00
H214   H     0.12122   0.05805   0.04093   0.00000  Uiso   1.00
H215   H     0.73037   0.30953   0.03032   0.00000  Uiso   1.00
H216   H     0.84392   0.55063   0.02923   0.00000  Uiso   1.00
H217   H     0.51449   0.18780   0.04256   0.00000  Uiso   1.00
H218   H     0.81490   0.19010   0.01570   0.00000  Uiso   1.00
H219   H     0.99775   0.81796   0.03349   0.00000  Uiso   1.00
H220   H     0.30312   0.05289   0.06159   0.00000  Uiso   1.00
H221   H     0.93660   0.05773   0.00495   0.00000  Uiso   1.00
O222   O     0.16862   0.97672   0.05153   0.00000  Uiso   1.00
O223   O     0.25730   0.97297   0.08839   0.00000  Uiso   1.00
O224   O     0.08841   0.97932   0.01409   0.00000  Uiso   1.00
N225   N     0.12335   0.78512   0.06115   0.00000  Uiso   1.00
N226   N     0.47392   0.06985   0.08742   0.00000  Uiso   1.00
N227   N     0.06614   0.07434   0.03447   0.00000  Uiso   1.00
N228   N     0.02401   0.78495   0.04179   0.00000  Uiso   1.00
N229   N     0.37458   0.06968   0.06806   0.00000  Uiso   1.00
N230   N     0.96680   0.07417   0.01511   0.00000  Uiso   1.00
C231   C     0.05436   0.64232   0.56274   0.00000  Uiso   1.00
C232   C     0.01581   0.51138   0.55754   0.00000  Uiso   1.00
C233   C     0.92780   0.40117   0.56393   0.00000  Uiso   1.00
C234   C     0.90579   0.29097   0.55754   0.00000  Uiso   1.00
C235   C     0.83628   0.08764   0.55135   0.00000  Uiso   1.00
C236   C     0.19502   0.70794   0.56489   0.00000  Uiso   1.00
C237   C     0.25769   0.76300   0.57745   0.00000  Uiso   1.00
C238   C     0.38654   0.81827   0.57724   0.00000  Uiso   1.00
C239   C     0.59527   0.92018   0.58245   0.00000  Uiso   1.00
C240   C     0.03271   0.70781   0.55022   0.00000  Uiso   1.00
C241   C     0.95893   0.76280   0.55046   0.00000  Uiso   1.00
C242   C     0.95115   0.81799   0.53791   0.00000  Uiso   1.00
C243   C     0.90786   0.91970   0.52035   0.00000  Uiso   1.00
C244   C     0.17177   0.64259   0.54002   0.00000  Uiso   1.00
C245   C     0.07959   0.51153   0.54520   0.00000  Uiso   1.00
C246   C     0.05770   0.40147   0.53880   0.00000  Uiso   1.00
C247   C     0.96967   0.29111   0.54518   0.00000  Uiso   1.00
C248   C     0.25880   0.70809   0.55255   0.00000  Uiso   1.00
C249   C     0.38759   0.76329   0.55232   0.00000  Uiso   1.00
C250   C     0.45043   0.81842   0.56488   0.00000  Uiso   1.00
C251   C     0.09648   0.70796   0.53788   0.00000  Uiso   1.00
C252   C     0.08883   0.76309   0.52532   0.00000  Uiso   1.00
C253   C     0.01504   0.81814   0.52554   0.00000  Uiso   1.00
H254   H     0.00471   0.64221   0.57235   0.00000  Uiso   1.00
H255   H     0.87847   0.40110   0.57349   0.00000  Uiso   1.00
H256   H     0.20831   0.76288   0.58700   0.00000  Uiso   1.00
H257   H     0.90959   0.76267   0.56001   0.00000  Uiso   1.00
H258   H     0.76667   0.13385   0.56931   0.00000  Uiso   1.00
H259   H     0.46215   0.89672   0.59781   0.00000  Uiso   1.00
H260   H     0.83225   0.89628   0.54090   0.00000  Uiso   1.00
H261   H     0.22143   0.64270   0.53041   0.00000  Uiso   1.00
H262   H     0.10707   0.40161   0.52925   0.00000  Uiso   1.00
H263   H     0.43691   0.76339   0.54276   0.00000  Uiso   1.00
H264   H     0.13819   0.76318   0.51577   0.00000  Uiso   1.00
H265   H     0.95221   0.13426   0.53340   0.00000  Uiso   1.00
H266   H     0.64770   0.89714   0.56190   0.00000  Uiso   1.00
H267   H     0.01779   0.89670   0.50499   0.00000  Uiso   1.00
O268   O     0.78033   0.97545   0.55135   0.00000  Uiso   1.00
O269   O     0.69278   0.97633   0.58874   0.00000  Uiso   1.00
O270   O     0.86636   0.97575   0.51407   0.00000  Uiso   1.00
N271   N     0.82601   0.16703   0.56101   0.00000  Uiso   1.00
N272   N     0.47624   0.88026   0.58766   0.00000  Uiso   1.00
N273   N     0.88736   0.87987   0.53446   0.00000  Uiso   1.00
N274   N     0.92585   0.16725   0.54169   0.00000  Uiso   1.00
N275   N     0.57608   0.88048   0.56834   0.00000  Uiso   1.00
N276   N     0.98720   0.88010   0.51513   0.00000  Uiso   1.00
C277   C     0.58678   0.69016   0.27062   0.00000  Uiso   1.00
C278   C     0.49406   0.55922   0.27578   0.00000  Uiso   1.00
C279   C     0.47133   0.44902   0.26934   0.00000  Uiso   1.00
C280   C     0.38290   0.33880   0.27571   0.00000  Uiso   1.00
C281   C     0.24853   0.13547   0.28184   0.00000  Uiso   1.00
C282   C     0.51218   0.75634   0.26854   0.00000  Uiso   1.00
C283   C     0.50471   0.81189   0.25601   0.00000  Uiso   1.00
C284   C     0.43155   0.86762   0.25628   0.00000  Uiso   1.00
C285   C     0.32539   0.97039   0.25117   0.00000  Uiso   1.00
C286   C     0.67416   0.75508   0.28313   0.00000  Uiso   1.00
C287   C     0.80288   0.80961   0.28287   0.00000  Uiso   1.00
C288   C     0.86610   0.86430   0.29543   0.00000  Uiso   1.00
C289   C     0.01143   0.96512   0.31298   0.00000  Uiso   1.00
C290   C     0.47016   0.69037   0.29339   0.00000  Uiso   1.00
C291   C     0.43071   0.55934   0.28815   0.00000  Uiso   1.00
C292   C     0.34230   0.44926   0.29453   0.00000  Uiso   1.00
C293   C     0.31945   0.33892   0.28810   0.00000  Uiso   1.00
C294   C     0.44884   0.75645   0.28091   0.00000  Uiso   1.00
C295   C     0.37569   0.81212   0.28120   0.00000  Uiso   1.00
C296   C     0.36810   0.86773   0.26867   0.00000  Uiso   1.00
C297   C     0.61082   0.75519   0.29550   0.00000  Uiso   1.00
C298   C     0.67385   0.80983   0.30806   0.00000  Uiso   1.00
C299   C     0.80264   0.86442   0.30782   0.00000  Uiso   1.00
H300   H     0.63609   0.69008   0.26099   0.00000  Uiso   1.00
H301   H     0.52036   0.44898   0.25976   0.00000  Uiso   1.00
H302   H     0.55375   0.81180   0.24644   0.00000  Uiso   1.00
H303   H     0.85187   0.80950   0.27330   0.00000  Uiso   1.00
H304   H     0.36409   0.18172   0.26386   0.00000  Uiso   1.00
H305   H     0.43452   0.94678   0.23576   0.00000  Uiso   1.00
H306   H     0.06317   0.94195   0.29240   0.00000  Uiso   1.00
H307   H     0.42084   0.69047   0.30302   0.00000  Uiso   1.00
H308   H     0.29330   0.44937   0.30410   0.00000  Uiso   1.00
H309   H     0.32669   0.81220   0.29077   0.00000  Uiso   1.00
H310   H     0.62480   0.80990   0.31763   0.00000  Uiso   1.00
H311   H     0.17979   0.18204   0.29985   0.00000  Uiso   1.00
H312   H     0.25023   0.94711   0.27174   0.00000  Uiso   1.00
H313   H     0.87887   0.94227   0.32838   0.00000  Uiso   1.00
O314   O     0.19189   0.02328   0.28181   0.00000  Uiso   1.00
O315   O     0.28432   0.02703   0.24494   0.00000  Uiso   1.00
O316   O     0.10908   0.02068   0.31925   0.00000  Uiso   1.00
N317   N     0.33823   0.21488   0.27218   0.00000  Uiso   1.00
N318   N     0.40407   0.93015   0.24591   0.00000  Uiso   1.00
N319   N     0.99180   0.92566   0.29886   0.00000  Uiso   1.00
N320   N     0.23907   0.21505   0.29155   0.00000  Uiso   1.00
N321   N     0.30490   0.93032   0.26527   0.00000  Uiso   1.00
N322   N     0.89263   0.92583   0.31822   0.00000  Uiso   1.00
C323   C     0.41204   0.35768   0.77059   0.00000  Uiso   1.00
C324   C     0.50442   0.48862   0.77579   0.00000  Uiso   1.00
C325   C     0.52663   0.59883   0.76940   0.00000  Uiso   1.00
C326   C     0.61482   0.70903   0.77579   0.00000  Uiso   1.00
C327   C     0.74864   0.91236   0.78198   0.00000  Uiso   1.00
C328   C     0.48708   0.29206   0.76845   0.00000  Uiso   1.00
C329   C     0.49469   0.23700   0.75588   0.00000  Uiso   1.00
C330   C     0.56827   0.18173   0.75609   0.00000  Uiso   1.00
C331   C     0.67509   0.07982   0.75088   0.00000  Uiso   1.00
C332   C     0.32490   0.29219   0.78311   0.00000  Uiso   1.00
C333   C     0.19613   0.23720   0.78287   0.00000  Uiso   1.00
C334   C     0.13316   0.18201   0.79543   0.00000  Uiso   1.00
C335   C     0.98816   0.08030   0.81299   0.00000  Uiso   1.00
C336   C     0.52918   0.35741   0.79331   0.00000  Uiso   1.00
C337   C     0.56805   0.48847   0.78813   0.00000  Uiso   1.00
C338   C     0.65623   0.59853   0.79454   0.00000  Uiso   1.00
C339   C     0.67856   0.70889   0.78816   0.00000  Uiso   1.00
C340   C     0.55071   0.29191   0.78079   0.00000  Uiso   1.00
C341   C     0.62430   0.23671   0.78102   0.00000  Uiso   1.00
C342   C     0.63202   0.18158   0.76845   0.00000  Uiso   1.00
C343   C     0.38852   0.29204   0.79545   0.00000  Uiso   1.00
C344   C     0.32574   0.23691   0.80801   0.00000  Uiso   1.00
C345   C     0.19690   0.18186   0.80779   0.00000  Uiso   1.00
H346   H     0.36250   0.35779   0.76098   0.00000  Uiso   1.00
H347   H     0.47737   0.59890   0.75985   0.00000  Uiso   1.00
H348   H     0.44543   0.23712   0.74633   0.00000  Uiso   1.00
H349   H     0.14692   0.23733   0.77332   0.00000  Uiso   1.00
H350   H     0.63282   0.86615   0.76403   0.00000  Uiso   1.00
H351   H     0.56543   0.10328   0.73553   0.00000  Uiso   1.00
H352   H     0.93596   0.10372   0.79244   0.00000  Uiso   1.00
H353   H     0.57873   0.35730   0.80292   0.00000  Uiso   1.00
H354   H     0.70546   0.59839   0.80409   0.00000  Uiso   1.00
H355   H     0.67352   0.23661   0.79057   0.00000  Uiso   1.00
H356   H     0.37501   0.23682   0.81756   0.00000  Uiso   1.00
H357   H     0.81795   0.86574   0.79993   0.00000  Uiso   1.00
H358   H     0.75055   0.10286   0.77143   0.00000  Uiso   1.00
H359   H     0.12109   0.10330   0.82834   0.00000  Uiso   1.00
O360   O     0.80488   0.02455   0.78199   0.00000  Uiso   1.00
O361   O     0.71644   0.02367   0.74460   0.00000  Uiso   1.00
O362   O     0.89061   0.02425   0.81926   0.00000  Uiso   1.00
N363   N     0.65898   0.83297   0.77232   0.00000  Uiso   1.00
N364   N     0.59599   0.11974   0.74567   0.00000  Uiso   1.00
N365   N     0.00749   0.12013   0.79888   0.00000  Uiso   1.00
N366   N     0.75859   0.83275   0.79164   0.00000  Uiso   1.00
N367   N     0.69560   0.11952   0.76499   0.00000  Uiso   1.00
N368   N     0.10710   0.11990   0.81820   0.00000  Uiso   1.00
C369   C     0.10339   0.41322   0.60395   0.00000  Uiso   1.00
C370   C     0.06516   0.50594   0.60912   0.00000  Uiso   1.00
C371   C     0.97770   0.52867   0.60267   0.00000  Uiso   1.00
C372   C     0.95590   0.61710   0.60904   0.00000  Uiso   1.00
C373   C     0.88694   0.75147   0.61517   0.00000  Uiso   1.00
C374   C     0.24415   0.48782   0.60187   0.00000  Uiso   1.00
C375   C     0.30718   0.49529   0.58934   0.00000  Uiso   1.00
C376   C     0.43606   0.56845   0.58961   0.00000  Uiso   1.00
C377   C     0.64499   0.67461   0.58451   0.00000  Uiso   1.00
C378   C     0.08092   0.32584   0.61647   0.00000  Uiso   1.00
C379   C     0.00672   0.19712   0.61620   0.00000  Uiso   1.00
C380   C     0.99820   0.13390   0.62876   0.00000  Uiso   1.00
C381   C     0.95369   0.98857   0.64632   0.00000  Uiso   1.00
C382   C     0.22022   0.52984   0.62672   0.00000  Uiso   1.00
C383   C     0.12862   0.56929   0.62148   0.00000  Uiso   1.00
C384   C     0.10695   0.65770   0.62786   0.00000  Uiso   1.00
C385   C     0.01947   0.68055   0.62143   0.00000  Uiso   1.00
C386   C     0.30761   0.55116   0.61424   0.00000  Uiso   1.00
C387   C     0.43644   0.62431   0.61453   0.00000  Uiso   1.00
C388   C     0.49964   0.63190   0.60200   0.00000  Uiso   1.00
C389   C     0.14438   0.38918   0.62884   0.00000  Uiso   1.00
C390   C     0.13598   0.32615   0.64140   0.00000  Uiso   1.00
C391   C     0.06178   0.19736   0.64115   0.00000  Uiso   1.00
H392   H     0.05399   0.36391   0.59432   0.00000  Uiso   1.00
H393   H     0.92861   0.47964   0.59310   0.00000  Uiso   1.00
H394   H     0.25805   0.44625   0.57977   0.00000  Uiso   1.00
H395   H     0.95763   0.14813   0.60663   0.00000  Uiso   1.00
H396   H     0.81763   0.63591   0.59719   0.00000  Uiso   1.00
H397   H     0.51226   0.56548   0.56909   0.00000  Uiso   1.00
H398   H     0.87878   0.93683   0.62573   0.00000  Uiso   1.00
H399   H     0.26963   0.57916   0.63635   0.00000  Uiso   1.00
H400   H     0.15608   0.70670   0.63744   0.00000  Uiso   1.00
H401   H     0.48551   0.67331   0.62411   0.00000  Uiso   1.00
H402   H     0.18510   0.37520   0.65097   0.00000  Uiso   1.00
H403   H     0.00225   0.82021   0.63318   0.00000  Uiso   1.00
H404   H     0.69688   0.74977   0.60508   0.00000  Uiso   1.00
H405   H     0.06340   0.12113   0.66172   0.00000  Uiso   1.00
O406   O     0.83138   0.80811   0.61514   0.00000  Uiso   1.00
O407   O     0.74270   0.71568   0.57827   0.00000  Uiso   1.00
O408   O     0.91159   0.89092   0.65258   0.00000  Uiso   1.00
N409   N     0.87665   0.66177   0.60552   0.00000  Uiso   1.00
N410   N     0.52608   0.59593   0.57924   0.00000  Uiso   1.00
N411   N     0.93386   0.00820   0.63219   0.00000  Uiso   1.00
N412   N     0.97599   0.76093   0.62488   0.00000  Uiso   1.00
N413   N     0.62542   0.69510   0.59861   0.00000  Uiso   1.00
N414   N     0.03320   0.10737   0.65156   0.00000  Uiso   1.00
C415   C     0.94564   0.58796   0.10393   0.00000  Uiso   1.00
C416   C     0.98419   0.49558   0.10912   0.00000  Uiso   1.00
C417   C     0.07220   0.47337   0.10273   0.00000  Uiso   1.00
C418   C     0.09421   0.38518   0.10912   0.00000  Uiso   1.00
C419   C     0.16372   0.25136   0.11532   0.00000  Uiso   1.00
C420   C     0.80498   0.51292   0.10178   0.00000  Uiso   1.00
C421   C     0.74231   0.50531   0.08921   0.00000  Uiso   1.00
C422   C     0.61346   0.43173   0.08942   0.00000  Uiso   1.00
C423   C     0.40473   0.32491   0.08422   0.00000  Uiso   1.00
C424   C     0.96729   0.67510   0.11644   0.00000  Uiso   1.00
C425   C     0.04107   0.80387   0.11620   0.00000  Uiso   1.00
C426   C     0.04885   0.86684   0.12876   0.00000  Uiso   1.00
C427   C     0.09214   0.01184   0.14632   0.00000  Uiso   1.00
C428   C     0.82823   0.47082   0.12665   0.00000  Uiso   1.00
C429   C     0.92041   0.43195   0.12147   0.00000  Uiso   1.00
C430   C     0.94230   0.34377   0.12787   0.00000  Uiso   1.00
C431   C     0.03033   0.32144   0.12149   0.00000  Uiso   1.00
C432   C     0.74120   0.44929   0.11412   0.00000  Uiso   1.00
C433   C     0.61241   0.37570   0.11435   0.00000  Uiso   1.00
C434   C     0.54957   0.36798   0.10179   0.00000  Uiso   1.00
C435   C     0.90352   0.61148   0.12879   0.00000  Uiso   1.00
C436   C     0.91117   0.67426   0.14134   0.00000  Uiso   1.00
C437   C     0.98496   0.80310   0.14112   0.00000  Uiso   1.00
H438   H     0.99529   0.63750   0.09432   0.00000  Uiso   1.00
H439   H     0.12153   0.52263   0.09318   0.00000  Uiso   1.00
H440   H     0.79169   0.55457   0.07966   0.00000  Uiso   1.00
H441   H     0.09041   0.85308   0.10665   0.00000  Uiso   1.00
H442   H     0.23333   0.36718   0.09736   0.00000  Uiso   1.00
H443   H     0.53785   0.43457   0.06886   0.00000  Uiso   1.00
H444   H     0.16775   0.06404   0.12577   0.00000  Uiso   1.00
H445   H     0.77857   0.42127   0.13626   0.00000  Uiso   1.00
H446   H     0.89293   0.29454   0.13742   0.00000  Uiso   1.00
H447   H     0.56309   0.32648   0.12390   0.00000  Uiso   1.00
H448   H     0.86181   0.62499   0.15089   0.00000  Uiso   1.00
H449   H     0.04779   0.18205   0.13327   0.00000  Uiso   1.00
H450   H     0.35230   0.24945   0.10477   0.00000  Uiso   1.00
H451   H     0.98221   0.87891   0.16168   0.00000  Uiso   1.00
O452   O     0.21967   0.19512   0.11532   0.00000  Uiso   1.00
O453   O     0.30722   0.28356   0.07793   0.00000  Uiso   1.00
O454   O     0.13364   0.10939   0.15259   0.00000  Uiso   1.00
N455   N     0.17399   0.34102   0.10565   0.00000  Uiso   1.00
N456   N     0.52376   0.40401   0.07901   0.00000  Uiso   1.00
N457   N     0.11264   0.99251   0.13221   0.00000  Uiso   1.00
N458   N     0.07415   0.24141   0.12497   0.00000  Uiso   1.00
N459   N     0.42392   0.30440   0.09833   0.00000  Uiso   1.00
N460   N     0.01280   0.89290   0.15153   0.00000  Uiso   1.00
C461   C     0.30984   0.89661   0.93728   0.00000  Uiso   1.00
C462   C     0.44078   0.93484   0.94245   0.00000  Uiso   1.00
C463   C     0.55098   0.02230   0.93600   0.00000  Uiso   1.00
C464   C     0.66120   0.04410   0.94237   0.00000  Uiso   1.00
C465   C     0.86453   0.11306   0.94851   0.00000  Uiso   1.00
C466   C     0.24366   0.75585   0.93521   0.00000  Uiso   1.00
C467   C     0.18811   0.69282   0.92267   0.00000  Uiso   1.00
C468   C     0.13238   0.56394   0.92295   0.00000  Uiso   1.00
C469   C     0.02961   0.35501   0.91784   0.00000  Uiso   1.00
C470   C     0.24492   0.91908   0.94980   0.00000  Uiso   1.00
C471   C     0.19039   0.99328   0.94954   0.00000  Uiso   1.00
C472   C     0.13570   0.00180   0.96210   0.00000  Uiso   1.00
C473   C     0.03488   0.04631   0.97965   0.00000  Uiso   1.00
C474   C     0.30963   0.77978   0.96005   0.00000  Uiso   1.00
C475   C     0.44066   0.87138   0.95482   0.00000  Uiso   1.00
C476   C     0.55074   0.89305   0.96120   0.00000  Uiso   1.00
C477   C     0.66108   0.98053   0.95476   0.00000  Uiso   1.00
C478   C     0.24355   0.69239   0.94757   0.00000  Uiso   1.00
C479   C     0.18788   0.56356   0.94787   0.00000  Uiso   1.00
C480   C     0.13227   0.50036   0.93534   0.00000  Uiso   1.00
C481   C     0.24481   0.85562   0.96217   0.00000  Uiso   1.00
C482   C     0.19017   0.86402   0.97473   0.00000  Uiso   1.00
C483   C     0.13558   0.93822   0.97449   0.00000  Uiso   1.00
H484   H     0.30992   0.94601   0.92765   0.00000  Uiso   1.00
H485   H     0.55102   0.07139   0.92643   0.00000  Uiso   1.00
H486   H     0.18820   0.74195   0.91310   0.00000  Uiso   1.00
H487   H     0.19050   0.04237   0.93996   0.00000  Uiso   1.00
H488   H     0.81828   0.18237   0.93053   0.00000  Uiso   1.00
H489   H     0.05322   0.48774   0.90243   0.00000  Uiso   1.00
H490   H     0.05805   0.12122   0.95907   0.00000  Uiso   1.00
H491   H     0.30953   0.73037   0.96968   0.00000  Uiso   1.00
H492   H     0.55063   0.84392   0.97077   0.00000  Uiso   1.00
H493   H     0.18780   0.51449   0.95744   0.00000  Uiso   1.00
H494   H     0.19010   0.81490   0.98430   0.00000  Uiso   1.00
H495   H     0.81796   0.99775   0.96651   0.00000  Uiso   1.00
H496   H     0.05289   0.30312   0.93841   0.00000  Uiso   1.00
H497   H     0.05773   0.93660   0.99505   0.00000  Uiso   1.00
O498   O     0.97672   0.16862   0.94847   0.00000  Uiso   1.00
O499   O     0.97297   0.25730   0.91161   0.00000  Uiso   1.00
O500   O     0.97932   0.08841   0.98591   0.00000  Uiso   1.00
N501   N     0.78512   0.12335   0.93885   0.00000  Uiso   1.00
N502   N     0.06985   0.47392   0.91258   0.00000  Uiso   1.00
N503   N     0.07434   0.06614   0.96553   0.00000  Uiso   1.00
N504   N     0.78495   0.02401   0.95821   0.00000  Uiso   1.00
N505   N     0.06968   0.37458   0.93194   0.00000  Uiso   1.00
N506   N     0.07417   0.96680   0.98489   0.00000  Uiso   1.00
C507   C     0.64232   0.05436   0.43726   0.00000  Uiso   1.00
C508   C     0.51138   0.01581   0.44246   0.00000  Uiso   1.00
C509   C     0.40117   0.92780   0.43607   0.00000  Uiso   1.00
C510   C     0.29097   0.90579   0.44246   0.00000  Uiso   1.00
C511   C     0.08764   0.83628   0.44865   0.00000  Uiso   1.00
C512   C     0.70794   0.19502   0.43511   0.00000  Uiso   1.00
C513   C     0.76300   0.25769   0.42255   0.00000  Uiso   1.00
C514   C     0.81827   0.38654   0.42276   0.00000  Uiso   1.00
C515   C     0.92018   0.59527   0.41755   0.00000  Uiso   1.00
C516   C     0.70781   0.03271   0.44978   0.00000  Uiso   1.00
C517   C     0.76280   0.95893   0.44954   0.00000  Uiso   1.00
C518   C     0.81799   0.95115   0.46209   0.00000  Uiso   1.00
C519   C     0.91970   0.90786   0.47965   0.00000  Uiso   1.00
C520   C     0.64259   0.17177   0.45998   0.00000  Uiso   1.00
C521   C     0.51153   0.07959   0.45480   0.00000  Uiso   1.00
C522   C     0.40147   0.05770   0.46120   0.00000  Uiso   1.00
C523   C     0.29111   0.96967   0.45482   0.00000  Uiso   1.00
C524   C     0.70809   0.25880   0.44745   0.00000  Uiso   1.00
C525   C     0.76329   0.38759   0.44768   0.00000  Uiso   1.00
C526   C     0.81842   0.45043   0.43512   0.00000  Uiso   1.00
C527   C     0.70796   0.09648   0.46212   0.00000  Uiso   1.00
C528   C     0.76309   0.08883   0.47468   0.00000  Uiso   1.00
C529   C     0.81814   0.01504   0.47446   0.00000  Uiso   1.00
H530   H     0.64221   0.00471   0.42765   0.00000  Uiso   1.00
H531   H     0.40110   0.87847   0.42651   0.00000  Uiso   1.00
H532   H     0.76288   0.20831   0.41300   0.00000  Uiso   1.00
H533   H     0.76267   0.90959   0.43999   0.00000  Uiso   1.00
H534   H     0.13385   0.76667   0.43069   0.00000  Uiso   1.00
H535   H     0.89672   0.46215   0.40219   0.00000  Uiso   1.00
H536   H     0.89628   0.83225   0.45910   0.00000  Uiso   1.00
H537   H     0.64270   0.22143   0.46959   0.00000  Uiso   1.00
H538   H     0.40161   0.10707   0.47075   0.00000  Uiso   1.00
H539   H     0.76339   0.43691   0.45724   0.00000  Uiso   1.00
H540   H     0.76318   0.13819   0.48423   0.00000  Uiso   1.00
H541   H     0.13426   0.95221   0.46660   0.00000  Uiso   1.00
H542   H     0.89714   0.64770   0.43810   0.00000  Uiso   1.00
H543   H     0.89670   0.01779   0.49501   0.00000  Uiso   1.00
O544   O     0.97545   0.78033   0.44865   0.00000  Uiso   1.00
O545   O     0.97633   0.69278   0.41126   0.00000  Uiso   1.00
O546   O     0.97575   0.86636   0.48593   0.00000  Uiso   1.00
N547   N     0.16703   0.82601   0.43899   0.00000  Uiso   1.00
N548   N     0.88026   0.47624   0.41234   0.00000  Uiso   1.00
N549   N     0.87987   0.88736   0.46554   0.00000  Uiso   1.00
N550   N     0.16725   0.92585   0.45831   0.00000  Uiso   1.00
N551   N     0.88048   0.57608   0.43166   0.00000  Uiso   1.00
N552   N     0.88010   0.98720   0.48487   0.00000  Uiso   1.00
