data_job_01761
_audit_creation_date              2018-12-19
_audit_creation_method            'Materials Studio'
_symmetry_space_group_name_H-M    'P1'
_symmetry_Int_Tables_number       1
_symmetry_cell_setting            triclinic
loop_
_symmetry_equiv_pos_as_xyz
  x,y,z
_cell_length_a                    29.5857
_cell_length_b                    12.5673
_cell_length_c                    28.3751
_cell_angle_alpha                 90.0000
_cell_angle_beta                  136.8447
_cell_angle_gamma                 90.0000
loop_
_atom_site_label
_atom_site_type_symbol
_atom_site_fract_x
_atom_site_fract_y
_atom_site_fract_z
_atom_site_U_iso_or_equiv
_atom_site_adp_type
_atom_site_occupancy
C1     C     0.70021   0.24393   0.66861   0.00000  Uiso   1.00
C2     C     0.76251   0.22300   0.68723   0.00000  Uiso   1.00
C3     C     0.82692   0.23175   0.75256   0.00000  Uiso   1.00
C4     C     0.87712   0.20921   0.75892   0.00000  Uiso   1.00
C5     C     0.97597   0.18135   0.79649   0.00000  Uiso   1.00
C6     C     0.66149   0.32837   0.61220   0.00000  Uiso   1.00
C7     C     0.64096   0.42572   0.61444   0.00000  Uiso   1.00
C8     C     0.60611   0.49187   0.55763   0.00000  Uiso   1.00
C9     C     0.54808   0.62758   0.47869   0.00000  Uiso   1.00
C10    C     0.65922   0.14233   0.63453   0.00000  Uiso   1.00
C11    C     0.63676   0.08325   0.65554   0.00000  Uiso   1.00
C12    C     0.59998   0.99278   0.61752   0.00000  Uiso   1.00
C13    C     0.53842   0.83962   0.57326   0.00000  Uiso   1.00
C14    C     0.67482   0.18832   0.56373   0.00000  Uiso   1.00
C15    C     0.74872   0.19279   0.63026   0.00000  Uiso   1.00
C16    C     0.79884   0.17022   0.63653   0.00000  Uiso   1.00
C17    C     0.86331   0.17894   0.70186   0.00000  Uiso   1.00
C18    C     0.64770   0.29817   0.55523   0.00000  Uiso   1.00
C19    C     0.61287   0.36419   0.49841   0.00000  Uiso   1.00
C20    C     0.59230   0.46162   0.50056   0.00000  Uiso   1.00
C21    C     0.64543   0.11212   0.57757   0.00000  Uiso   1.00
C22    C     0.60868   0.02172   0.53951   0.00000  Uiso   1.00
C23    C     0.58617   0.96252   0.56045   0.00000  Uiso   1.00
H24    H     0.71094   0.26745   0.71296   0.00000  Uiso   1.00
H25    H     0.83757   0.25514   0.79663   0.00000  Uiso   1.00
H26    H     0.65163   0.44907   0.65853   0.00000  Uiso   1.00
H27    H     0.64744   0.10665   0.69962   0.00000  Uiso   1.00
H28    H     0.97189   0.22820   0.86427   0.00000  Uiso   1.00
H29    H     0.57980   0.63710   0.57307   0.00000  Uiso   1.00
H30    H     0.57095   0.91505   0.65972   0.00000  Uiso   1.00
H31    H     0.66408   0.16481   0.51938   0.00000  Uiso   1.00
H32    H     0.78815   0.14685   0.59243   0.00000  Uiso   1.00
H33    H     0.60221   0.34079   0.45433   0.00000  Uiso   1.00
H34    H     0.59801   0.99837   0.49543   0.00000  Uiso   1.00
H35    H     0.93178   0.14032   0.69854   0.00000  Uiso   1.00
H36    H     0.53969   0.54922   0.40733   0.00000  Uiso   1.00
H37    H     0.53084   0.82717   0.49399   0.00000  Uiso   1.00
O38    O     0.03430   0.17434   0.83295   0.00000  Uiso   1.00
O39    O     0.51988   0.71079   0.45089   0.00000  Uiso   1.00
O40    O     0.50828   0.76347   0.56459   0.00000  Uiso   1.00
N41    N     0.94542   0.20996   0.81524   0.00000  Uiso   1.00
N42    N     0.57885   0.59227   0.54299   0.00000  Uiso   1.00
N43    N     0.57057   0.91722   0.62399   0.00000  Uiso   1.00
N44    N     0.92384   0.16267   0.72606   0.00000  Uiso   1.00
N45    N     0.55727   0.54498   0.45381   0.00000  Uiso   1.00
N46    N     0.54898   0.86993   0.53481   0.00000  Uiso   1.00
C47    C     0.20021   0.74393   0.66861   0.00000  Uiso   1.00
C48    C     0.26251   0.72300   0.68723   0.00000  Uiso   1.00
C49    C     0.32692   0.73175   0.75256   0.00000  Uiso   1.00
C50    C     0.37712   0.70921   0.75892   0.00000  Uiso   1.00
C51    C     0.47597   0.68135   0.79649   0.00000  Uiso   1.00
C52    C     0.16149   0.82837   0.61220   0.00000  Uiso   1.00
C53    C     0.14096   0.92572   0.61444   0.00000  Uiso   1.00
C54    C     0.10611   0.99187   0.55763   0.00000  Uiso   1.00
C55    C     0.04808   0.12758   0.47869   0.00000  Uiso   1.00
C56    C     0.15922   0.64233   0.63453   0.00000  Uiso   1.00
C57    C     0.13676   0.58325   0.65554   0.00000  Uiso   1.00
C58    C     0.09998   0.49278   0.61752   0.00000  Uiso   1.00
C59    C     0.03842   0.33962   0.57326   0.00000  Uiso   1.00
C60    C     0.17482   0.68832   0.56373   0.00000  Uiso   1.00
C61    C     0.24872   0.69279   0.63026   0.00000  Uiso   1.00
C62    C     0.29884   0.67022   0.63653   0.00000  Uiso   1.00
C63    C     0.36331   0.67894   0.70186   0.00000  Uiso   1.00
C64    C     0.14770   0.79817   0.55523   0.00000  Uiso   1.00
C65    C     0.11287   0.86419   0.49841   0.00000  Uiso   1.00
C66    C     0.09230   0.96162   0.50056   0.00000  Uiso   1.00
C67    C     0.14543   0.61212   0.57757   0.00000  Uiso   1.00
C68    C     0.10868   0.52172   0.53951   0.00000  Uiso   1.00
C69    C     0.08617   0.46252   0.56045   0.00000  Uiso   1.00
H70    H     0.21094   0.76745   0.71296   0.00000  Uiso   1.00
H71    H     0.33757   0.75514   0.79663   0.00000  Uiso   1.00
H72    H     0.15163   0.94907   0.65853   0.00000  Uiso   1.00
H73    H     0.14744   0.60665   0.69962   0.00000  Uiso   1.00
H74    H     0.47189   0.72820   0.86427   0.00000  Uiso   1.00
H75    H     0.07980   0.13710   0.57307   0.00000  Uiso   1.00
H76    H     0.07095   0.41505   0.65972   0.00000  Uiso   1.00
H77    H     0.16408   0.66481   0.51938   0.00000  Uiso   1.00
H78    H     0.28815   0.64685   0.59243   0.00000  Uiso   1.00
H79    H     0.10221   0.84079   0.45433   0.00000  Uiso   1.00
H80    H     0.09801   0.49837   0.49543   0.00000  Uiso   1.00
H81    H     0.43178   0.64032   0.69854   0.00000  Uiso   1.00
H82    H     0.03969   0.04922   0.40733   0.00000  Uiso   1.00
H83    H     0.03084   0.32717   0.49399   0.00000  Uiso   1.00
O84    O     0.53430   0.67434   0.83295   0.00000  Uiso   1.00
O85    O     0.01988   0.21079   0.45089   0.00000  Uiso   1.00
O86    O     0.00828   0.26347   0.56459   0.00000  Uiso   1.00
N87    N     0.44542   0.70996   0.81524   0.00000  Uiso   1.00
N88    N     0.07885   0.09227   0.54299   0.00000  Uiso   1.00
N89    N     0.07057   0.41722   0.62399   0.00000  Uiso   1.00
N90    N     0.42384   0.66267   0.72606   0.00000  Uiso   1.00
N91    N     0.05727   0.04498   0.45381   0.00000  Uiso   1.00
N92    N     0.04898   0.36993   0.53481   0.00000  Uiso   1.00
C93    C     0.29979   0.24393   0.83139   0.00000  Uiso   1.00
C94    C     0.23749   0.22300   0.81277   0.00000  Uiso   1.00
C95    C     0.17308   0.23175   0.74744   0.00000  Uiso   1.00
C96    C     0.12288   0.20921   0.74108   0.00000  Uiso   1.00
C97    C     0.02403   0.18135   0.70351   0.00000  Uiso   1.00
C98    C     0.33851   0.32837   0.88780   0.00000  Uiso   1.00
C99    C     0.35904   0.42572   0.88556   0.00000  Uiso   1.00
C100   C     0.39389   0.49187   0.94237   0.00000  Uiso   1.00
C101   C     0.45192   0.62758   0.02131   0.00000  Uiso   1.00
C102   C     0.34078   0.14233   0.86547   0.00000  Uiso   1.00
C103   C     0.36324   0.08325   0.84446   0.00000  Uiso   1.00
C104   C     0.40002   0.99278   0.88248   0.00000  Uiso   1.00
C105   C     0.46158   0.83962   0.92674   0.00000  Uiso   1.00
C106   C     0.32518   0.18832   0.93627   0.00000  Uiso   1.00
C107   C     0.25128   0.19279   0.86974   0.00000  Uiso   1.00
C108   C     0.20116   0.17022   0.86347   0.00000  Uiso   1.00
C109   C     0.13669   0.17894   0.79814   0.00000  Uiso   1.00
C110   C     0.35230   0.29817   0.94477   0.00000  Uiso   1.00
C111   C     0.38713   0.36419   0.00159   0.00000  Uiso   1.00
C112   C     0.40770   0.46162   0.99944   0.00000  Uiso   1.00
C113   C     0.35457   0.11212   0.92243   0.00000  Uiso   1.00
C114   C     0.39132   0.02172   0.96049   0.00000  Uiso   1.00
C115   C     0.41383   0.96252   0.93955   0.00000  Uiso   1.00
H116   H     0.28906   0.26745   0.78704   0.00000  Uiso   1.00
H117   H     0.16243   0.25514   0.70337   0.00000  Uiso   1.00
H118   H     0.34837   0.44907   0.84147   0.00000  Uiso   1.00
H119   H     0.35256   0.10665   0.80038   0.00000  Uiso   1.00
H120   H     0.02811   0.22820   0.63573   0.00000  Uiso   1.00
H121   H     0.42020   0.63710   0.92693   0.00000  Uiso   1.00
H122   H     0.42905   0.91505   0.84028   0.00000  Uiso   1.00
H123   H     0.33592   0.16481   0.98062   0.00000  Uiso   1.00
H124   H     0.21185   0.14685   0.90757   0.00000  Uiso   1.00
H125   H     0.39779   0.34079   0.04567   0.00000  Uiso   1.00
H126   H     0.40199   0.99837   0.00457   0.00000  Uiso   1.00
H127   H     0.06822   0.14032   0.80146   0.00000  Uiso   1.00
H128   H     0.46031   0.54922   0.09267   0.00000  Uiso   1.00
H129   H     0.46916   0.82717   0.00601   0.00000  Uiso   1.00
O130   O     0.96570   0.17434   0.66705   0.00000  Uiso   1.00
O131   O     0.48012   0.71079   0.04911   0.00000  Uiso   1.00
O132   O     0.49172   0.76347   0.93541   0.00000  Uiso   1.00
N133   N     0.05458   0.20996   0.68476   0.00000  Uiso   1.00
N134   N     0.42115   0.59227   0.95701   0.00000  Uiso   1.00
N135   N     0.42943   0.91722   0.87601   0.00000  Uiso   1.00
N136   N     0.07616   0.16267   0.77394   0.00000  Uiso   1.00
N137   N     0.44273   0.54498   0.04619   0.00000  Uiso   1.00
N138   N     0.45102   0.86993   0.96519   0.00000  Uiso   1.00
C139   C     0.79979   0.74393   0.83139   0.00000  Uiso   1.00
C140   C     0.73749   0.72300   0.81277   0.00000  Uiso   1.00
C141   C     0.67308   0.73175   0.74744   0.00000  Uiso   1.00
C142   C     0.62288   0.70921   0.74108   0.00000  Uiso   1.00
C143   C     0.52403   0.68135   0.70351   0.00000  Uiso   1.00
C144   C     0.83851   0.82837   0.88780   0.00000  Uiso   1.00
C145   C     0.85904   0.92572   0.88556   0.00000  Uiso   1.00
C146   C     0.89389   0.99187   0.94237   0.00000  Uiso   1.00
C147   C     0.95192   0.12758   0.02131   0.00000  Uiso   1.00
C148   C     0.84078   0.64233   0.86547   0.00000  Uiso   1.00
C149   C     0.86324   0.58325   0.84446   0.00000  Uiso   1.00
C150   C     0.90002   0.49278   0.88248   0.00000  Uiso   1.00
C151   C     0.96158   0.33962   0.92674   0.00000  Uiso   1.00
C152   C     0.82518   0.68832   0.93627   0.00000  Uiso   1.00
C153   C     0.75128   0.69279   0.86974   0.00000  Uiso   1.00
C154   C     0.70116   0.67022   0.86347   0.00000  Uiso   1.00
C155   C     0.63669   0.67894   0.79814   0.00000  Uiso   1.00
C156   C     0.85230   0.79817   0.94477   0.00000  Uiso   1.00
C157   C     0.88713   0.86419   0.00159   0.00000  Uiso   1.00
C158   C     0.90770   0.96162   0.99944   0.00000  Uiso   1.00
C159   C     0.85457   0.61212   0.92243   0.00000  Uiso   1.00
C160   C     0.89132   0.52172   0.96049   0.00000  Uiso   1.00
C161   C     0.91383   0.46252   0.93955   0.00000  Uiso   1.00
H162   H     0.78906   0.76745   0.78704   0.00000  Uiso   1.00
H163   H     0.66243   0.75514   0.70337   0.00000  Uiso   1.00
H164   H     0.84837   0.94907   0.84147   0.00000  Uiso   1.00
H165   H     0.85256   0.60665   0.80038   0.00000  Uiso   1.00
H166   H     0.52811   0.72820   0.63573   0.00000  Uiso   1.00
H167   H     0.92020   0.13710   0.92693   0.00000  Uiso   1.00
H168   H     0.92905   0.41505   0.84028   0.00000  Uiso   1.00
H169   H     0.83592   0.66481   0.98062   0.00000  Uiso   1.00
H170   H     0.71185   0.64685   0.90757   0.00000  Uiso   1.00
H171   H     0.89779   0.84079   0.04567   0.00000  Uiso   1.00
H172   H     0.90199   0.49837   0.00457   0.00000  Uiso   1.00
H173   H     0.56822   0.64032   0.80146   0.00000  Uiso   1.00
H174   H     0.96031   0.04922   0.09267   0.00000  Uiso   1.00
H175   H     0.96916   0.32717   0.00601   0.00000  Uiso   1.00
O176   O     0.46570   0.67434   0.66705   0.00000  Uiso   1.00
O177   O     0.98012   0.21079   0.04911   0.00000  Uiso   1.00
O178   O     0.99172   0.26347   0.93541   0.00000  Uiso   1.00
N179   N     0.55458   0.70996   0.68476   0.00000  Uiso   1.00
N180   N     0.92115   0.09227   0.95701   0.00000  Uiso   1.00
N181   N     0.92943   0.41722   0.87601   0.00000  Uiso   1.00
N182   N     0.57616   0.66267   0.77394   0.00000  Uiso   1.00
N183   N     0.94273   0.04498   0.04619   0.00000  Uiso   1.00
N184   N     0.95102   0.36993   0.96519   0.00000  Uiso   1.00
C185   C     0.29979   0.75607   0.33139   0.00000  Uiso   1.00
C186   C     0.23749   0.77700   0.31277   0.00000  Uiso   1.00
C187   C     0.17308   0.76825   0.24744   0.00000  Uiso   1.00
C188   C     0.12288   0.79079   0.24108   0.00000  Uiso   1.00
C189   C     0.02403   0.81865   0.20351   0.00000  Uiso   1.00
C190   C     0.33851   0.67163   0.38780   0.00000  Uiso   1.00
C191   C     0.35904   0.57428   0.38556   0.00000  Uiso   1.00
C192   C     0.39389   0.50813   0.44237   0.00000  Uiso   1.00
C193   C     0.45192   0.37242   0.52131   0.00000  Uiso   1.00
C194   C     0.34078   0.85767   0.36547   0.00000  Uiso   1.00
C195   C     0.36324   0.91675   0.34446   0.00000  Uiso   1.00
C196   C     0.40002   0.00722   0.38248   0.00000  Uiso   1.00
C197   C     0.46158   0.16038   0.42674   0.00000  Uiso   1.00
C198   C     0.32518   0.81168   0.43627   0.00000  Uiso   1.00
C199   C     0.25128   0.80721   0.36974   0.00000  Uiso   1.00
C200   C     0.20116   0.82978   0.36347   0.00000  Uiso   1.00
C201   C     0.13669   0.82106   0.29814   0.00000  Uiso   1.00
C202   C     0.35230   0.70183   0.44477   0.00000  Uiso   1.00
C203   C     0.38713   0.63581   0.50159   0.00000  Uiso   1.00
C204   C     0.40770   0.53838   0.49944   0.00000  Uiso   1.00
C205   C     0.35457   0.88788   0.42243   0.00000  Uiso   1.00
C206   C     0.39132   0.97828   0.46049   0.00000  Uiso   1.00
C207   C     0.41383   0.03748   0.43955   0.00000  Uiso   1.00
H208   H     0.28906   0.73255   0.28704   0.00000  Uiso   1.00
H209   H     0.16243   0.74486   0.20337   0.00000  Uiso   1.00
H210   H     0.34837   0.55093   0.34147   0.00000  Uiso   1.00
H211   H     0.35256   0.89335   0.30038   0.00000  Uiso   1.00
H212   H     0.02811   0.77180   0.13573   0.00000  Uiso   1.00
H213   H     0.42020   0.36290   0.42693   0.00000  Uiso   1.00
H214   H     0.42905   0.08495   0.34028   0.00000  Uiso   1.00
H215   H     0.33592   0.83519   0.48062   0.00000  Uiso   1.00
H216   H     0.21185   0.85315   0.40757   0.00000  Uiso   1.00
H217   H     0.39779   0.65921   0.54567   0.00000  Uiso   1.00
H218   H     0.40199   0.00163   0.50457   0.00000  Uiso   1.00
H219   H     0.06822   0.85968   0.30146   0.00000  Uiso   1.00
H220   H     0.46031   0.45078   0.59267   0.00000  Uiso   1.00
H221   H     0.46916   0.17283   0.50601   0.00000  Uiso   1.00
O222   O     0.96570   0.82566   0.16705   0.00000  Uiso   1.00
O223   O     0.48012   0.28921   0.54911   0.00000  Uiso   1.00
O224   O     0.49172   0.23653   0.43541   0.00000  Uiso   1.00
N225   N     0.05458   0.79004   0.18476   0.00000  Uiso   1.00
N226   N     0.42115   0.40773   0.45701   0.00000  Uiso   1.00
N227   N     0.42943   0.08278   0.37601   0.00000  Uiso   1.00
N228   N     0.07616   0.83733   0.27394   0.00000  Uiso   1.00
N229   N     0.44273   0.45502   0.54619   0.00000  Uiso   1.00
N230   N     0.45102   0.13007   0.46519   0.00000  Uiso   1.00
C231   C     0.79979   0.25607   0.33139   0.00000  Uiso   1.00
C232   C     0.73749   0.27700   0.31277   0.00000  Uiso   1.00
C233   C     0.67308   0.26825   0.24744   0.00000  Uiso   1.00
C234   C     0.62288   0.29079   0.24108   0.00000  Uiso   1.00
C235   C     0.52403   0.31865   0.20351   0.00000  Uiso   1.00
C236   C     0.83851   0.17163   0.38780   0.00000  Uiso   1.00
C237   C     0.85904   0.07428   0.38556   0.00000  Uiso   1.00
C238   C     0.89389   0.00813   0.44237   0.00000  Uiso   1.00
C239   C     0.95192   0.87242   0.52131   0.00000  Uiso   1.00
C240   C     0.84078   0.35767   0.36547   0.00000  Uiso   1.00
C241   C     0.86324   0.41675   0.34446   0.00000  Uiso   1.00
C242   C     0.90002   0.50722   0.38248   0.00000  Uiso   1.00
C243   C     0.96158   0.66038   0.42674   0.00000  Uiso   1.00
C244   C     0.82518   0.31168   0.43627   0.00000  Uiso   1.00
C245   C     0.75128   0.30721   0.36974   0.00000  Uiso   1.00
C246   C     0.70116   0.32978   0.36347   0.00000  Uiso   1.00
C247   C     0.63669   0.32106   0.29814   0.00000  Uiso   1.00
C248   C     0.85230   0.20183   0.44477   0.00000  Uiso   1.00
C249   C     0.88713   0.13581   0.50159   0.00000  Uiso   1.00
C250   C     0.90770   0.03838   0.49944   0.00000  Uiso   1.00
C251   C     0.85457   0.38788   0.42243   0.00000  Uiso   1.00
C252   C     0.89132   0.47828   0.46049   0.00000  Uiso   1.00
C253   C     0.91383   0.53748   0.43955   0.00000  Uiso   1.00
H254   H     0.78906   0.23255   0.28704   0.00000  Uiso   1.00
H255   H     0.66243   0.24486   0.20337   0.00000  Uiso   1.00
H256   H     0.84837   0.05093   0.34147   0.00000  Uiso   1.00
H257   H     0.85256   0.39335   0.30038   0.00000  Uiso   1.00
H258   H     0.52811   0.27180   0.13573   0.00000  Uiso   1.00
H259   H     0.92020   0.86290   0.42693   0.00000  Uiso   1.00
H260   H     0.92905   0.58495   0.34028   0.00000  Uiso   1.00
H261   H     0.83592   0.33519   0.48062   0.00000  Uiso   1.00
H262   H     0.71185   0.35315   0.40757   0.00000  Uiso   1.00
H263   H     0.89779   0.15921   0.54567   0.00000  Uiso   1.00
H264   H     0.90199   0.50163   0.50457   0.00000  Uiso   1.00
H265   H     0.56822   0.35968   0.30146   0.00000  Uiso   1.00
H266   H     0.96031   0.95078   0.59267   0.00000  Uiso   1.00
H267   H     0.96916   0.67283   0.50601   0.00000  Uiso   1.00
O268   O     0.46570   0.32566   0.16705   0.00000  Uiso   1.00
O269   O     0.98012   0.78921   0.54911   0.00000  Uiso   1.00
O270   O     0.99172   0.73653   0.43541   0.00000  Uiso   1.00
N271   N     0.55458   0.29004   0.18476   0.00000  Uiso   1.00
N272   N     0.92115   0.90773   0.45701   0.00000  Uiso   1.00
N273   N     0.92943   0.58278   0.37601   0.00000  Uiso   1.00
N274   N     0.57616   0.33733   0.27394   0.00000  Uiso   1.00
N275   N     0.94273   0.95502   0.54619   0.00000  Uiso   1.00
N276   N     0.95102   0.63007   0.46519   0.00000  Uiso   1.00
C277   C     0.70021   0.75607   0.16861   0.00000  Uiso   1.00
C278   C     0.76251   0.77700   0.18723   0.00000  Uiso   1.00
C279   C     0.82692   0.76825   0.25256   0.00000  Uiso   1.00
C280   C     0.87712   0.79079   0.25892   0.00000  Uiso   1.00
C281   C     0.97597   0.81865   0.29649   0.00000  Uiso   1.00
C282   C     0.66149   0.67163   0.11220   0.00000  Uiso   1.00
C283   C     0.64096   0.57428   0.11444   0.00000  Uiso   1.00
C284   C     0.60611   0.50813   0.05763   0.00000  Uiso   1.00
C285   C     0.54808   0.37242   0.97869   0.00000  Uiso   1.00
C286   C     0.65922   0.85767   0.13453   0.00000  Uiso   1.00
C287   C     0.63676   0.91675   0.15554   0.00000  Uiso   1.00
C288   C     0.59998   0.00722   0.11752   0.00000  Uiso   1.00
C289   C     0.53842   0.16038   0.07326   0.00000  Uiso   1.00
C290   C     0.67482   0.81168   0.06373   0.00000  Uiso   1.00
C291   C     0.74872   0.80721   0.13026   0.00000  Uiso   1.00
C292   C     0.79884   0.82978   0.13653   0.00000  Uiso   1.00
C293   C     0.86331   0.82106   0.20186   0.00000  Uiso   1.00
C294   C     0.64770   0.70183   0.05523   0.00000  Uiso   1.00
C295   C     0.61287   0.63581   0.99841   0.00000  Uiso   1.00
C296   C     0.59230   0.53838   0.00056   0.00000  Uiso   1.00
C297   C     0.64543   0.88788   0.07757   0.00000  Uiso   1.00
C298   C     0.60868   0.97828   0.03951   0.00000  Uiso   1.00
C299   C     0.58617   0.03748   0.06045   0.00000  Uiso   1.00
H300   H     0.71094   0.73255   0.21296   0.00000  Uiso   1.00
H301   H     0.83757   0.74486   0.29663   0.00000  Uiso   1.00
H302   H     0.65163   0.55093   0.15853   0.00000  Uiso   1.00
H303   H     0.64744   0.89335   0.19962   0.00000  Uiso   1.00
H304   H     0.97189   0.77180   0.36427   0.00000  Uiso   1.00
H305   H     0.57980   0.36290   0.07307   0.00000  Uiso   1.00
H306   H     0.57095   0.08495   0.15972   0.00000  Uiso   1.00
H307   H     0.66408   0.83519   0.01938   0.00000  Uiso   1.00
H308   H     0.78815   0.85315   0.09243   0.00000  Uiso   1.00
H309   H     0.60221   0.65921   0.95433   0.00000  Uiso   1.00
H310   H     0.59801   0.00163   0.99543   0.00000  Uiso   1.00
H311   H     0.93178   0.85968   0.19854   0.00000  Uiso   1.00
H312   H     0.53969   0.45078   0.90733   0.00000  Uiso   1.00
H313   H     0.53084   0.17283   0.99399   0.00000  Uiso   1.00
O314   O     0.03430   0.82566   0.33295   0.00000  Uiso   1.00
O315   O     0.51988   0.28921   0.95089   0.00000  Uiso   1.00
O316   O     0.50828   0.23653   0.06459   0.00000  Uiso   1.00
N317   N     0.94542   0.79004   0.31524   0.00000  Uiso   1.00
N318   N     0.57885   0.40773   0.04299   0.00000  Uiso   1.00
N319   N     0.57057   0.08278   0.12399   0.00000  Uiso   1.00
N320   N     0.92384   0.83733   0.22606   0.00000  Uiso   1.00
N321   N     0.55727   0.45502   0.95381   0.00000  Uiso   1.00
N322   N     0.54898   0.13007   0.03481   0.00000  Uiso   1.00
C323   C     0.20021   0.25607   0.16861   0.00000  Uiso   1.00
C324   C     0.26251   0.27700   0.18723   0.00000  Uiso   1.00
C325   C     0.32692   0.26825   0.25256   0.00000  Uiso   1.00
C326   C     0.37712   0.29079   0.25892   0.00000  Uiso   1.00
C327   C     0.47597   0.31865   0.29649   0.00000  Uiso   1.00
C328   C     0.16149   0.17163   0.11220   0.00000  Uiso   1.00
C329   C     0.14096   0.07428   0.11444   0.00000  Uiso   1.00
C330   C     0.10611   0.00813   0.05763   0.00000  Uiso   1.00
C331   C     0.04808   0.87242   0.97869   0.00000  Uiso   1.00
C332   C     0.15922   0.35767   0.13453   0.00000  Uiso   1.00
C333   C     0.13676   0.41675   0.15554   0.00000  Uiso   1.00
C334   C     0.09998   0.50722   0.11752   0.00000  Uiso   1.00
C335   C     0.03842   0.66038   0.07326   0.00000  Uiso   1.00
C336   C     0.17482   0.31168   0.06373   0.00000  Uiso   1.00
C337   C     0.24872   0.30721   0.13026   0.00000  Uiso   1.00
C338   C     0.29884   0.32978   0.13653   0.00000  Uiso   1.00
C339   C     0.36331   0.32106   0.20186   0.00000  Uiso   1.00
C340   C     0.14770   0.20183   0.05523   0.00000  Uiso   1.00
C341   C     0.11287   0.13581   0.99841   0.00000  Uiso   1.00
C342   C     0.09230   0.03838   0.00056   0.00000  Uiso   1.00
C343   C     0.14543   0.38788   0.07757   0.00000  Uiso   1.00
C344   C     0.10868   0.47828   0.03951   0.00000  Uiso   1.00
C345   C     0.08617   0.53748   0.06045   0.00000  Uiso   1.00
H346   H     0.21094   0.23255   0.21296   0.00000  Uiso   1.00
H347   H     0.33757   0.24486   0.29663   0.00000  Uiso   1.00
H348   H     0.15163   0.05093   0.15853   0.00000  Uiso   1.00
H349   H     0.14744   0.39335   0.19962   0.00000  Uiso   1.00
H350   H     0.47189   0.27180   0.36427   0.00000  Uiso   1.00
H351   H     0.07980   0.86290   0.07307   0.00000  Uiso   1.00
H352   H     0.07095   0.58495   0.15972   0.00000  Uiso   1.00
H353   H     0.16408   0.33519   0.01938   0.00000  Uiso   1.00
H354   H     0.28815   0.35315   0.09243   0.00000  Uiso   1.00
H355   H     0.10221   0.15921   0.95433   0.00000  Uiso   1.00
H356   H     0.09801   0.50163   0.99543   0.00000  Uiso   1.00
H357   H     0.43178   0.35968   0.19854   0.00000  Uiso   1.00
H358   H     0.03969   0.95078   0.90733   0.00000  Uiso   1.00
H359   H     0.03084   0.67283   0.99399   0.00000  Uiso   1.00
O360   O     0.53430   0.32566   0.33295   0.00000  Uiso   1.00
O361   O     0.01988   0.78921   0.95089   0.00000  Uiso   1.00
O362   O     0.00828   0.73653   0.06459   0.00000  Uiso   1.00
N363   N     0.44542   0.29004   0.31524   0.00000  Uiso   1.00
N364   N     0.07885   0.90773   0.04299   0.00000  Uiso   1.00
N365   N     0.07057   0.58278   0.12399   0.00000  Uiso   1.00
N366   N     0.42384   0.33733   0.22606   0.00000  Uiso   1.00
N367   N     0.05727   0.95502   0.95381   0.00000  Uiso   1.00
N368   N     0.04898   0.63007   0.03481   0.00000  Uiso   1.00
