data_job_02577
_audit_creation_date              2018-12-19
_audit_creation_method            'Materials Studio'
_symmetry_space_group_name_H-M    'P1'
_symmetry_Int_Tables_number       1
_symmetry_cell_setting            triclinic
loop_
_symmetry_equiv_pos_as_xyz
  x,y,z
_cell_length_a                    9.7332
_cell_length_b                    15.2872
_cell_length_c                    19.0317
_cell_angle_alpha                 90.0000
_cell_angle_beta                  90.0000
_cell_angle_gamma                 90.0000
loop_
_atom_site_label
_atom_site_type_symbol
_atom_site_fract_x
_atom_site_fract_y
_atom_site_fract_z
_atom_site_U_iso_or_equiv
_atom_site_adp_type
_atom_site_occupancy
C1     C     0.54844   0.26841   0.98521   0.00000  Uiso   1.00
C2     C     0.65388   0.22521   0.03326   0.00000  Uiso   1.00
C3     C     0.79544   0.22849   0.02493   0.00000  Uiso   1.00
C4     C     0.87429   0.18469   0.07451   0.00000  Uiso   1.00
C5     C     0.04723   0.12449   0.14060   0.00000  Uiso   1.00
C6     C     0.45319   0.19537   0.96061   0.00000  Uiso   1.00
C7     C     0.42600   0.17357   0.89120   0.00000  Uiso   1.00
C8     C     0.33589   0.10465   0.87962   0.00000  Uiso   1.00
C9     C     0.19718   0.99816   0.83292   0.00000  Uiso   1.00
C10    C     0.46171   0.32733   0.03224   0.00000  Uiso   1.00
C11    C     0.44165   0.41648   0.02306   0.00000  Uiso   1.00
C12    C     0.35868   0.45866   0.07178   0.00000  Uiso   1.00
C13    C     0.23321   0.55706   0.13631   0.00000  Uiso   1.00
C14    C     0.43675   0.18479   0.08806   0.00000  Uiso   1.00
C15    C     0.59321   0.17979   0.08912   0.00000  Uiso   1.00
C16    C     0.67187   0.13598   0.13873   0.00000  Uiso   1.00
C17    C     0.81351   0.13919   0.13048   0.00000  Uiso   1.00
C18    C     0.39253   0.14995   0.01647   0.00000  Uiso   1.00
C19    C     0.30243   0.08105   0.00499   0.00000  Uiso   1.00
C20    C     0.27511   0.05915   0.93559   0.00000  Uiso   1.00
C21    C     0.40105   0.28191   0.08811   0.00000  Uiso   1.00
C22    C     0.31809   0.32396   0.13686   0.00000  Uiso   1.00
C23    C     0.29791   0.41316   0.12775   0.00000  Uiso   1.00
H24    H     0.59567   0.30376   0.94171   0.00000  Uiso   1.00
H25    H     0.84235   0.26364   0.98169   0.00000  Uiso   1.00
H26    H     0.47295   0.20873   0.84798   0.00000  Uiso   1.00
H27    H     0.48861   0.45160   0.97982   0.00000  Uiso   1.00
H28    H     0.08908   0.19910   0.05063   0.00000  Uiso   1.00
H29    H     0.31016   0.08334   0.76869   0.00000  Uiso   1.00
H30    H     0.34317   0.59549   0.04670   0.00000  Uiso   1.00
H31    H     0.38952   0.14943   0.13156   0.00000  Uiso   1.00
H32    H     0.62489   0.10083   0.18196   0.00000  Uiso   1.00
H33    H     0.25550   0.04592   0.04824   0.00000  Uiso   1.00
H34    H     0.27115   0.28880   0.18008   0.00000  Uiso   1.00
H35    H     0.91258   0.06696   0.21317   0.00000  Uiso   1.00
H36    H     0.13366   0.95120   0.93123   0.00000  Uiso   1.00
H37    H     0.16667   0.46334   0.20925   0.00000  Uiso   1.00
O38    O     0.15938   0.10382   0.16161   0.00000  Uiso   1.00
O39    O     0.13745   0.95196   0.79172   0.00000  Uiso   1.00
O40    O     0.18077   0.62389   0.15647   0.00000  Uiso   1.00
N41    N     0.01524   0.17468   0.08197   0.00000  Uiso   1.00
N42    N     0.28701   0.06644   0.81838   0.00000  Uiso   1.00
N43    N     0.31785   0.54525   0.07829   0.00000  Uiso   1.00
N44    N     0.92027   0.10358   0.16944   0.00000  Uiso   1.00
N45    N     0.19204   0.99534   0.90584   0.00000  Uiso   1.00
N46    N     0.22288   0.47415   0.16575   0.00000  Uiso   1.00
C47    C     0.45156   0.73159   0.48521   0.00000  Uiso   1.00
C48    C     0.34612   0.77479   0.53326   0.00000  Uiso   1.00
C49    C     0.20456   0.77151   0.52493   0.00000  Uiso   1.00
C50    C     0.12571   0.81531   0.57451   0.00000  Uiso   1.00
C51    C     0.95277   0.87551   0.64060   0.00000  Uiso   1.00
C52    C     0.54681   0.80463   0.46061   0.00000  Uiso   1.00
C53    C     0.57400   0.82643   0.39120   0.00000  Uiso   1.00
C54    C     0.66411   0.89535   0.37962   0.00000  Uiso   1.00
C55    C     0.80282   0.00184   0.33292   0.00000  Uiso   1.00
C56    C     0.53829   0.67267   0.53224   0.00000  Uiso   1.00
C57    C     0.55835   0.58352   0.52306   0.00000  Uiso   1.00
C58    C     0.64132   0.54134   0.57178   0.00000  Uiso   1.00
C59    C     0.76679   0.44294   0.63631   0.00000  Uiso   1.00
C60    C     0.56325   0.81521   0.58806   0.00000  Uiso   1.00
C61    C     0.40679   0.82021   0.58912   0.00000  Uiso   1.00
C62    C     0.32813   0.86402   0.63873   0.00000  Uiso   1.00
C63    C     0.18649   0.86081   0.63048   0.00000  Uiso   1.00
C64    C     0.60747   0.85005   0.51647   0.00000  Uiso   1.00
C65    C     0.69757   0.91895   0.50499   0.00000  Uiso   1.00
C66    C     0.72489   0.94085   0.43559   0.00000  Uiso   1.00
C67    C     0.59895   0.71809   0.58811   0.00000  Uiso   1.00
C68    C     0.68191   0.67604   0.63686   0.00000  Uiso   1.00
C69    C     0.70209   0.58684   0.62775   0.00000  Uiso   1.00
H70    H     0.40433   0.69624   0.44171   0.00000  Uiso   1.00
H71    H     0.15765   0.73636   0.48169   0.00000  Uiso   1.00
H72    H     0.52705   0.79127   0.34798   0.00000  Uiso   1.00
H73    H     0.51139   0.54840   0.47982   0.00000  Uiso   1.00
H74    H     0.91092   0.80090   0.55063   0.00000  Uiso   1.00
H75    H     0.68984   0.91666   0.26869   0.00000  Uiso   1.00
H76    H     0.65683   0.40451   0.54670   0.00000  Uiso   1.00
H77    H     0.61048   0.85057   0.63156   0.00000  Uiso   1.00
H78    H     0.37511   0.89917   0.68196   0.00000  Uiso   1.00
H79    H     0.74450   0.95408   0.54824   0.00000  Uiso   1.00
H80    H     0.72885   0.71120   0.68008   0.00000  Uiso   1.00
H81    H     0.08742   0.93304   0.71317   0.00000  Uiso   1.00
H82    H     0.86634   0.04880   0.43123   0.00000  Uiso   1.00
H83    H     0.83333   0.53666   0.70925   0.00000  Uiso   1.00
O84    O     0.84062   0.89618   0.66161   0.00000  Uiso   1.00
O85    O     0.86255   0.04804   0.29172   0.00000  Uiso   1.00
O86    O     0.81923   0.37611   0.65647   0.00000  Uiso   1.00
N87    N     0.98476   0.82532   0.58197   0.00000  Uiso   1.00
N88    N     0.71299   0.93356   0.31838   0.00000  Uiso   1.00
N89    N     0.68215   0.45475   0.57829   0.00000  Uiso   1.00
N90    N     0.07973   0.89642   0.66944   0.00000  Uiso   1.00
N91    N     0.80796   0.00466   0.40584   0.00000  Uiso   1.00
N92    N     0.77712   0.52585   0.66575   0.00000  Uiso   1.00
C93    C     0.04844   0.73159   0.98521   0.00000  Uiso   1.00
C94    C     0.15388   0.77479   0.03326   0.00000  Uiso   1.00
C95    C     0.29544   0.77151   0.02493   0.00000  Uiso   1.00
C96    C     0.37429   0.81531   0.07451   0.00000  Uiso   1.00
C97    C     0.54723   0.87551   0.14060   0.00000  Uiso   1.00
C98    C     0.95319   0.80463   0.96061   0.00000  Uiso   1.00
C99    C     0.92600   0.82643   0.89120   0.00000  Uiso   1.00
C100   C     0.83589   0.89535   0.87962   0.00000  Uiso   1.00
C101   C     0.69718   0.00184   0.83292   0.00000  Uiso   1.00
C102   C     0.96171   0.67267   0.03224   0.00000  Uiso   1.00
C103   C     0.94165   0.58352   0.02306   0.00000  Uiso   1.00
C104   C     0.85868   0.54134   0.07178   0.00000  Uiso   1.00
C105   C     0.73321   0.44294   0.13631   0.00000  Uiso   1.00
C106   C     0.93675   0.81521   0.08806   0.00000  Uiso   1.00
C107   C     0.09321   0.82021   0.08912   0.00000  Uiso   1.00
C108   C     0.17187   0.86402   0.13873   0.00000  Uiso   1.00
C109   C     0.31351   0.86081   0.13048   0.00000  Uiso   1.00
C110   C     0.89253   0.85005   0.01647   0.00000  Uiso   1.00
C111   C     0.80243   0.91895   0.00499   0.00000  Uiso   1.00
C112   C     0.77511   0.94085   0.93559   0.00000  Uiso   1.00
C113   C     0.90105   0.71809   0.08811   0.00000  Uiso   1.00
C114   C     0.81809   0.67604   0.13686   0.00000  Uiso   1.00
C115   C     0.79791   0.58684   0.12775   0.00000  Uiso   1.00
H116   H     0.09567   0.69624   0.94171   0.00000  Uiso   1.00
H117   H     0.34235   0.73636   0.98169   0.00000  Uiso   1.00
H118   H     0.97295   0.79127   0.84798   0.00000  Uiso   1.00
H119   H     0.98861   0.54840   0.97982   0.00000  Uiso   1.00
H120   H     0.58908   0.80090   0.05063   0.00000  Uiso   1.00
H121   H     0.81016   0.91666   0.76869   0.00000  Uiso   1.00
H122   H     0.84317   0.40451   0.04670   0.00000  Uiso   1.00
H123   H     0.88952   0.85057   0.13156   0.00000  Uiso   1.00
H124   H     0.12489   0.89917   0.18196   0.00000  Uiso   1.00
H125   H     0.75550   0.95408   0.04824   0.00000  Uiso   1.00
H126   H     0.77115   0.71120   0.18008   0.00000  Uiso   1.00
H127   H     0.41258   0.93304   0.21317   0.00000  Uiso   1.00
H128   H     0.63366   0.04880   0.93123   0.00000  Uiso   1.00
H129   H     0.66667   0.53666   0.20925   0.00000  Uiso   1.00
O130   O     0.65938   0.89618   0.16161   0.00000  Uiso   1.00
O131   O     0.63745   0.04804   0.79172   0.00000  Uiso   1.00
O132   O     0.68077   0.37611   0.15647   0.00000  Uiso   1.00
N133   N     0.51524   0.82532   0.08197   0.00000  Uiso   1.00
N134   N     0.78701   0.93356   0.81838   0.00000  Uiso   1.00
N135   N     0.81785   0.45475   0.07829   0.00000  Uiso   1.00
N136   N     0.42027   0.89642   0.16944   0.00000  Uiso   1.00
N137   N     0.69204   0.00466   0.90584   0.00000  Uiso   1.00
N138   N     0.72288   0.52585   0.16575   0.00000  Uiso   1.00
C139   C     0.95156   0.26841   0.48521   0.00000  Uiso   1.00
C140   C     0.84612   0.22521   0.53326   0.00000  Uiso   1.00
C141   C     0.70456   0.22849   0.52493   0.00000  Uiso   1.00
C142   C     0.62571   0.18469   0.57451   0.00000  Uiso   1.00
C143   C     0.45277   0.12449   0.64060   0.00000  Uiso   1.00
C144   C     0.04681   0.19537   0.46061   0.00000  Uiso   1.00
C145   C     0.07400   0.17357   0.39120   0.00000  Uiso   1.00
C146   C     0.16411   0.10465   0.37962   0.00000  Uiso   1.00
C147   C     0.30282   0.99816   0.33292   0.00000  Uiso   1.00
C148   C     0.03829   0.32733   0.53224   0.00000  Uiso   1.00
C149   C     0.05835   0.41648   0.52306   0.00000  Uiso   1.00
C150   C     0.14132   0.45866   0.57178   0.00000  Uiso   1.00
C151   C     0.26679   0.55706   0.63631   0.00000  Uiso   1.00
C152   C     0.06325   0.18479   0.58806   0.00000  Uiso   1.00
C153   C     0.90679   0.17979   0.58912   0.00000  Uiso   1.00
C154   C     0.82813   0.13598   0.63873   0.00000  Uiso   1.00
C155   C     0.68649   0.13919   0.63048   0.00000  Uiso   1.00
C156   C     0.10747   0.14995   0.51647   0.00000  Uiso   1.00
C157   C     0.19757   0.08105   0.50499   0.00000  Uiso   1.00
C158   C     0.22489   0.05915   0.43559   0.00000  Uiso   1.00
C159   C     0.09895   0.28191   0.58811   0.00000  Uiso   1.00
C160   C     0.18191   0.32396   0.63686   0.00000  Uiso   1.00
C161   C     0.20209   0.41316   0.62775   0.00000  Uiso   1.00
H162   H     0.90433   0.30376   0.44171   0.00000  Uiso   1.00
H163   H     0.65765   0.26364   0.48169   0.00000  Uiso   1.00
H164   H     0.02705   0.20873   0.34798   0.00000  Uiso   1.00
H165   H     0.01139   0.45160   0.47982   0.00000  Uiso   1.00
H166   H     0.41092   0.19910   0.55063   0.00000  Uiso   1.00
H167   H     0.18984   0.08334   0.26869   0.00000  Uiso   1.00
H168   H     0.15683   0.59549   0.54670   0.00000  Uiso   1.00
H169   H     0.11048   0.14943   0.63156   0.00000  Uiso   1.00
H170   H     0.87511   0.10083   0.68196   0.00000  Uiso   1.00
H171   H     0.24450   0.04592   0.54824   0.00000  Uiso   1.00
H172   H     0.22885   0.28880   0.68008   0.00000  Uiso   1.00
H173   H     0.58742   0.06696   0.71317   0.00000  Uiso   1.00
H174   H     0.36634   0.95120   0.43123   0.00000  Uiso   1.00
H175   H     0.33333   0.46334   0.70925   0.00000  Uiso   1.00
O176   O     0.34062   0.10382   0.66161   0.00000  Uiso   1.00
O177   O     0.36255   0.95196   0.29172   0.00000  Uiso   1.00
O178   O     0.31923   0.62389   0.65647   0.00000  Uiso   1.00
N179   N     0.48476   0.17468   0.58197   0.00000  Uiso   1.00
N180   N     0.21299   0.06644   0.31838   0.00000  Uiso   1.00
N181   N     0.18215   0.54525   0.57829   0.00000  Uiso   1.00
N182   N     0.57973   0.10358   0.66944   0.00000  Uiso   1.00
N183   N     0.30796   0.99534   0.40584   0.00000  Uiso   1.00
N184   N     0.27712   0.47415   0.66575   0.00000  Uiso   1.00
