data_job_01805
_audit_creation_date              2018-12-19
_audit_creation_method            'Materials Studio'
_symmetry_space_group_name_H-M    'P1'
_symmetry_Int_Tables_number       1
_symmetry_cell_setting            triclinic
loop_
_symmetry_equiv_pos_as_xyz
  x,y,z
_cell_length_a                    40.6676
_cell_length_b                    14.2401
_cell_length_c                    10.1929
_cell_angle_alpha                 90.0000
_cell_angle_beta                  90.0000
_cell_angle_gamma                 90.0000
loop_
_atom_site_label
_atom_site_type_symbol
_atom_site_fract_x
_atom_site_fract_y
_atom_site_fract_z
_atom_site_U_iso_or_equiv
_atom_site_adp_type
_atom_site_occupancy
C1     C     0.12562   0.76471   0.32554   0.00000  Uiso   1.00
C2     C     0.13437   0.66588   0.27969   0.00000  Uiso   1.00
C3     C     0.12396   0.58289   0.33772   0.00000  Uiso   1.00
C4     C     0.13466   0.49968   0.28103   0.00000  Uiso   1.00
C5     C     0.14516   0.34625   0.22673   0.00000  Uiso   1.00
C6     C     0.15824   0.81467   0.34933   0.00000  Uiso   1.00
C7     C     0.16790   0.85678   0.46592   0.00000  Uiso   1.00
C8     C     0.19870   0.89882   0.46784   0.00000  Uiso   1.00
C9     C     0.24626   0.97645   0.52163   0.00000  Uiso   1.00
C10    C     0.10996   0.81343   0.20788   0.00000  Uiso   1.00
C11    C     0.07902   0.85453   0.20554   0.00000  Uiso   1.00
C12    C     0.06917   0.89555   0.08837   0.00000  Uiso   1.00
C13    C     0.04175   0.97124   0.92254   0.00000  Uiso   1.00
C14    C     0.16314   0.76450   0.12165   0.00000  Uiso   1.00
C15    C     0.15475   0.66578   0.16894   0.00000  Uiso   1.00
C16    C     0.16547   0.58266   0.11215   0.00000  Uiso   1.00
C17    C     0.15508   0.49956   0.17009   0.00000  Uiso   1.00
C18    C     0.17862   0.81456   0.23859   0.00000  Uiso   1.00
C19    C     0.20942   0.85655   0.24034   0.00000  Uiso   1.00
C20    C     0.21912   0.89871   0.35690   0.00000  Uiso   1.00
C21    C     0.13034   0.81332   0.09713   0.00000  Uiso   1.00
C22    C     0.12053   0.85429   0.97996   0.00000  Uiso   1.00
C23    C     0.08959   0.89544   0.97743   0.00000  Uiso   1.00
H24    H     0.10975   0.76480   0.41176   0.00000  Uiso   1.00
H25    H     0.10819   0.58301   0.42343   0.00000  Uiso   1.00
H26    H     0.15212   0.85686   0.55160   0.00000  Uiso   1.00
H27    H     0.06325   0.85460   0.29125   0.00000  Uiso   1.00
H28    H     0.11545   0.38141   0.38757   0.00000  Uiso   1.00
H29    H     0.20809   0.95888   0.65780   0.00000  Uiso   1.00
H30    H     0.02069   0.95411   0.10881   0.00000  Uiso   1.00
H31    H     0.17901   0.76442   0.03543   0.00000  Uiso   1.00
H32    H     0.18124   0.58260   0.02645   0.00000  Uiso   1.00
H33    H     0.22518   0.85646   0.15462   0.00000  Uiso   1.00
H34    H     0.13631   0.85419   0.89428   0.00000  Uiso   1.00
H35    H     0.17475   0.38108   0.06536   0.00000  Uiso   1.00
H36    H     0.26738   0.95856   0.33560   0.00000  Uiso   1.00
H37    H     0.07999   0.95378   0.78661   0.00000  Uiso   1.00
O38    O     0.14533   0.26165   0.22738   0.00000  Uiso   1.00
O39    O     0.26686   0.01928   0.58190   0.00000  Uiso   1.00
O40    O     0.02100   0.01302   0.86165   0.00000  Uiso   1.00
N41    N     0.12909   0.40628   0.31295   0.00000  Uiso   1.00
N42    N     0.21570   0.94617   0.56561   0.00000  Uiso   1.00
N43    N     0.04051   0.94173   0.05237   0.00000  Uiso   1.00
N44    N     0.16100   0.40611   0.13958   0.00000  Uiso   1.00
N45    N     0.24761   0.94599   0.39223   0.00000  Uiso   1.00
N46    N     0.07242   0.94156   0.87899   0.00000  Uiso   1.00
C47    C     0.37438   0.73529   0.82554   0.00000  Uiso   1.00
C48    C     0.36563   0.83412   0.77969   0.00000  Uiso   1.00
C49    C     0.37604   0.91711   0.83772   0.00000  Uiso   1.00
C50    C     0.36534   0.00032   0.78103   0.00000  Uiso   1.00
C51    C     0.35484   0.15375   0.72673   0.00000  Uiso   1.00
C52    C     0.34176   0.68533   0.84933   0.00000  Uiso   1.00
C53    C     0.33210   0.64322   0.96592   0.00000  Uiso   1.00
C54    C     0.30130   0.60118   0.96784   0.00000  Uiso   1.00
C55    C     0.25374   0.52355   0.02163   0.00000  Uiso   1.00
C56    C     0.39004   0.68657   0.70788   0.00000  Uiso   1.00
C57    C     0.42098   0.64547   0.70554   0.00000  Uiso   1.00
C58    C     0.43083   0.60445   0.58837   0.00000  Uiso   1.00
C59    C     0.45825   0.52876   0.42254   0.00000  Uiso   1.00
C60    C     0.33686   0.73550   0.62165   0.00000  Uiso   1.00
C61    C     0.34525   0.83422   0.66894   0.00000  Uiso   1.00
C62    C     0.33453   0.91734   0.61215   0.00000  Uiso   1.00
C63    C     0.34492   0.00044   0.67009   0.00000  Uiso   1.00
C64    C     0.32138   0.68544   0.73859   0.00000  Uiso   1.00
C65    C     0.29058   0.64345   0.74034   0.00000  Uiso   1.00
C66    C     0.28088   0.60129   0.85690   0.00000  Uiso   1.00
C67    C     0.36966   0.68668   0.59713   0.00000  Uiso   1.00
C68    C     0.37947   0.64571   0.47996   0.00000  Uiso   1.00
C69    C     0.41041   0.60456   0.47743   0.00000  Uiso   1.00
H70    H     0.39025   0.73520   0.91176   0.00000  Uiso   1.00
H71    H     0.39181   0.91699   0.92343   0.00000  Uiso   1.00
H72    H     0.34788   0.64314   0.05160   0.00000  Uiso   1.00
H73    H     0.43675   0.64540   0.79125   0.00000  Uiso   1.00
H74    H     0.38455   0.11859   0.88757   0.00000  Uiso   1.00
H75    H     0.29191   0.54112   0.15780   0.00000  Uiso   1.00
H76    H     0.47931   0.54589   0.60881   0.00000  Uiso   1.00
H77    H     0.32099   0.73558   0.53543   0.00000  Uiso   1.00
H78    H     0.31876   0.91740   0.52645   0.00000  Uiso   1.00
H79    H     0.27482   0.64354   0.65462   0.00000  Uiso   1.00
H80    H     0.36369   0.64581   0.39428   0.00000  Uiso   1.00
H81    H     0.32525   0.11892   0.56536   0.00000  Uiso   1.00
H82    H     0.23262   0.54144   0.83560   0.00000  Uiso   1.00
H83    H     0.42001   0.54622   0.28661   0.00000  Uiso   1.00
O84    O     0.35467   0.23835   0.72738   0.00000  Uiso   1.00
O85    O     0.23314   0.48072   0.08190   0.00000  Uiso   1.00
O86    O     0.47900   0.48698   0.36165   0.00000  Uiso   1.00
N87    N     0.37091   0.09372   0.81295   0.00000  Uiso   1.00
N88    N     0.28430   0.55383   0.06561   0.00000  Uiso   1.00
N89    N     0.45949   0.55827   0.55237   0.00000  Uiso   1.00
N90    N     0.33900   0.09389   0.63958   0.00000  Uiso   1.00
N91    N     0.25239   0.55401   0.89223   0.00000  Uiso   1.00
N92    N     0.42758   0.55844   0.37899   0.00000  Uiso   1.00
C93    C     0.87438   0.76471   0.17446   0.00000  Uiso   1.00
C94    C     0.86563   0.66588   0.22031   0.00000  Uiso   1.00
C95    C     0.87604   0.58289   0.16228   0.00000  Uiso   1.00
C96    C     0.86534   0.49968   0.21897   0.00000  Uiso   1.00
C97    C     0.85484   0.34625   0.27327   0.00000  Uiso   1.00
C98    C     0.84176   0.81467   0.15067   0.00000  Uiso   1.00
C99    C     0.83210   0.85678   0.03408   0.00000  Uiso   1.00
C100   C     0.80130   0.89882   0.03216   0.00000  Uiso   1.00
C101   C     0.75374   0.97645   0.97837   0.00000  Uiso   1.00
C102   C     0.89004   0.81343   0.29212   0.00000  Uiso   1.00
C103   C     0.92098   0.85453   0.29446   0.00000  Uiso   1.00
C104   C     0.93083   0.89555   0.41163   0.00000  Uiso   1.00
C105   C     0.95825   0.97124   0.57746   0.00000  Uiso   1.00
C106   C     0.83686   0.76450   0.37835   0.00000  Uiso   1.00
C107   C     0.84525   0.66578   0.33106   0.00000  Uiso   1.00
C108   C     0.83453   0.58266   0.38785   0.00000  Uiso   1.00
C109   C     0.84492   0.49956   0.32991   0.00000  Uiso   1.00
C110   C     0.82138   0.81456   0.26141   0.00000  Uiso   1.00
C111   C     0.79058   0.85655   0.25966   0.00000  Uiso   1.00
C112   C     0.78088   0.89871   0.14310   0.00000  Uiso   1.00
C113   C     0.86966   0.81332   0.40287   0.00000  Uiso   1.00
C114   C     0.87947   0.85429   0.52004   0.00000  Uiso   1.00
C115   C     0.91041   0.89544   0.52257   0.00000  Uiso   1.00
H116   H     0.89025   0.76480   0.08824   0.00000  Uiso   1.00
H117   H     0.89181   0.58301   0.07657   0.00000  Uiso   1.00
H118   H     0.84788   0.85686   0.94840   0.00000  Uiso   1.00
H119   H     0.93675   0.85460   0.20875   0.00000  Uiso   1.00
H120   H     0.88455   0.38141   0.11243   0.00000  Uiso   1.00
H121   H     0.79191   0.95888   0.84220   0.00000  Uiso   1.00
H122   H     0.97931   0.95411   0.39119   0.00000  Uiso   1.00
H123   H     0.82099   0.76442   0.46457   0.00000  Uiso   1.00
H124   H     0.81876   0.58260   0.47355   0.00000  Uiso   1.00
H125   H     0.77482   0.85646   0.34538   0.00000  Uiso   1.00
H126   H     0.86369   0.85419   0.60572   0.00000  Uiso   1.00
H127   H     0.82525   0.38108   0.43464   0.00000  Uiso   1.00
H128   H     0.73262   0.95856   0.16440   0.00000  Uiso   1.00
H129   H     0.92001   0.95378   0.71339   0.00000  Uiso   1.00
O130   O     0.85467   0.26165   0.27262   0.00000  Uiso   1.00
O131   O     0.73314   0.01928   0.91810   0.00000  Uiso   1.00
O132   O     0.97900   0.01302   0.63835   0.00000  Uiso   1.00
N133   N     0.87091   0.40628   0.18705   0.00000  Uiso   1.00
N134   N     0.78430   0.94617   0.93439   0.00000  Uiso   1.00
N135   N     0.95949   0.94173   0.44763   0.00000  Uiso   1.00
N136   N     0.83900   0.40611   0.36042   0.00000  Uiso   1.00
N137   N     0.75239   0.94599   0.10777   0.00000  Uiso   1.00
N138   N     0.92758   0.94156   0.62101   0.00000  Uiso   1.00
C139   C     0.62562   0.73529   0.67446   0.00000  Uiso   1.00
C140   C     0.63437   0.83412   0.72031   0.00000  Uiso   1.00
C141   C     0.62396   0.91711   0.66228   0.00000  Uiso   1.00
C142   C     0.63466   0.00032   0.71897   0.00000  Uiso   1.00
C143   C     0.64516   0.15375   0.77327   0.00000  Uiso   1.00
C144   C     0.65824   0.68533   0.65067   0.00000  Uiso   1.00
C145   C     0.66790   0.64322   0.53408   0.00000  Uiso   1.00
C146   C     0.69870   0.60118   0.53216   0.00000  Uiso   1.00
C147   C     0.74626   0.52355   0.47837   0.00000  Uiso   1.00
C148   C     0.60996   0.68657   0.79212   0.00000  Uiso   1.00
C149   C     0.57902   0.64547   0.79446   0.00000  Uiso   1.00
C150   C     0.56917   0.60445   0.91163   0.00000  Uiso   1.00
C151   C     0.54175   0.52876   0.07746   0.00000  Uiso   1.00
C152   C     0.66314   0.73550   0.87835   0.00000  Uiso   1.00
C153   C     0.65475   0.83422   0.83106   0.00000  Uiso   1.00
C154   C     0.66547   0.91734   0.88785   0.00000  Uiso   1.00
C155   C     0.65508   0.00044   0.82991   0.00000  Uiso   1.00
C156   C     0.67862   0.68544   0.76141   0.00000  Uiso   1.00
C157   C     0.70942   0.64345   0.75966   0.00000  Uiso   1.00
C158   C     0.71912   0.60129   0.64310   0.00000  Uiso   1.00
C159   C     0.63034   0.68668   0.90287   0.00000  Uiso   1.00
C160   C     0.62053   0.64571   0.02004   0.00000  Uiso   1.00
C161   C     0.58959   0.60456   0.02257   0.00000  Uiso   1.00
H162   H     0.60975   0.73520   0.58824   0.00000  Uiso   1.00
H163   H     0.60819   0.91699   0.57657   0.00000  Uiso   1.00
H164   H     0.65212   0.64314   0.44840   0.00000  Uiso   1.00
H165   H     0.56325   0.64540   0.70875   0.00000  Uiso   1.00
H166   H     0.61545   0.11859   0.61243   0.00000  Uiso   1.00
H167   H     0.70809   0.54112   0.34220   0.00000  Uiso   1.00
H168   H     0.52069   0.54589   0.89119   0.00000  Uiso   1.00
H169   H     0.67901   0.73558   0.96457   0.00000  Uiso   1.00
H170   H     0.68124   0.91740   0.97355   0.00000  Uiso   1.00
H171   H     0.72518   0.64354   0.84538   0.00000  Uiso   1.00
H172   H     0.63631   0.64581   0.10572   0.00000  Uiso   1.00
H173   H     0.67475   0.11892   0.93464   0.00000  Uiso   1.00
H174   H     0.76738   0.54144   0.66440   0.00000  Uiso   1.00
H175   H     0.57999   0.54622   0.21339   0.00000  Uiso   1.00
O176   O     0.64533   0.23835   0.77262   0.00000  Uiso   1.00
O177   O     0.76686   0.48072   0.41810   0.00000  Uiso   1.00
O178   O     0.52100   0.48698   0.13835   0.00000  Uiso   1.00
N179   N     0.62909   0.09372   0.68705   0.00000  Uiso   1.00
N180   N     0.71570   0.55383   0.43439   0.00000  Uiso   1.00
N181   N     0.54051   0.55827   0.94763   0.00000  Uiso   1.00
N182   N     0.66100   0.09389   0.86042   0.00000  Uiso   1.00
N183   N     0.74761   0.55401   0.60777   0.00000  Uiso   1.00
N184   N     0.57242   0.55844   0.12101   0.00000  Uiso   1.00
C185   C     0.87438   0.23529   0.67446   0.00000  Uiso   1.00
C186   C     0.86563   0.33412   0.72031   0.00000  Uiso   1.00
C187   C     0.87604   0.41711   0.66228   0.00000  Uiso   1.00
C188   C     0.86534   0.50032   0.71897   0.00000  Uiso   1.00
C189   C     0.85484   0.65375   0.77327   0.00000  Uiso   1.00
C190   C     0.84176   0.18533   0.65067   0.00000  Uiso   1.00
C191   C     0.83210   0.14322   0.53408   0.00000  Uiso   1.00
C192   C     0.80130   0.10118   0.53216   0.00000  Uiso   1.00
C193   C     0.75374   0.02355   0.47837   0.00000  Uiso   1.00
C194   C     0.89004   0.18657   0.79212   0.00000  Uiso   1.00
C195   C     0.92098   0.14547   0.79446   0.00000  Uiso   1.00
C196   C     0.93083   0.10445   0.91163   0.00000  Uiso   1.00
C197   C     0.95825   0.02876   0.07746   0.00000  Uiso   1.00
C198   C     0.83686   0.23550   0.87835   0.00000  Uiso   1.00
C199   C     0.84525   0.33422   0.83106   0.00000  Uiso   1.00
C200   C     0.83453   0.41734   0.88785   0.00000  Uiso   1.00
C201   C     0.84492   0.50044   0.82991   0.00000  Uiso   1.00
C202   C     0.82138   0.18544   0.76141   0.00000  Uiso   1.00
C203   C     0.79058   0.14345   0.75966   0.00000  Uiso   1.00
C204   C     0.78088   0.10129   0.64310   0.00000  Uiso   1.00
C205   C     0.86966   0.18668   0.90287   0.00000  Uiso   1.00
C206   C     0.87947   0.14571   0.02004   0.00000  Uiso   1.00
C207   C     0.91041   0.10456   0.02257   0.00000  Uiso   1.00
H208   H     0.89025   0.23520   0.58824   0.00000  Uiso   1.00
H209   H     0.89181   0.41699   0.57657   0.00000  Uiso   1.00
H210   H     0.84788   0.14314   0.44840   0.00000  Uiso   1.00
H211   H     0.93675   0.14540   0.70875   0.00000  Uiso   1.00
H212   H     0.88455   0.61859   0.61243   0.00000  Uiso   1.00
H213   H     0.79191   0.04112   0.34220   0.00000  Uiso   1.00
H214   H     0.97931   0.04589   0.89119   0.00000  Uiso   1.00
H215   H     0.82099   0.23558   0.96457   0.00000  Uiso   1.00
H216   H     0.81876   0.41740   0.97355   0.00000  Uiso   1.00
H217   H     0.77482   0.14354   0.84538   0.00000  Uiso   1.00
H218   H     0.86369   0.14581   0.10572   0.00000  Uiso   1.00
H219   H     0.82525   0.61892   0.93464   0.00000  Uiso   1.00
H220   H     0.73262   0.04144   0.66440   0.00000  Uiso   1.00
H221   H     0.92001   0.04622   0.21339   0.00000  Uiso   1.00
O222   O     0.85467   0.73835   0.77262   0.00000  Uiso   1.00
O223   O     0.73314   0.98072   0.41810   0.00000  Uiso   1.00
O224   O     0.97900   0.98698   0.13835   0.00000  Uiso   1.00
N225   N     0.87091   0.59372   0.68705   0.00000  Uiso   1.00
N226   N     0.78430   0.05383   0.43439   0.00000  Uiso   1.00
N227   N     0.95949   0.05827   0.94763   0.00000  Uiso   1.00
N228   N     0.83900   0.59389   0.86042   0.00000  Uiso   1.00
N229   N     0.75239   0.05401   0.60777   0.00000  Uiso   1.00
N230   N     0.92758   0.05844   0.12101   0.00000  Uiso   1.00
C231   C     0.62562   0.26471   0.17446   0.00000  Uiso   1.00
C232   C     0.63437   0.16588   0.22031   0.00000  Uiso   1.00
C233   C     0.62396   0.08289   0.16228   0.00000  Uiso   1.00
C234   C     0.63466   0.99968   0.21897   0.00000  Uiso   1.00
C235   C     0.64516   0.84625   0.27327   0.00000  Uiso   1.00
C236   C     0.65824   0.31467   0.15067   0.00000  Uiso   1.00
C237   C     0.66790   0.35678   0.03408   0.00000  Uiso   1.00
C238   C     0.69870   0.39882   0.03216   0.00000  Uiso   1.00
C239   C     0.74626   0.47645   0.97837   0.00000  Uiso   1.00
C240   C     0.60996   0.31343   0.29212   0.00000  Uiso   1.00
C241   C     0.57902   0.35453   0.29446   0.00000  Uiso   1.00
C242   C     0.56917   0.39555   0.41163   0.00000  Uiso   1.00
C243   C     0.54175   0.47124   0.57746   0.00000  Uiso   1.00
C244   C     0.66314   0.26450   0.37835   0.00000  Uiso   1.00
C245   C     0.65475   0.16578   0.33106   0.00000  Uiso   1.00
C246   C     0.66547   0.08266   0.38785   0.00000  Uiso   1.00
C247   C     0.65508   0.99956   0.32991   0.00000  Uiso   1.00
C248   C     0.67862   0.31456   0.26141   0.00000  Uiso   1.00
C249   C     0.70942   0.35655   0.25966   0.00000  Uiso   1.00
C250   C     0.71912   0.39871   0.14310   0.00000  Uiso   1.00
C251   C     0.63034   0.31332   0.40287   0.00000  Uiso   1.00
C252   C     0.62053   0.35429   0.52004   0.00000  Uiso   1.00
C253   C     0.58959   0.39544   0.52257   0.00000  Uiso   1.00
H254   H     0.60975   0.26480   0.08824   0.00000  Uiso   1.00
H255   H     0.60819   0.08301   0.07657   0.00000  Uiso   1.00
H256   H     0.65212   0.35686   0.94840   0.00000  Uiso   1.00
H257   H     0.56325   0.35460   0.20875   0.00000  Uiso   1.00
H258   H     0.61545   0.88141   0.11243   0.00000  Uiso   1.00
H259   H     0.70809   0.45888   0.84220   0.00000  Uiso   1.00
H260   H     0.52069   0.45411   0.39119   0.00000  Uiso   1.00
H261   H     0.67901   0.26442   0.46457   0.00000  Uiso   1.00
H262   H     0.68124   0.08260   0.47355   0.00000  Uiso   1.00
H263   H     0.72518   0.35646   0.34538   0.00000  Uiso   1.00
H264   H     0.63631   0.35419   0.60572   0.00000  Uiso   1.00
H265   H     0.67475   0.88108   0.43464   0.00000  Uiso   1.00
H266   H     0.76738   0.45856   0.16440   0.00000  Uiso   1.00
H267   H     0.57999   0.45378   0.71339   0.00000  Uiso   1.00
O268   O     0.64533   0.76165   0.27262   0.00000  Uiso   1.00
O269   O     0.76686   0.51928   0.91810   0.00000  Uiso   1.00
O270   O     0.52100   0.51302   0.63835   0.00000  Uiso   1.00
N271   N     0.62909   0.90628   0.18705   0.00000  Uiso   1.00
N272   N     0.71570   0.44617   0.93439   0.00000  Uiso   1.00
N273   N     0.54051   0.44173   0.44763   0.00000  Uiso   1.00
N274   N     0.66100   0.90611   0.36042   0.00000  Uiso   1.00
N275   N     0.74761   0.44599   0.10777   0.00000  Uiso   1.00
N276   N     0.57242   0.44156   0.62101   0.00000  Uiso   1.00
C277   C     0.12562   0.23529   0.82554   0.00000  Uiso   1.00
C278   C     0.13437   0.33412   0.77969   0.00000  Uiso   1.00
C279   C     0.12396   0.41711   0.83772   0.00000  Uiso   1.00
C280   C     0.13466   0.50032   0.78103   0.00000  Uiso   1.00
C281   C     0.14516   0.65375   0.72673   0.00000  Uiso   1.00
C282   C     0.15824   0.18533   0.84933   0.00000  Uiso   1.00
C283   C     0.16790   0.14322   0.96592   0.00000  Uiso   1.00
C284   C     0.19870   0.10118   0.96784   0.00000  Uiso   1.00
C285   C     0.24626   0.02355   0.02163   0.00000  Uiso   1.00
C286   C     0.10996   0.18657   0.70788   0.00000  Uiso   1.00
C287   C     0.07902   0.14547   0.70554   0.00000  Uiso   1.00
C288   C     0.06917   0.10445   0.58837   0.00000  Uiso   1.00
C289   C     0.04175   0.02876   0.42254   0.00000  Uiso   1.00
C290   C     0.16314   0.23550   0.62165   0.00000  Uiso   1.00
C291   C     0.15475   0.33422   0.66894   0.00000  Uiso   1.00
C292   C     0.16547   0.41734   0.61215   0.00000  Uiso   1.00
C293   C     0.15508   0.50044   0.67009   0.00000  Uiso   1.00
C294   C     0.17862   0.18544   0.73859   0.00000  Uiso   1.00
C295   C     0.20942   0.14345   0.74034   0.00000  Uiso   1.00
C296   C     0.21912   0.10129   0.85690   0.00000  Uiso   1.00
C297   C     0.13034   0.18668   0.59713   0.00000  Uiso   1.00
C298   C     0.12053   0.14571   0.47996   0.00000  Uiso   1.00
C299   C     0.08959   0.10456   0.47743   0.00000  Uiso   1.00
H300   H     0.10975   0.23520   0.91176   0.00000  Uiso   1.00
H301   H     0.10819   0.41699   0.92343   0.00000  Uiso   1.00
H302   H     0.15212   0.14314   0.05160   0.00000  Uiso   1.00
H303   H     0.06325   0.14540   0.79125   0.00000  Uiso   1.00
H304   H     0.11545   0.61859   0.88757   0.00000  Uiso   1.00
H305   H     0.20809   0.04112   0.15780   0.00000  Uiso   1.00
H306   H     0.02069   0.04589   0.60881   0.00000  Uiso   1.00
H307   H     0.17901   0.23558   0.53543   0.00000  Uiso   1.00
H308   H     0.18124   0.41740   0.52645   0.00000  Uiso   1.00
H309   H     0.22518   0.14354   0.65462   0.00000  Uiso   1.00
H310   H     0.13631   0.14581   0.39428   0.00000  Uiso   1.00
H311   H     0.17475   0.61892   0.56536   0.00000  Uiso   1.00
H312   H     0.26738   0.04144   0.83560   0.00000  Uiso   1.00
H313   H     0.07999   0.04622   0.28661   0.00000  Uiso   1.00
O314   O     0.14533   0.73835   0.72738   0.00000  Uiso   1.00
O315   O     0.26686   0.98072   0.08190   0.00000  Uiso   1.00
O316   O     0.02100   0.98698   0.36165   0.00000  Uiso   1.00
N317   N     0.12909   0.59372   0.81295   0.00000  Uiso   1.00
N318   N     0.21570   0.05383   0.06561   0.00000  Uiso   1.00
N319   N     0.04051   0.05827   0.55237   0.00000  Uiso   1.00
N320   N     0.16100   0.59389   0.63958   0.00000  Uiso   1.00
N321   N     0.24761   0.05401   0.89223   0.00000  Uiso   1.00
N322   N     0.07242   0.05844   0.37899   0.00000  Uiso   1.00
C323   C     0.37438   0.26471   0.32554   0.00000  Uiso   1.00
C324   C     0.36563   0.16588   0.27969   0.00000  Uiso   1.00
C325   C     0.37604   0.08289   0.33772   0.00000  Uiso   1.00
C326   C     0.36534   0.99968   0.28103   0.00000  Uiso   1.00
C327   C     0.35484   0.84625   0.22673   0.00000  Uiso   1.00
C328   C     0.34176   0.31467   0.34933   0.00000  Uiso   1.00
C329   C     0.33210   0.35678   0.46592   0.00000  Uiso   1.00
C330   C     0.30130   0.39882   0.46784   0.00000  Uiso   1.00
C331   C     0.25374   0.47645   0.52163   0.00000  Uiso   1.00
C332   C     0.39004   0.31343   0.20788   0.00000  Uiso   1.00
C333   C     0.42098   0.35453   0.20554   0.00000  Uiso   1.00
C334   C     0.43083   0.39555   0.08837   0.00000  Uiso   1.00
C335   C     0.45825   0.47124   0.92254   0.00000  Uiso   1.00
C336   C     0.33686   0.26450   0.12165   0.00000  Uiso   1.00
C337   C     0.34525   0.16578   0.16894   0.00000  Uiso   1.00
C338   C     0.33453   0.08266   0.11215   0.00000  Uiso   1.00
C339   C     0.34492   0.99956   0.17009   0.00000  Uiso   1.00
C340   C     0.32138   0.31456   0.23859   0.00000  Uiso   1.00
C341   C     0.29058   0.35655   0.24034   0.00000  Uiso   1.00
C342   C     0.28088   0.39871   0.35690   0.00000  Uiso   1.00
C343   C     0.36966   0.31332   0.09713   0.00000  Uiso   1.00
C344   C     0.37947   0.35429   0.97996   0.00000  Uiso   1.00
C345   C     0.41041   0.39544   0.97743   0.00000  Uiso   1.00
H346   H     0.39025   0.26480   0.41176   0.00000  Uiso   1.00
H347   H     0.39181   0.08301   0.42343   0.00000  Uiso   1.00
H348   H     0.34788   0.35686   0.55160   0.00000  Uiso   1.00
H349   H     0.43675   0.35460   0.29125   0.00000  Uiso   1.00
H350   H     0.38455   0.88141   0.38757   0.00000  Uiso   1.00
H351   H     0.29191   0.45888   0.65780   0.00000  Uiso   1.00
H352   H     0.47931   0.45411   0.10881   0.00000  Uiso   1.00
H353   H     0.32099   0.26442   0.03543   0.00000  Uiso   1.00
H354   H     0.31876   0.08260   0.02645   0.00000  Uiso   1.00
H355   H     0.27482   0.35646   0.15462   0.00000  Uiso   1.00
H356   H     0.36369   0.35419   0.89428   0.00000  Uiso   1.00
H357   H     0.32525   0.88108   0.06536   0.00000  Uiso   1.00
H358   H     0.23262   0.45856   0.33560   0.00000  Uiso   1.00
H359   H     0.42001   0.45378   0.78661   0.00000  Uiso   1.00
O360   O     0.35467   0.76165   0.22738   0.00000  Uiso   1.00
O361   O     0.23314   0.51928   0.58190   0.00000  Uiso   1.00
O362   O     0.47900   0.51302   0.86165   0.00000  Uiso   1.00
N363   N     0.37091   0.90628   0.31295   0.00000  Uiso   1.00
N364   N     0.28430   0.44617   0.56561   0.00000  Uiso   1.00
N365   N     0.45949   0.44173   0.05237   0.00000  Uiso   1.00
N366   N     0.33900   0.90611   0.13958   0.00000  Uiso   1.00
N367   N     0.25239   0.44599   0.39223   0.00000  Uiso   1.00
N368   N     0.42758   0.44156   0.87899   0.00000  Uiso   1.00
