data_job_06902
_audit_creation_date              2018-12-19
_audit_creation_method            'Materials Studio'
_symmetry_space_group_name_H-M    'P1'
_symmetry_Int_Tables_number       1
_symmetry_cell_setting            triclinic
loop_
_symmetry_equiv_pos_as_xyz
  x,y,z
_cell_length_a                    19.7146
_cell_length_b                    22.8035
_cell_length_c                    23.8533
_cell_angle_alpha                 62.0010
_cell_angle_beta                  88.2848
_cell_angle_gamma                 80.2778
loop_
_atom_site_label
_atom_site_type_symbol
_atom_site_fract_x
_atom_site_fract_y
_atom_site_fract_z
_atom_site_U_iso_or_equiv
_atom_site_adp_type
_atom_site_occupancy
C1     C     0.78525   0.33780   0.48305   0.00000  Uiso   1.00
C2     C     0.76786   0.33252   0.42389   0.00000  Uiso   1.00
C3     C     0.80229   0.28576   0.40646   0.00000  Uiso   1.00
C4     C     0.77847   0.28926   0.35059   0.00000  Uiso   1.00
C5     C     0.76005   0.27371   0.26435   0.00000  Uiso   1.00
C6     C     0.79746   0.40977   0.45936   0.00000  Uiso   1.00
C7     C     0.85677   0.42796   0.47176   0.00000  Uiso   1.00
C8     C     0.85785   0.49649   0.44576   0.00000  Uiso   1.00
C9     C     0.88536   0.60086   0.41463   0.00000  Uiso   1.00
C10    C     0.71948   0.33236   0.51914   0.00000  Uiso   1.00
C11    C     0.71322   0.28546   0.58182   0.00000  Uiso   1.00
C12    C     0.64865   0.28882   0.60615   0.00000  Uiso   1.00
C13    C     0.55509   0.27300   0.66785   0.00000  Uiso   1.00
C14    C     0.68171   0.42718   0.41484   0.00000  Uiso   1.00
C15    C     0.71163   0.38107   0.38684   0.00000  Uiso   1.00
C16    C     0.68774   0.38464   0.33099   0.00000  Uiso   1.00
C17    C     0.72213   0.33789   0.31348   0.00000  Uiso   1.00
C18    C     0.74122   0.45832   0.42232   0.00000  Uiso   1.00
C19    C     0.74222   0.52684   0.39630   0.00000  Uiso   1.00
C20    C     0.80152   0.54512   0.40865   0.00000  Uiso   1.00
C21    C     0.66324   0.38090   0.48210   0.00000  Uiso   1.00
C22    C     0.59867   0.38434   0.50635   0.00000  Uiso   1.00
C23    C     0.59232   0.33746   0.56904   0.00000  Uiso   1.00
H24    H     0.82903   0.30001   0.51189   0.00000  Uiso   1.00
H25    H     0.84581   0.24820   0.43514   0.00000  Uiso   1.00
H26    H     0.90028   0.39038   0.50044   0.00000  Uiso   1.00
H27    H     0.75675   0.24790   0.61047   0.00000  Uiso   1.00
H28    H     0.83964   0.21219   0.33369   0.00000  Uiso   1.00
H29    H     0.95446   0.51197   0.47140   0.00000  Uiso   1.00
H30    H     0.65182   0.21153   0.70343   0.00000  Uiso   1.00
H31    H     0.63793   0.46497   0.38600   0.00000  Uiso   1.00
H32    H     0.64422   0.42222   0.30233   0.00000  Uiso   1.00
H33    H     0.69869   0.56439   0.36763   0.00000  Uiso   1.00
H34    H     0.55516   0.42192   0.47766   0.00000  Uiso   1.00
H35    H     0.67602   0.35343   0.22590   0.00000  Uiso   1.00
H36    H     0.79085   0.65321   0.36361   0.00000  Uiso   1.00
H37    H     0.48820   0.35277   0.59563   0.00000  Uiso   1.00
O38    O     0.76543   0.25172   0.22702   0.00000  Uiso   1.00
O39    O     0.91608   0.64502   0.40769   0.00000  Uiso   1.00
O40    O     0.51901   0.25085   0.71211   0.00000  Uiso   1.00
N41    N     0.80026   0.25129   0.31981   0.00000  Uiso   1.00
N42    N     0.90762   0.53157   0.44855   0.00000  Uiso   1.00
N43    N     0.62467   0.25070   0.66548   0.00000  Uiso   1.00
N44    N     0.71221   0.32729   0.26181   0.00000  Uiso   1.00
N45    N     0.81958   0.60756   0.39055   0.00000  Uiso   1.00
N46    N     0.53663   0.32669   0.60748   0.00000  Uiso   1.00
C47    C     0.53041   0.43425   0.85406   0.00000  Uiso   1.00
C48    C     0.54611   0.50061   0.80093   0.00000  Uiso   1.00
C49    C     0.52482   0.52887   0.73726   0.00000  Uiso   1.00
C50    C     0.54451   0.58989   0.69610   0.00000  Uiso   1.00
C51    C     0.56290   0.68811   0.61030   0.00000  Uiso   1.00
C52    C     0.60004   0.39082   0.88504   0.00000  Uiso   1.00
C53    C     0.62409   0.32678   0.89208   0.00000  Uiso   1.00
C54    C     0.68917   0.29538   0.92173   0.00000  Uiso   1.00
C55    C     0.79126   0.22313   0.96653   0.00000  Uiso   1.00
C56    C     0.49501   0.45113   0.90370   0.00000  Uiso   1.00
C57    C     0.43075   0.43779   0.92645   0.00000  Uiso   1.00
C58    C     0.40741   0.45715   0.97181   0.00000  Uiso   1.00
C59    C     0.34641   0.47854   0.04559   0.00000  Uiso   1.00
C60    C     0.60324   0.49235   0.89418   0.00000  Uiso   1.00
C61    C     0.58567   0.53216   0.82273   0.00000  Uiso   1.00
C62    C     0.60539   0.59315   0.78165   0.00000  Uiso   1.00
C63    C     0.58413   0.62151   0.71793   0.00000  Uiso   1.00
C64    C     0.63959   0.42238   0.90683   0.00000  Uiso   1.00
C65    C     0.70466   0.39106   0.93647   0.00000  Uiso   1.00
C66    C     0.72880   0.32699   0.94356   0.00000  Uiso   1.00
C67    C     0.53456   0.48269   0.92549   0.00000  Uiso   1.00
C68    C     0.51132   0.50207   0.97083   0.00000  Uiso   1.00
C69    C     0.44703   0.48876   0.99365   0.00000  Uiso   1.00
H70    H     0.49962   0.40968   0.83709   0.00000  Uiso   1.00
H71    H     0.49421   0.50443   0.72042   0.00000  Uiso   1.00
H72    H     0.59346   0.30237   0.87522   0.00000  Uiso   1.00
H73    H     0.40015   0.41337   0.90957   0.00000  Uiso   1.00
H74    H     0.50569   0.62339   0.60067   0.00000  Uiso   1.00
H75    H     0.71494   0.19732   0.92709   0.00000  Uiso   1.00
H76    H     0.30731   0.43137   0.99954   0.00000  Uiso   1.00
H77    H     0.63404   0.51692   0.91115   0.00000  Uiso   1.00
H78    H     0.63600   0.61756   0.79853   0.00000  Uiso   1.00
H79    H     0.73525   0.41549   0.95333   0.00000  Uiso   1.00
H80    H     0.54194   0.52649   0.98769   0.00000  Uiso   1.00
H81    H     0.62077   0.71521   0.66407   0.00000  Uiso   1.00
H82    H     0.83002   0.28913   0.99050   0.00000  Uiso   1.00
H83    H     0.42239   0.52319   0.06294   0.00000  Uiso   1.00
O84    O     0.56212   0.73356   0.55695   0.00000  Uiso   1.00
O85    O     0.83664   0.17457   0.98521   0.00000  Uiso   1.00
O86    O     0.30184   0.48164   0.08026   0.00000  Uiso   1.00
N87    N     0.53249   0.63119   0.63104   0.00000  Uiso   1.00
N88    N     0.72813   0.23285   0.93622   0.00000  Uiso   1.00
N89    N     0.34704   0.45165   0.00397   0.00000  Uiso   1.00
N90    N     0.59441   0.68060   0.66516   0.00000  Uiso   1.00
N91    N     0.79006   0.28225   0.97034   0.00000  Uiso   1.00
N92    N     0.40897   0.50105   0.03808   0.00000  Uiso   1.00
C93    C     0.29982   0.13941   0.28799   0.00000  Uiso   1.00
C94    C     0.36941   0.09375   0.29817   0.00000  Uiso   1.00
C95    C     0.43118   0.11518   0.27562   0.00000  Uiso   1.00
C96    C     0.48916   0.06553   0.29001   0.00000  Uiso   1.00
C97    C     0.59778   0.00507   0.30036   0.00000  Uiso   1.00
C98    C     0.25110   0.11667   0.25666   0.00000  Uiso   1.00
C99    C     0.21338   0.15737   0.19921   0.00000  Uiso   1.00
C100   C     0.17175   0.12701   0.17865   0.00000  Uiso   1.00
C101   C     0.09664   0.10214   0.12458   0.00000  Uiso   1.00
C102   C     0.27424   0.12126   0.35415   0.00000  Uiso   1.00
C103   C     0.25596   0.16583   0.37866   0.00000  Uiso   1.00
C104   C     0.23380   0.13934   0.44018   0.00000  Uiso   1.00
C105   C     0.19463   0.12160   0.53747   0.00000  Uiso   1.00
C106   C     0.29295   0.01313   0.35366   0.00000  Uiso   1.00
C107   C     0.36568   0.02516   0.33383   0.00000  Uiso   1.00
C108   C     0.42358   0.97547   0.34827   0.00000  Uiso   1.00
C109   C     0.48542   0.99682   0.32574   0.00000  Uiso   1.00
C110   C     0.24736   0.04808   0.29232   0.00000  Uiso   1.00
C111   C     0.20577   0.01766   0.27185   0.00000  Uiso   1.00
C112   C     0.16800   0.05830   0.21438   0.00000  Uiso   1.00
C113   C     0.27051   0.05267   0.38981   0.00000  Uiso   1.00
C114   C     0.24836   0.02611   0.45131   0.00000  Uiso   1.00
C115   C     0.23006   0.07063   0.47591   0.00000  Uiso   1.00
H116   H     0.30272   0.19280   0.26023   0.00000  Uiso   1.00
H117   H     0.43405   0.16826   0.24801   0.00000  Uiso   1.00
H118   H     0.21627   0.21044   0.17162   0.00000  Uiso   1.00
H119   H     0.25886   0.21890   0.35105   0.00000  Uiso   1.00
H120   H     0.57799   0.11080   0.25018   0.00000  Uiso   1.00
H121   H     0.11878   0.19975   0.08911   0.00000  Uiso   1.00
H122   H     0.20858   0.21758   0.46747   0.00000  Uiso   1.00
H123   H     0.29004   0.95973   0.38142   0.00000  Uiso   1.00
H124   H     0.42067   0.92240   0.37586   0.00000  Uiso   1.00
H125   H     0.20289   0.96458   0.29947   0.00000  Uiso   1.00
H126   H     0.24548   0.97303   0.47889   0.00000  Uiso   1.00
H127   H     0.56714   0.91125   0.35395   0.00000  Uiso   1.00
H128   H     0.10792   0.00020   0.19288   0.00000  Uiso   1.00
H129   H     0.19772   0.01803   0.57123   0.00000  Uiso   1.00
O130   O     0.65872   0.99067   0.29620   0.00000  Uiso   1.00
O131   O     0.05625   0.10738   0.08489   0.00000  Uiso   1.00
O132   O     0.17406   0.13077   0.58128   0.00000  Uiso   1.00
N133   N     0.55751   0.06896   0.27538   0.00000  Uiso   1.00
N134   N     0.12819   0.15212   0.12478   0.00000  Uiso   1.00
N135   N     0.21212   0.16880   0.47850   0.00000  Uiso   1.00
N136   N     0.55167   0.96158   0.33121   0.00000  Uiso   1.00
N137   N     0.12235   0.04474   0.18062   0.00000  Uiso   1.00
N138   N     0.20628   0.06142   0.53434   0.00000  Uiso   1.00
C139   C     0.22367   0.74678   0.31704   0.00000  Uiso   1.00
C140   C     0.21106   0.76514   0.24750   0.00000  Uiso   1.00
C141   C     0.23703   0.81528   0.19581   0.00000  Uiso   1.00
C142   C     0.21957   0.82422   0.13601   0.00000  Uiso   1.00
C143   C     0.20640   0.85876   0.02922   0.00000  Uiso   1.00
C144   C     0.25445   0.67182   0.35102   0.00000  Uiso   1.00
C145   C     0.31690   0.64349   0.38637   0.00000  Uiso   1.00
C146   C     0.33596   0.57388   0.41371   0.00000  Uiso   1.00
C147   C     0.39013   0.46353   0.46768   0.00000  Uiso   1.00
C148   C     0.15260   0.75317   0.34279   0.00000  Uiso   1.00
C149   C     0.12942   0.79322   0.37124   0.00000  Uiso   1.00
C150   C     0.06273   0.79208   0.39167   0.00000  Uiso   1.00
C151   C     0.95876   0.80804   0.43286   0.00000  Uiso   1.00
C152   C     0.14648   0.67352   0.30275   0.00000  Uiso   1.00
C153   C     0.16913   0.72534   0.23975   0.00000  Uiso   1.00
C154   C     0.15163   0.73422   0.18000   0.00000  Uiso   1.00
C155   C     0.17757   0.78436   0.12823   0.00000  Uiso   1.00
C156   C     0.21253   0.63203   0.34326   0.00000  Uiso   1.00
C157   C     0.23150   0.56243   0.37056   0.00000  Uiso   1.00
C158   C     0.29396   0.53401   0.40594   0.00000  Uiso   1.00
C159   C     0.11067   0.71337   0.33503   0.00000  Uiso   1.00
C160   C     0.04401   0.71217   0.35543   0.00000  Uiso   1.00
C161   C     0.02073   0.75222   0.38389   0.00000  Uiso   1.00
H162   H     0.25631   0.77776   0.32308   0.00000  Uiso   1.00
H163   H     0.26948   0.84606   0.20184   0.00000  Uiso   1.00
H164   H     0.34933   0.67430   0.39237   0.00000  Uiso   1.00
H165   H     0.16188   0.82401   0.37724   0.00000  Uiso   1.00
H166   H     0.26561   0.90421   0.06400   0.00000  Uiso   1.00
H167   H     0.43397   0.54205   0.46577   0.00000  Uiso   1.00
H168   H     0.03869   0.85775   0.43385   0.00000  Uiso   1.00
H169   H     0.11383   0.64253   0.29671   0.00000  Uiso   1.00
H170   H     0.11918   0.70341   0.17401   0.00000  Uiso   1.00
H171   H     0.19904   0.53166   0.36455   0.00000  Uiso   1.00
H172   H     0.01158   0.68137   0.34941   0.00000  Uiso   1.00
H173   H     0.14363   0.78844   0.04141   0.00000  Uiso   1.00
H174   H     0.31199   0.42627   0.44319   0.00000  Uiso   1.00
H175   H     0.91670   0.74197   0.41127   0.00000  Uiso   1.00
O176   O     0.21073   0.88880   0.97247   0.00000  Uiso   1.00
O177   O     0.43160   0.41366   0.49959   0.00000  Uiso   1.00
O178   O     0.91300   0.82784   0.45771   0.00000  Uiso   1.00
N179   N     0.23616   0.86862   0.07552   0.00000  Uiso   1.00
N180   N     0.39357   0.53002   0.45114   0.00000  Uiso   1.00
N181   N     0.02402   0.82515   0.42132   0.00000  Uiso   1.00
N182   N     0.17052   0.80632   0.06337   0.00000  Uiso   1.00
N183   N     0.32793   0.46772   0.43899   0.00000  Uiso   1.00
N184   N     0.95837   0.76286   0.40917   0.00000  Uiso   1.00
C185   C     0.00115   0.59539   0.77829   0.00000  Uiso   1.00
C186   C     0.04863   0.53821   0.77307   0.00000  Uiso   1.00
C187   C     0.04646   0.52255   0.72359   0.00000  Uiso   1.00
C188   C     0.09432   0.46834   0.72764   0.00000  Uiso   1.00
C189   C     0.16072   0.38522   0.71165   0.00000  Uiso   1.00
C190   C     0.04819   0.63842   0.78543   0.00000  Uiso   1.00
C191   C     0.04564   0.70703   0.74635   0.00000  Uiso   1.00
C192   C     0.09314   0.73718   0.76082   0.00000  Uiso   1.00
C193   C     0.15882   0.80965   0.76405   0.00000  Uiso   1.00
C194   C     0.96754   0.56265   0.84159   0.00000  Uiso   1.00
C195   C     0.89719   0.56756   0.84974   0.00000  Uiso   1.00
C196   C     0.87678   0.53392   0.91150   0.00000  Uiso   1.00
C197   C     0.81725   0.48874   0.00193   0.00000  Uiso   1.00
C198   C     0.09002   0.52694   0.87347   0.00000  Uiso   1.00
C199   C     0.09690   0.50103   0.82477   0.00000  Uiso   1.00
C200   C     0.14478   0.44682   0.82889   0.00000  Uiso   1.00
C201   C     0.14268   0.43109   0.77943   0.00000  Uiso   1.00
C202   C     0.09646   0.60124   0.83713   0.00000  Uiso   1.00
C203   C     0.14396   0.63130   0.85166   0.00000  Uiso   1.00
C204   C     0.14149   0.69993   0.81261   0.00000  Uiso   1.00
C205   C     0.01581   0.52546   0.89329   0.00000  Uiso   1.00
C206   C     0.99551   0.49182   0.95505   0.00000  Uiso   1.00
C207   C     0.92514   0.49667   0.96329   0.00000  Uiso   1.00
H208   H     0.96357   0.62434   0.73804   0.00000  Uiso   1.00
H209   H     0.00910   0.55134   0.68359   0.00000  Uiso   1.00
H210   H     0.00828   0.73579   0.70635   0.00000  Uiso   1.00
H211   H     0.85985   0.59633   0.80973   0.00000  Uiso   1.00
H212   H     0.08087   0.45403   0.64600   0.00000  Uiso   1.00
H213   H     0.07913   0.84295   0.69402   0.00000  Uiso   1.00
H214   H     0.76614   0.54888   0.91200   0.00000  Uiso   1.00
H215   H     0.12760   0.49799   0.91372   0.00000  Uiso   1.00
H216   H     0.18213   0.41806   0.86891   0.00000  Uiso   1.00
H217   H     0.18131   0.60251   0.89167   0.00000  Uiso   1.00
H218   H     0.03288   0.46305   0.99504   0.00000  Uiso   1.00
H219   H     0.22131   0.34585   0.79641   0.00000  Uiso   1.00
H220   H     0.21957   0.73478   0.84443   0.00000  Uiso   1.00
H221   H     0.90658   0.44070   0.06241   0.00000  Uiso   1.00
O222   O     0.18402   0.34965   0.68854   0.00000  Uiso   1.00
O223   O     0.18172   0.85990   0.75155   0.00000  Uiso   1.00
O224   O     0.77108   0.47409   0.03753   0.00000  Uiso   1.00
N225   N     0.10643   0.43953   0.68756   0.00000  Uiso   1.00
N226   N     0.10481   0.80315   0.73244   0.00000  Uiso   1.00
N227   N     0.81219   0.52823   0.93624   0.00000  Uiso   1.00
N228   N     0.18200   0.38132   0.76849   0.00000  Uiso   1.00
N229   N     0.18038   0.74494   0.81338   0.00000  Uiso   1.00
N230   N     0.88776   0.47002   0.01717   0.00000  Uiso   1.00
C231   C     0.72598   0.76627   0.11384   0.00000  Uiso   1.00
C232   C     0.79886   0.77776   0.09410   0.00000  Uiso   1.00
C233   C     0.85365   0.72858   0.09834   0.00000  Uiso   1.00
C234   C     0.91622   0.74928   0.07781   0.00000  Uiso   1.00
C235   C     0.02825   0.75685   0.05077   0.00000  Uiso   1.00
C236   C     0.67837   0.81397   0.05521   0.00000  Uiso   1.00
C237   C     0.63185   0.79522   0.02675   0.00000  Uiso   1.00
C238   C     0.59298   0.84641   0.97348   0.00000  Uiso   1.00
C239   C     0.51791   0.91020   0.88609   0.00000  Uiso   1.00
C240   C     0.71007   0.79223   0.16204   0.00000  Uiso   1.00
C241   C     0.69020   0.75522   0.22341   0.00000  Uiso   1.00
C242   C     0.67801   0.78810   0.26008   0.00000  Uiso   1.00
C243   C     0.65217   0.81814   0.33856   0.00000  Uiso   1.00
C244   C     0.73965   0.89049   0.06983   0.00000  Uiso   1.00
C245   C     0.80628   0.84523   0.07020   0.00000  Uiso   1.00
C246   C     0.86878   0.86601   0.04966   0.00000  Uiso   1.00
C247   C     0.92366   0.81687   0.05387   0.00000  Uiso   1.00
C248   C     0.68579   0.88144   0.03130   0.00000  Uiso   1.00
C249   C     0.64698   0.93266   0.97807   0.00000  Uiso   1.00
C250   C     0.60042   0.91400   0.94954   0.00000  Uiso   1.00
C251   C     0.71750   0.85970   0.13814   0.00000  Uiso   1.00
C252   C     0.70533   0.89265   0.17472   0.00000  Uiso   1.00
C253   C     0.68545   0.85570   0.23613   0.00000  Uiso   1.00
H254   H     0.72019   0.71375   0.13244   0.00000  Uiso   1.00
H255   H     0.84788   0.67637   0.11684   0.00000  Uiso   1.00
H256   H     0.62611   0.74301   0.04527   0.00000  Uiso   1.00
H257   H     0.68446   0.70301   0.24189   0.00000  Uiso   1.00
H258   H     0.99272   0.66469   0.08898   0.00000  Uiso   1.00
H259   H     0.52509   0.80520   0.93807   0.00000  Uiso   1.00
H260   H     0.64812   0.72085   0.35269   0.00000  Uiso   1.00
H261   H     0.74543   0.94303   0.05122   0.00000  Uiso   1.00
H262   H     0.87451   0.91823   0.03116   0.00000  Uiso   1.00
H263   H     0.65274   0.98487   0.95958   0.00000  Uiso   1.00
H264   H     0.71109   0.94487   0.15621   0.00000  Uiso   1.00
H265   H     0.01434   0.86099   0.01943   0.00000  Uiso   1.00
H266   H     0.54669   0.00151   0.86853   0.00000  Uiso   1.00
H267   H     0.66973   0.91715   0.28315   0.00000  Uiso   1.00
O268   O     0.08798   0.74239   0.04245   0.00000  Uiso   1.00
O269   O     0.47445   0.92674   0.84448   0.00000  Uiso   1.00
O270   O     0.63588   0.81607   0.38845   0.00000  Uiso   1.00
N271   N     0.98010   0.71429   0.07537   0.00000  Uiso   1.00
N272   N     0.54289   0.84566   0.93428   0.00000  Uiso   1.00
N273   N     0.65790   0.76680   0.32191   0.00000  Uiso   1.00
N274   N     0.99173   0.81992   0.03795   0.00000  Uiso   1.00
N275   N     0.55452   0.95129   0.89686   0.00000  Uiso   1.00
N276   N     0.66953   0.87243   0.28449   0.00000  Uiso   1.00
C277   C     0.30813   0.65440   0.55209   0.00000  Uiso   1.00
C278   C     0.31603   0.63719   0.62180   0.00000  Uiso   1.00
C279   C     0.29637   0.68146   0.64643   0.00000  Uiso   1.00
C280   C     0.30794   0.65596   0.71149   0.00000  Uiso   1.00
C281   C     0.31559   0.63947   0.81381   0.00000  Uiso   1.00
C282   C     0.26630   0.60469   0.55046   0.00000  Uiso   1.00
C283   C     0.20483   0.62164   0.51510   0.00000  Uiso   1.00
C284   C     0.17454   0.56878   0.52011   0.00000  Uiso   1.00
C285   C     0.10501   0.50184   0.51163   0.00000  Uiso   1.00
C286   C     0.38009   0.63632   0.53317   0.00000  Uiso   1.00
C287   C     0.41430   0.67986   0.48327   0.00000  Uiso   1.00
C288   C     0.47982   0.65362   0.47370   0.00000  Uiso   1.00
C289   C     0.58697   0.63580   0.43839   0.00000  Uiso   1.00
C290   C     0.36365   0.53037   0.62383   0.00000  Uiso   1.00
C291   C     0.34618   0.56982   0.66077   0.00000  Uiso   1.00
C292   C     0.35779   0.54424   0.72581   0.00000  Uiso   1.00
C293   C     0.33815   0.58847   0.75053   0.00000  Uiso   1.00
C294   C     0.29645   0.53732   0.58943   0.00000  Uiso   1.00
C295   C     0.26625   0.48442   0.59448   0.00000  Uiso   1.00
C296   C     0.20475   0.50129   0.55914   0.00000  Uiso   1.00
C297   C     0.41025   0.56895   0.57214   0.00000  Uiso   1.00
C298   C     0.47572   0.54264   0.56265   0.00000  Uiso   1.00
C299   C     0.51002   0.58614   0.51274   0.00000  Uiso   1.00
H300   H     0.28465   0.70684   0.52175   0.00000  Uiso   1.00
H301   H     0.27303   0.73359   0.61626   0.00000  Uiso   1.00
H302   H     0.18151   0.67378   0.48495   0.00000  Uiso   1.00
H303   H     0.39095   0.73199   0.45312   0.00000  Uiso   1.00
H304   H     0.27342   0.73353   0.73823   0.00000  Uiso   1.00
H305   H     0.08046   0.60742   0.46134   0.00000  Uiso   1.00
H306   H     0.52210   0.73016   0.39422   0.00000  Uiso   1.00
H307   H     0.38712   0.47792   0.65417   0.00000  Uiso   1.00
H308   H     0.38113   0.49211   0.75595   0.00000  Uiso   1.00
H309   H     0.28960   0.43230   0.62464   0.00000  Uiso   1.00
H310   H     0.49904   0.49051   0.59281   0.00000  Uiso   1.00
H311   H     0.36115   0.53753   0.85161   0.00000  Uiso   1.00
H312   H     0.16819   0.41142   0.57471   0.00000  Uiso   1.00
H313   H     0.60983   0.53417   0.50760   0.00000  Uiso   1.00
O314   O     0.31148   0.64898   0.85949   0.00000  Uiso   1.00
O315   O     0.05832   0.48353   0.49620   0.00000  Uiso   1.00
O316   O     0.63775   0.64458   0.40815   0.00000  Uiso   1.00
N317   N     0.29491   0.68546   0.75094   0.00000  Uiso   1.00
N318   N     0.11449   0.56755   0.49207   0.00000  Uiso   1.00
N319   N     0.52738   0.68230   0.42931   0.00000  Uiso   1.00
N320   N     0.34212   0.57999   0.81195   0.00000  Uiso   1.00
N321   N     0.16170   0.46209   0.55308   0.00000  Uiso   1.00
N322   N     0.57459   0.57684   0.49032   0.00000  Uiso   1.00
C323   C     0.44431   0.71411   0.07835   0.00000  Uiso   1.00
C324   C     0.37828   0.68478   0.08823   0.00000  Uiso   1.00
C325   C     0.35768   0.63824   0.14592   0.00000  Uiso   1.00
C326   C     0.29553   0.61767   0.14499   0.00000  Uiso   1.00
C327   C     0.19906   0.56834   0.16894   0.00000  Uiso   1.00
C328   C     0.42183   0.79050   0.04652   0.00000  Uiso   1.00
C329   C     0.43786   0.83286   0.06913   0.00000  Uiso   1.00
C330   C     0.41238   0.90128   0.03307   0.00000  Uiso   1.00
C331   C     0.38358   0.01610   0.99224   0.00000  Uiso   1.00
C332   C     0.48230   0.69871   0.02886   0.00000  Uiso   1.00
C333   C     0.54918   0.66389   0.03662   0.00000  Uiso   1.00
C334   C     0.57461   0.65504   0.98569   0.00000  Uiso   1.00
C335   C     0.63969   0.62733   0.91745   0.00000  Uiso   1.00
C336   C     0.37057   0.76032   0.97409   0.00000  Uiso   1.00
C337   C     0.33822   0.70988   0.03160   0.00000  Uiso   1.00
C338   C     0.27609   0.68937   0.03057   0.00000  Uiso   1.00
C339   C     0.25540   0.64281   0.08825   0.00000  Uiso   1.00
C340   C     0.38178   0.81561   0.98989   0.00000  Uiso   1.00
C341   C     0.35628   0.88398   0.95378   0.00000  Uiso   1.00
C342   C     0.37226   0.92643   0.97634   0.00000  Uiso   1.00
C343   C     0.44224   0.72381   0.97223   0.00000  Uiso   1.00
C344   C     0.46758   0.71502   0.92127   0.00000  Uiso   1.00
C345   C     0.53449   0.68019   0.92895   0.00000  Uiso   1.00
H346   H     0.47550   0.69457   0.12244   0.00000  Uiso   1.00
H347   H     0.38869   0.61883   0.18974   0.00000  Uiso   1.00
H348   H     0.46886   0.81342   0.11296   0.00000  Uiso   1.00
H349   H     0.58015   0.64448   0.08045   0.00000  Uiso   1.00
H350   H     0.27476   0.54596   0.23939   0.00000  Uiso   1.00
H351   H     0.44384   0.95625   0.07747   0.00000  Uiso   1.00
H352   H     0.67853   0.60000   0.00893   0.00000  Uiso   1.00
H353   H     0.33939   0.77986   0.93000   0.00000  Uiso   1.00
H354   H     0.24511   0.70880   0.98674   0.00000  Uiso   1.00
H355   H     0.32528   0.90339   0.90995   0.00000  Uiso   1.00
H356   H     0.43658   0.73445   0.87745   0.00000  Uiso   1.00
H357   H     0.15823   0.61898   0.07462   0.00000  Uiso   1.00
H358   H     0.32731   0.02928   0.91270   0.00000  Uiso   1.00
H359   H     0.56199   0.67303   0.84416   0.00000  Uiso   1.00
O360   O     0.15692   0.53420   0.19781   0.00000  Uiso   1.00
O361   O     0.37876   0.07249   0.98537   0.00000  Uiso   1.00
O362   O     0.68665   0.60510   0.89545   0.00000  Uiso   1.00
N363   N     0.26028   0.57288   0.19282   0.00000  Uiso   1.00
N364   N     0.41835   0.95648   0.04144   0.00000  Uiso   1.00
N365   N     0.63777   0.62344   0.97736   0.00000  Uiso   1.00
N366   N     0.19757   0.61218   0.10416   0.00000  Uiso   1.00
N367   N     0.35565   0.99578   0.95279   0.00000  Uiso   1.00
N368   N     0.57506   0.66273   0.88870   0.00000  Uiso   1.00
C369   C     0.86000   0.82093   0.74543   0.00000  Uiso   1.00
C370   C     0.81269   0.87771   0.75143   0.00000  Uiso   1.00
C371   C     0.74151   0.88491   0.75388   0.00000  Uiso   1.00
C372   C     0.70757   0.94031   0.75943   0.00000  Uiso   1.00
C373   C     0.62863   0.02139   0.76833   0.00000  Uiso   1.00
C374   C     0.91239   0.78868   0.80204   0.00000  Uiso   1.00
C375   C     0.92503   0.72102   0.84704   0.00000  Uiso   1.00
C376   C     0.97502   0.70147   0.89519   0.00000  Uiso   1.00
C377   C     0.05089   0.64431   0.98263   0.00000  Uiso   1.00
C378   C     0.90037   0.85505   0.68659   0.00000  Uiso   1.00
C379   C     0.90293   0.84317   0.63452   0.00000  Uiso   1.00
C380   C     0.94281   0.87949   0.58548   0.00000  Uiso   1.00
C381   C     0.00002   0.92538   0.49367   0.00000  Uiso   1.00
C382   C     0.92630   0.90653   0.75093   0.00000  Uiso   1.00
C383   C     0.84870   0.92420   0.75442   0.00000  Uiso   1.00
C384   C     0.81486   0.97961   0.75997   0.00000  Uiso   1.00
C385   C     0.74364   0.98689   0.76242   0.00000  Uiso   1.00
C386   C     0.94839   0.83517   0.80503   0.00000  Uiso   1.00
C387   C     0.99838   0.81572   0.85312   0.00000  Uiso   1.00
C388   C     0.01109   0.74804   0.89818   0.00000  Uiso   1.00
C389   C     0.93638   0.90154   0.68958   0.00000  Uiso   1.00
C390   C     0.97627   0.93788   0.64061   0.00000  Uiso   1.00
C391   C     0.97888   0.92606   0.58847   0.00000  Uiso   1.00
H392   H     0.83197   0.78473   0.74310   0.00000  Uiso   1.00
H393   H     0.71366   0.84892   0.75157   0.00000  Uiso   1.00
H394   H     0.89716   0.68505   0.84471   0.00000  Uiso   1.00
H395   H     0.87506   0.80719   0.63222   0.00000  Uiso   1.00
H396   H     0.59838   0.94057   0.76230   0.00000  Uiso   1.00
H397   H     0.98531   0.59504   0.95867   0.00000  Uiso   1.00
H398   H     0.93870   0.85259   0.51061   0.00000  Uiso   1.00
H399   H     0.95434   0.94272   0.75326   0.00000  Uiso   1.00
H400   H     0.84274   0.01558   0.76228   0.00000  Uiso   1.00
H401   H     0.02623   0.85171   0.85542   0.00000  Uiso   1.00
H402   H     0.00413   0.97385   0.64294   0.00000  Uiso   1.00
H403   H     0.70314   0.07584   0.77099   0.00000  Uiso   1.00
H404   H     0.09007   0.73030   0.96737   0.00000  Uiso   1.00
H405   H     0.04346   0.98786   0.51930   0.00000  Uiso   1.00
O406   O     0.57514   0.05327   0.77242   0.00000  Uiso   1.00
O407   O     0.08279   0.59994   0.03004   0.00000  Uiso   1.00
O408   O     0.02163   0.93785   0.44220   0.00000  Uiso   1.00
N409   N     0.63835   0.96241   0.76309   0.00000  Uiso   1.00
N410   N     0.00010   0.63936   0.94670   0.00000  Uiso   1.00
N411   N     0.95653   0.88014   0.52780   0.00000  Uiso   1.00
N412   N     0.69472   0.03520   0.76777   0.00000  Uiso   1.00
N413   N     0.05647   0.71215   0.95137   0.00000  Uiso   1.00
N414   N     0.01290   0.95293   0.53248   0.00000  Uiso   1.00
C415   C     0.90240   0.25439   0.77505   0.00000  Uiso   1.00
C416   C     0.93961   0.27462   0.81669   0.00000  Uiso   1.00
C417   C     0.96748   0.23164   0.87809   0.00000  Uiso   1.00
C418   C     0.99943   0.25992   0.90821   0.00000  Uiso   1.00
C419   C     0.05657   0.28086   0.97749   0.00000  Uiso   1.00
C420   C     0.83165   0.29953   0.75629   0.00000  Uiso   1.00
C421   C     0.76875   0.27751   0.76689   0.00000  Uiso   1.00
C422   C     0.70983   0.32676   0.74614   0.00000  Uiso   1.00
C423   C     0.59937   0.38639   0.72159   0.00000  Uiso   1.00
C424   C     0.94087   0.27580   0.71401   0.00000  Uiso   1.00
C425   C     0.96979   0.23383   0.68904   0.00000  Uiso   1.00
C426   C     0.00280   0.26311   0.63269   0.00000  Uiso   1.00
C427   C     0.06192   0.28589   0.54249   0.00000  Uiso   1.00
C428   C     0.90959   0.38102   0.71935   0.00000  Uiso   1.00
C429   C     0.94351   0.34339   0.78644   0.00000  Uiso   1.00
C430   C     0.97543   0.37174   0.81647   0.00000  Uiso   1.00
C431   C     0.00334   0.32882   0.87791   0.00000  Uiso   1.00
C432   C     0.83555   0.36831   0.72604   0.00000  Uiso   1.00
C433   C     0.77671   0.41760   0.70527   0.00000  Uiso   1.00
C434   C     0.71373   0.39566   0.71584   0.00000  Uiso   1.00
C435   C     0.94477   0.34458   0.68375   0.00000  Uiso   1.00
C436   C     0.97774   0.37393   0.62742   0.00000  Uiso   1.00
C437   C     0.00671   0.33201   0.60238   0.00000  Uiso   1.00
H438   H     0.89936   0.20085   0.79860   0.00000  Uiso   1.00
H439   H     0.96444   0.17842   0.90149   0.00000  Uiso   1.00
H440   H     0.76575   0.22428   0.79029   0.00000  Uiso   1.00
H441   H     0.96675   0.18061   0.71247   0.00000  Uiso   1.00
H442   H     0.03829   0.18389   0.00223   0.00000  Uiso   1.00
H443   H     0.61934   0.28060   0.76775   0.00000  Uiso   1.00
H444   H     0.04320   0.18850   0.60363   0.00000  Uiso   1.00
H445   H     0.91263   0.43456   0.69580   0.00000  Uiso   1.00
H446   H     0.97844   0.42496   0.79305   0.00000  Uiso   1.00
H447   H     0.77975   0.47082   0.68185   0.00000  Uiso   1.00
H448   H     0.98075   0.42715   0.60403   0.00000  Uiso   1.00
H449   H     0.04965   0.38400   0.91422   0.00000  Uiso   1.00
H450   H     0.63070   0.48070   0.67973   0.00000  Uiso   1.00
H451   H     0.05456   0.38860   0.51562   0.00000  Uiso   1.00
O452   O     0.08701   0.27342   0.02406   0.00000  Uiso   1.00
O453   O     0.53736   0.40028   0.71642   0.00000  Uiso   1.00
O454   O     0.09345   0.27946   0.50110   0.00000  Uiso   1.00
N455   N     0.03195   0.23230   0.96817   0.00000  Uiso   1.00
N456   N     0.64025   0.32271   0.74895   0.00000  Uiso   1.00
N457   N     0.03651   0.23662   0.59550   0.00000  Uiso   1.00
N458   N     0.03806   0.33998   0.92081   0.00000  Uiso   1.00
N459   N     0.64637   0.43039   0.70159   0.00000  Uiso   1.00
N460   N     0.04262   0.34429   0.54814   0.00000  Uiso   1.00
C461   C     0.01524   0.38856   0.24933   0.00000  Uiso   1.00
C462   C     0.94082   0.42091   0.22436   0.00000  Uiso   1.00
C463   C     0.90572   0.47988   0.22270   0.00000  Uiso   1.00
C464   C     0.83792   0.50116   0.19807   0.00000  Uiso   1.00
C465   C     0.72716   0.55692   0.16271   0.00000  Uiso   1.00
C466   C     0.01293   0.31672   0.30076   0.00000  Uiso   1.00
C467   C     0.03846   0.28809   0.36333   0.00000  Uiso   1.00
C468   C     0.03136   0.22166   0.40301   0.00000  Uiso   1.00
C469   C     0.03258   0.11565   0.48624   0.00000  Uiso   1.00
C470   C     0.05222   0.38207   0.19492   0.00000  Uiso   1.00
C471   C     0.11080   0.40836   0.16850   0.00000  Uiso   1.00
C472   C     0.13680   0.39692   0.11907   0.00000  Uiso   1.00
C473   C     0.19902   0.39237   0.03797   0.00000  Uiso   1.00
C474   C     0.95724   0.32148   0.20854   0.00000  Uiso   1.00
C475   C     0.90932   0.38447   0.20221   0.00000  Uiso   1.00
C476   C     0.84156   0.40567   0.17758   0.00000  Uiso   1.00
C477   C     0.80636   0.46466   0.17588   0.00000  Uiso   1.00
C478   C     0.98143   0.28029   0.27861   0.00000  Uiso   1.00
C479   C     0.97429   0.21388   0.31821   0.00000  Uiso   1.00
C480   C     0.99981   0.18516   0.38082   0.00000  Uiso   1.00
C481   C     0.02072   0.34563   0.17276   0.00000  Uiso   1.00
C482   C     0.04663   0.33415   0.12337   0.00000  Uiso   1.00
C483   C     0.10524   0.36042   0.09688   0.00000  Uiso   1.00
H484   H     0.03976   0.41692   0.26658   0.00000  Uiso   1.00
H485   H     0.93012   0.50806   0.23986   0.00000  Uiso   1.00
H486   H     0.06284   0.31630   0.38046   0.00000  Uiso   1.00
H487   H     0.13516   0.43655   0.18565   0.00000  Uiso   1.00
H488   H     0.79466   0.59302   0.20048   0.00000  Uiso   1.00
H489   H     0.07453   0.18868   0.49694   0.00000  Uiso   1.00
H490   H     0.22704   0.44225   0.08616   0.00000  Uiso   1.00
H491   H     0.93272   0.29311   0.19130   0.00000  Uiso   1.00
H492   H     0.81719   0.37746   0.16044   0.00000  Uiso   1.00
H493   H     0.94992   0.18570   0.30105   0.00000  Uiso   1.00
H494   H     0.02224   0.30596   0.10624   0.00000  Uiso   1.00
H495   H     0.70300   0.48703   0.13603   0.00000  Uiso   1.00
H496   H     0.98288   0.08268   0.43249   0.00000  Uiso   1.00
H497   H     0.13539   0.33626   0.02171   0.00000  Uiso   1.00
O498   O     0.67476   0.59773   0.14933   0.00000  Uiso   1.00
O499   O     0.04195   0.06725   0.53827   0.00000  Uiso   1.00
O500   O     0.24204   0.39993   0.99934   0.00000  Uiso   1.00
N501   N     0.78894   0.55651   0.18953   0.00000  Uiso   1.00
N502   N     0.05060   0.17848   0.46671   0.00000  Uiso   1.00
N503   N     0.19320   0.41553   0.08268   0.00000  Uiso   1.00
N504   N     0.73962   0.49947   0.15485   0.00000  Uiso   1.00
N505   N     0.00128   0.12144   0.43203   0.00000  Uiso   1.00
N506   N     0.14388   0.35849   0.04800   0.00000  Uiso   1.00
C507   C     0.49231   0.18182   0.03233   0.00000  Uiso   1.00
C508   C     0.47746   0.11485   0.08507   0.00000  Uiso   1.00
C509   C     0.41272   0.09728   0.09972   0.00000  Uiso   1.00
C510   C     0.41001   0.03365   0.14969   0.00000  Uiso   1.00
C511   C     0.37782   0.93643   0.22641   0.00000  Uiso   1.00
C512   C     0.53259   0.21042   0.06449   0.00000  Uiso   1.00
C513   C     0.51421   0.27321   0.06183   0.00000  Uiso   1.00
C514   C     0.55791   0.29003   0.09447   0.00000  Uiso   1.00
C515   C     0.61135   0.34121   0.13921   0.00000  Uiso   1.00
C516   C     0.54247   0.16415   0.99040   0.00000  Uiso   1.00
C517   C     0.53242   0.18804   0.92544   0.00000  Uiso   1.00
C518   C     0.58446   0.16592   0.89571   0.00000  Uiso   1.00
C519   C     0.65325   0.14526   0.82541   0.00000  Uiso   1.00
C520   C     0.60260   0.10005   0.09501   0.00000  Uiso   1.00
C521   C     0.53736   0.07044   0.11911   0.00000  Uiso   1.00
C522   C     0.53475   0.00682   0.16907   0.00000  Uiso   1.00
C523   C     0.47002   0.98915   0.18380   0.00000  Uiso   1.00
C524   C     0.59249   0.16601   0.09853   0.00000  Uiso   1.00
C525   C     0.63623   0.18275   0.13118   0.00000  Uiso   1.00
C526   C     0.61793   0.24554   0.12858   0.00000  Uiso   1.00
C527   C     0.60238   0.11974   0.02445   0.00000  Uiso   1.00
C528   C     0.65445   0.09758   0.99480   0.00000  Uiso   1.00
C529   C     0.64447   0.12143   0.92981   0.00000  Uiso   1.00
H530   H     0.44567   0.21639   0.00582   0.00000  Uiso   1.00
H531   H     0.36637   0.13166   0.07336   0.00000  Uiso   1.00
H532   H     0.46785   0.30756   0.03547   0.00000  Uiso   1.00
H533   H     0.48606   0.22241   0.89911   0.00000  Uiso   1.00
H534   H     0.30487   0.01815   0.16327   0.00000  Uiso   1.00
H535   H     0.51885   0.38906   0.08336   0.00000  Uiso   1.00
H536   H     0.55725   0.20949   0.79582   0.00000  Uiso   1.00
H537   H     0.64925   0.06548   0.12152   0.00000  Uiso   1.00
H538   H     0.58111   0.97246   0.19541   0.00000  Uiso   1.00
H539   H     0.68259   0.14837   0.15752   0.00000  Uiso   1.00
H540   H     0.70080   0.06321   0.02116   0.00000  Uiso   1.00
H541   H     0.47916   0.88894   0.26233   0.00000  Uiso   1.00
H542   H     0.69314   0.25985   0.18242   0.00000  Uiso   1.00
H543   H     0.73154   0.08028   0.89488   0.00000  Uiso   1.00
O544   O     0.34352   0.89509   0.25933   0.00000  Uiso   1.00
O545   O     0.62426   0.38171   0.15448   0.00000  Uiso   1.00
O546   O     0.67463   0.14612   0.77724   0.00000  Uiso   1.00
N547   N     0.35524   0.00050   0.17644   0.00000  Uiso   1.00
N548   N     0.55529   0.34727   0.10173   0.00000  Uiso   1.00
N549   N     0.59120   0.17941   0.83290   0.00000  Uiso   1.00
N550   N     0.44903   0.93097   0.22974   0.00000  Uiso   1.00
N551   N     0.64908   0.27774   0.15504   0.00000  Uiso   1.00
N552   N     0.68498   0.10988   0.88620   0.00000  Uiso   1.00
