data_job_05837
_audit_creation_date              2018-12-19
_audit_creation_method            'Materials Studio'
_symmetry_space_group_name_H-M    'P1'
_symmetry_Int_Tables_number       1
_symmetry_cell_setting            triclinic
loop_
_symmetry_equiv_pos_as_xyz
  x,y,z
_cell_length_a                    23.7191
_cell_length_b                    7.3975
_cell_length_c                    18.5319
_cell_angle_alpha                 90.0000
_cell_angle_beta                  90.0000
_cell_angle_gamma                 90.0000
loop_
_atom_site_label
_atom_site_type_symbol
_atom_site_fract_x
_atom_site_fract_y
_atom_site_fract_z
_atom_site_U_iso_or_equiv
_atom_site_adp_type
_atom_site_occupancy
C1     C     0.50459   0.07576   0.75150   0.00000  Uiso   1.00
C2     C     0.45473   0.15544   0.79257   0.00000  Uiso   1.00
C3     C     0.41278   0.05735   0.82710   0.00000  Uiso   1.00
C4     C     0.37080   0.15538   0.86166   0.00000  Uiso   1.00
C5     C     0.29336   0.25031   0.92540   0.00000  Uiso   1.00
C6     C     0.50174   0.15537   0.67568   0.00000  Uiso   1.00
C7     C     0.49932   0.05721   0.61194   0.00000  Uiso   1.00
C8     C     0.49693   0.15519   0.54811   0.00000  Uiso   1.00
C9     C     0.49252   0.25001   0.43038   0.00000  Uiso   1.00
C10    C     0.55732   0.15531   0.78623   0.00000  Uiso   1.00
C11    C     0.60166   0.05711   0.81541   0.00000  Uiso   1.00
C12    C     0.64607   0.15504   0.84464   0.00000  Uiso   1.00
C13    C     0.72796   0.24976   0.89855   0.00000  Uiso   1.00
C14    C     0.50463   0.42429   0.75149   0.00000  Uiso   1.00
C15    C     0.45475   0.34475   0.79256   0.00000  Uiso   1.00
C16    C     0.41283   0.44296   0.82709   0.00000  Uiso   1.00
C17    C     0.37083   0.34503   0.86166   0.00000  Uiso   1.00
C18    C     0.50176   0.34467   0.67567   0.00000  Uiso   1.00
C19    C     0.49937   0.44282   0.61193   0.00000  Uiso   1.00
C20    C     0.49695   0.34484   0.54810   0.00000  Uiso   1.00
C21    C     0.55735   0.34462   0.78622   0.00000  Uiso   1.00
C22    C     0.60170   0.44272   0.81540   0.00000  Uiso   1.00
C23    C     0.64609   0.34469   0.84463   0.00000  Uiso   1.00
H24    H     0.50457   0.92838   0.75150   0.00000  Uiso   1.00
H25    H     0.41277   0.91085   0.82708   0.00000  Uiso   1.00
H26    H     0.49931   0.91072   0.61196   0.00000  Uiso   1.00
H27    H     0.60162   0.91061   0.81540   0.00000  Uiso   1.00
H28    H     0.31100   0.97490   0.91086   0.00000  Uiso   1.00
H29    H     0.49349   0.97462   0.45725   0.00000  Uiso   1.00
H30    H     0.70924   0.97440   0.88626   0.00000  Uiso   1.00
H31    H     0.50465   0.57168   0.75148   0.00000  Uiso   1.00
H32    H     0.41286   0.58946   0.82707   0.00000  Uiso   1.00
H33    H     0.49939   0.58932   0.61194   0.00000  Uiso   1.00
H34    H     0.60171   0.58922   0.81539   0.00000  Uiso   1.00
H35    H     0.31107   0.52568   0.91085   0.00000  Uiso   1.00
H36    H     0.49356   0.52540   0.45724   0.00000  Uiso   1.00
H37    H     0.70931   0.52518   0.88625   0.00000  Uiso   1.00
O38    O     0.25064   0.25038   0.96056   0.00000  Uiso   1.00
O39    O     0.49007   0.25000   0.36545   0.00000  Uiso   1.00
O40    O     0.77312   0.24971   0.92829   0.00000  Uiso   1.00
N41    N     0.32362   0.10209   0.90049   0.00000  Uiso   1.00
N42    N     0.49423   0.10182   0.47640   0.00000  Uiso   1.00
N43    N     0.69594   0.10162   0.87747   0.00000  Uiso   1.00
N44    N     0.32366   0.39846   0.90049   0.00000  Uiso   1.00
N45    N     0.49426   0.39819   0.47639   0.00000  Uiso   1.00
N46    N     0.69598   0.39799   0.87746   0.00000  Uiso   1.00
C47    C     0.49541   0.92424   0.25150   0.00000  Uiso   1.00
C48    C     0.54527   0.84456   0.29257   0.00000  Uiso   1.00
C49    C     0.58722   0.94265   0.32710   0.00000  Uiso   1.00
C50    C     0.62920   0.84462   0.36166   0.00000  Uiso   1.00
C51    C     0.70664   0.74969   0.42540   0.00000  Uiso   1.00
C52    C     0.49826   0.84463   0.17568   0.00000  Uiso   1.00
C53    C     0.50068   0.94279   0.11194   0.00000  Uiso   1.00
C54    C     0.50307   0.84481   0.04811   0.00000  Uiso   1.00
C55    C     0.50748   0.74999   0.93038   0.00000  Uiso   1.00
C56    C     0.44268   0.84469   0.28623   0.00000  Uiso   1.00
C57    C     0.39834   0.94289   0.31541   0.00000  Uiso   1.00
C58    C     0.35393   0.84496   0.34464   0.00000  Uiso   1.00
C59    C     0.27204   0.75024   0.39855   0.00000  Uiso   1.00
C60    C     0.49537   0.57571   0.25149   0.00000  Uiso   1.00
C61    C     0.54525   0.65525   0.29256   0.00000  Uiso   1.00
C62    C     0.58717   0.55704   0.32709   0.00000  Uiso   1.00
C63    C     0.62917   0.65497   0.36166   0.00000  Uiso   1.00
C64    C     0.49824   0.65533   0.17567   0.00000  Uiso   1.00
C65    C     0.50063   0.55718   0.11193   0.00000  Uiso   1.00
C66    C     0.50305   0.65516   0.04810   0.00000  Uiso   1.00
C67    C     0.44265   0.65538   0.28622   0.00000  Uiso   1.00
C68    C     0.39830   0.55728   0.31540   0.00000  Uiso   1.00
C69    C     0.35391   0.65531   0.34463   0.00000  Uiso   1.00
H70    H     0.49543   0.07162   0.25150   0.00000  Uiso   1.00
H71    H     0.58723   0.08915   0.32708   0.00000  Uiso   1.00
H72    H     0.50069   0.08928   0.11196   0.00000  Uiso   1.00
H73    H     0.39838   0.08939   0.31540   0.00000  Uiso   1.00
H74    H     0.68900   0.02510   0.41086   0.00000  Uiso   1.00
H75    H     0.50651   0.02538   0.95725   0.00000  Uiso   1.00
H76    H     0.29076   0.02560   0.38626   0.00000  Uiso   1.00
H77    H     0.49535   0.42832   0.25148   0.00000  Uiso   1.00
H78    H     0.58714   0.41054   0.32707   0.00000  Uiso   1.00
H79    H     0.50061   0.41068   0.11194   0.00000  Uiso   1.00
H80    H     0.39829   0.41078   0.31539   0.00000  Uiso   1.00
H81    H     0.68893   0.47432   0.41085   0.00000  Uiso   1.00
H82    H     0.50644   0.47460   0.95724   0.00000  Uiso   1.00
H83    H     0.29069   0.47482   0.38625   0.00000  Uiso   1.00
O84    O     0.74936   0.74962   0.46056   0.00000  Uiso   1.00
O85    O     0.50993   0.75000   0.86545   0.00000  Uiso   1.00
O86    O     0.22688   0.75029   0.42829   0.00000  Uiso   1.00
N87    N     0.67638   0.89791   0.40049   0.00000  Uiso   1.00
N88    N     0.50577   0.89818   0.97640   0.00000  Uiso   1.00
N89    N     0.30406   0.89838   0.37747   0.00000  Uiso   1.00
N90    N     0.67634   0.60154   0.40049   0.00000  Uiso   1.00
N91    N     0.50574   0.60181   0.97639   0.00000  Uiso   1.00
N92    N     0.30402   0.60201   0.37746   0.00000  Uiso   1.00
C93    C     0.00459   0.92424   0.75150   0.00000  Uiso   1.00
C94    C     0.95473   0.84456   0.79257   0.00000  Uiso   1.00
C95    C     0.91278   0.94265   0.82710   0.00000  Uiso   1.00
C96    C     0.87080   0.84462   0.86166   0.00000  Uiso   1.00
C97    C     0.79336   0.74969   0.92540   0.00000  Uiso   1.00
C98    C     0.00174   0.84463   0.67568   0.00000  Uiso   1.00
C99    C     0.99932   0.94279   0.61194   0.00000  Uiso   1.00
C100   C     0.99693   0.84481   0.54811   0.00000  Uiso   1.00
C101   C     0.99252   0.74999   0.43038   0.00000  Uiso   1.00
C102   C     0.05732   0.84469   0.78623   0.00000  Uiso   1.00
C103   C     0.10166   0.94289   0.81541   0.00000  Uiso   1.00
C104   C     0.14607   0.84496   0.84464   0.00000  Uiso   1.00
C105   C     0.22796   0.75024   0.89855   0.00000  Uiso   1.00
C106   C     0.00463   0.57571   0.75149   0.00000  Uiso   1.00
C107   C     0.95475   0.65525   0.79256   0.00000  Uiso   1.00
C108   C     0.91283   0.55704   0.82709   0.00000  Uiso   1.00
C109   C     0.87083   0.65497   0.86166   0.00000  Uiso   1.00
C110   C     0.00176   0.65533   0.67567   0.00000  Uiso   1.00
C111   C     0.99937   0.55718   0.61193   0.00000  Uiso   1.00
C112   C     0.99695   0.65516   0.54810   0.00000  Uiso   1.00
C113   C     0.05735   0.65538   0.78622   0.00000  Uiso   1.00
C114   C     0.10170   0.55728   0.81540   0.00000  Uiso   1.00
C115   C     0.14609   0.65531   0.84463   0.00000  Uiso   1.00
H116   H     0.00457   0.07162   0.75150   0.00000  Uiso   1.00
H117   H     0.91277   0.08915   0.82708   0.00000  Uiso   1.00
H118   H     0.99931   0.08928   0.61196   0.00000  Uiso   1.00
H119   H     0.10162   0.08939   0.81540   0.00000  Uiso   1.00
H120   H     0.81100   0.02510   0.91086   0.00000  Uiso   1.00
H121   H     0.99349   0.02538   0.45725   0.00000  Uiso   1.00
H122   H     0.20924   0.02560   0.88626   0.00000  Uiso   1.00
H123   H     0.00465   0.42832   0.75148   0.00000  Uiso   1.00
H124   H     0.91286   0.41054   0.82707   0.00000  Uiso   1.00
H125   H     0.99939   0.41068   0.61194   0.00000  Uiso   1.00
H126   H     0.10171   0.41078   0.81539   0.00000  Uiso   1.00
H127   H     0.81107   0.47432   0.91085   0.00000  Uiso   1.00
H128   H     0.99356   0.47460   0.45724   0.00000  Uiso   1.00
H129   H     0.20931   0.47482   0.88625   0.00000  Uiso   1.00
O130   O     0.75064   0.74962   0.96056   0.00000  Uiso   1.00
O131   O     0.99007   0.75000   0.36545   0.00000  Uiso   1.00
O132   O     0.27312   0.75029   0.92829   0.00000  Uiso   1.00
N133   N     0.82362   0.89791   0.90049   0.00000  Uiso   1.00
N134   N     0.99423   0.89818   0.47640   0.00000  Uiso   1.00
N135   N     0.19594   0.89838   0.87747   0.00000  Uiso   1.00
N136   N     0.82366   0.60154   0.90049   0.00000  Uiso   1.00
N137   N     0.99426   0.60181   0.47639   0.00000  Uiso   1.00
N138   N     0.19598   0.60201   0.87746   0.00000  Uiso   1.00
C139   C     0.99541   0.07576   0.25150   0.00000  Uiso   1.00
C140   C     0.04527   0.15544   0.29257   0.00000  Uiso   1.00
C141   C     0.08722   0.05735   0.32710   0.00000  Uiso   1.00
C142   C     0.12920   0.15538   0.36166   0.00000  Uiso   1.00
C143   C     0.20664   0.25031   0.42540   0.00000  Uiso   1.00
C144   C     0.99826   0.15537   0.17568   0.00000  Uiso   1.00
C145   C     0.00068   0.05721   0.11194   0.00000  Uiso   1.00
C146   C     0.00307   0.15519   0.04811   0.00000  Uiso   1.00
C147   C     0.00748   0.25001   0.93038   0.00000  Uiso   1.00
C148   C     0.94268   0.15531   0.28623   0.00000  Uiso   1.00
C149   C     0.89834   0.05711   0.31541   0.00000  Uiso   1.00
C150   C     0.85393   0.15504   0.34464   0.00000  Uiso   1.00
C151   C     0.77204   0.24976   0.39855   0.00000  Uiso   1.00
C152   C     0.99537   0.42429   0.25149   0.00000  Uiso   1.00
C153   C     0.04525   0.34475   0.29256   0.00000  Uiso   1.00
C154   C     0.08717   0.44296   0.32709   0.00000  Uiso   1.00
C155   C     0.12917   0.34503   0.36166   0.00000  Uiso   1.00
C156   C     0.99824   0.34467   0.17567   0.00000  Uiso   1.00
C157   C     0.00063   0.44282   0.11193   0.00000  Uiso   1.00
C158   C     0.00305   0.34484   0.04810   0.00000  Uiso   1.00
C159   C     0.94265   0.34462   0.28622   0.00000  Uiso   1.00
C160   C     0.89830   0.44272   0.31540   0.00000  Uiso   1.00
C161   C     0.85391   0.34469   0.34463   0.00000  Uiso   1.00
H162   H     0.99543   0.92838   0.25150   0.00000  Uiso   1.00
H163   H     0.08723   0.91085   0.32708   0.00000  Uiso   1.00
H164   H     0.00069   0.91072   0.11196   0.00000  Uiso   1.00
H165   H     0.89838   0.91061   0.31540   0.00000  Uiso   1.00
H166   H     0.18900   0.97490   0.41086   0.00000  Uiso   1.00
H167   H     0.00651   0.97462   0.95725   0.00000  Uiso   1.00
H168   H     0.79076   0.97440   0.38626   0.00000  Uiso   1.00
H169   H     0.99535   0.57168   0.25148   0.00000  Uiso   1.00
H170   H     0.08714   0.58946   0.32707   0.00000  Uiso   1.00
H171   H     0.00061   0.58932   0.11194   0.00000  Uiso   1.00
H172   H     0.89829   0.58922   0.31539   0.00000  Uiso   1.00
H173   H     0.18893   0.52568   0.41085   0.00000  Uiso   1.00
H174   H     0.00644   0.52540   0.95724   0.00000  Uiso   1.00
H175   H     0.79069   0.52518   0.38625   0.00000  Uiso   1.00
O176   O     0.24936   0.25038   0.46056   0.00000  Uiso   1.00
O177   O     0.00993   0.25000   0.86545   0.00000  Uiso   1.00
O178   O     0.72688   0.24971   0.42829   0.00000  Uiso   1.00
N179   N     0.17638   0.10209   0.40049   0.00000  Uiso   1.00
N180   N     0.00577   0.10182   0.97640   0.00000  Uiso   1.00
N181   N     0.80406   0.10162   0.37747   0.00000  Uiso   1.00
N182   N     0.17634   0.39846   0.40049   0.00000  Uiso   1.00
N183   N     0.00574   0.39819   0.97639   0.00000  Uiso   1.00
N184   N     0.80402   0.39799   0.37746   0.00000  Uiso   1.00
