data_job_05872
_audit_creation_date              2018-12-19
_audit_creation_method            'Materials Studio'
_symmetry_space_group_name_H-M    'P1'
_symmetry_Int_Tables_number       1
_symmetry_cell_setting            triclinic
loop_
_symmetry_equiv_pos_as_xyz
  x,y,z
_cell_length_a                    17.4736
_cell_length_b                    13.4252
_cell_length_c                    10.8644
_cell_angle_alpha                 90.0000
_cell_angle_beta                  115.7680
_cell_angle_gamma                 90.0000
loop_
_atom_site_label
_atom_site_type_symbol
_atom_site_fract_x
_atom_site_fract_y
_atom_site_fract_z
_atom_site_U_iso_or_equiv
_atom_site_adp_type
_atom_site_occupancy
C1     C     0.12370   0.56295   0.85557   0.00000  Uiso   1.00
C2     C     0.12622   0.53614   0.72098   0.00000  Uiso   1.00
C3     C     0.10483   0.44441   0.65594   0.00000  Uiso   1.00
C4     C     0.11137   0.43481   0.53363   0.00000  Uiso   1.00
C5     C     0.11121   0.38109   0.33307   0.00000  Uiso   1.00
C6     C     0.21284   0.59891   0.95045   0.00000  Uiso   1.00
C7     C     0.26426   0.55996   0.07835   0.00000  Uiso   1.00
C8     C     0.34371   0.60321   0.14921   0.00000  Uiso   1.00
C9     C     0.47800   0.64699   0.30496   0.00000  Uiso   1.00
C10    C     0.06609   0.65389   0.82568   0.00000  Uiso   1.00
C11    C     0.99415   0.66119   0.84871   0.00000  Uiso   1.00
C12    C     0.95006   0.75074   0.81455   0.00000  Uiso   1.00
C13    C     0.85651   0.87989   0.77657   0.00000  Uiso   1.00
C14    C     0.17335   0.70901   0.75400   0.00000  Uiso   1.00
C15    C     0.15319   0.61548   0.66582   0.00000  Uiso   1.00
C16    C     0.15976   0.60601   0.54356   0.00000  Uiso   1.00
C17    C     0.13838   0.51428   0.47835   0.00000  Uiso   1.00
C18    C     0.23981   0.67824   0.89529   0.00000  Uiso   1.00
C19    C     0.31919   0.72156   0.96598   0.00000  Uiso   1.00
C20    C     0.37073   0.68268   0.09395   0.00000  Uiso   1.00
C21    C     0.09306   0.73323   0.77051   0.00000  Uiso   1.00
C22    C     0.04908   0.82278   0.73632   0.00000  Uiso   1.00
C23    C     0.97708   0.83021   0.75929   0.00000  Uiso   1.00
H24    H     0.10271   0.50119   0.89853   0.00000  Uiso   1.00
H25    H     0.08397   0.38303   0.69868   0.00000  Uiso   1.00
H26    H     0.24337   0.49858   0.12102   0.00000  Uiso   1.00
H27    H     0.97330   0.59978   0.89140   0.00000  Uiso   1.00
H28    H     0.07510   0.28701   0.45279   0.00000  Uiso   1.00
H29    H     0.41121   0.53066   0.34336   0.00000  Uiso   1.00
H30    H     0.84171   0.74408   0.85917   0.00000  Uiso   1.00
H31    H     0.19435   0.77078   0.71105   0.00000  Uiso   1.00
H32    H     0.18063   0.66741   0.50090   0.00000  Uiso   1.00
H33    H     0.34004   0.78295   0.92325   0.00000  Uiso   1.00
H34    H     0.06997   0.88416   0.69363   0.00000  Uiso   1.00
H35    H     0.15356   0.51782   0.29227   0.00000  Uiso   1.00
H36    H     0.48967   0.76147   0.18285   0.00000  Uiso   1.00
H37    H     0.92017   0.97488   0.69865   0.00000  Uiso   1.00
O38    O     0.10368   0.32955   0.23770   0.00000  Uiso   1.00
O39    O     0.54463   0.64921   0.40610   0.00000  Uiso   1.00
O40    O     0.79745   0.92921   0.77085   0.00000  Uiso   1.00
N41    N     0.09544   0.35552   0.44384   0.00000  Uiso   1.00
N42    N     0.40968   0.58331   0.27646   0.00000  Uiso   1.00
N43    N     0.87725   0.78284   0.82382   0.00000  Uiso   1.00
N44    N     0.13765   0.47972   0.35747   0.00000  Uiso   1.00
N45    N     0.45190   0.70750   0.19009   0.00000  Uiso   1.00
N46    N     0.91947   0.90704   0.73744   0.00000  Uiso   1.00
C47    C     0.62370   0.06295   0.85557   0.00000  Uiso   1.00
C48    C     0.62622   0.03614   0.72098   0.00000  Uiso   1.00
C49    C     0.60483   0.94441   0.65594   0.00000  Uiso   1.00
C50    C     0.61137   0.93481   0.53363   0.00000  Uiso   1.00
C51    C     0.61121   0.88109   0.33307   0.00000  Uiso   1.00
C52    C     0.71284   0.09891   0.95045   0.00000  Uiso   1.00
C53    C     0.76426   0.05996   0.07835   0.00000  Uiso   1.00
C54    C     0.84371   0.10321   0.14921   0.00000  Uiso   1.00
C55    C     0.97800   0.14699   0.30496   0.00000  Uiso   1.00
C56    C     0.56609   0.15389   0.82568   0.00000  Uiso   1.00
C57    C     0.49415   0.16119   0.84871   0.00000  Uiso   1.00
C58    C     0.45006   0.25074   0.81455   0.00000  Uiso   1.00
C59    C     0.35651   0.37989   0.77657   0.00000  Uiso   1.00
C60    C     0.67335   0.20901   0.75400   0.00000  Uiso   1.00
C61    C     0.65319   0.11548   0.66582   0.00000  Uiso   1.00
C62    C     0.65976   0.10601   0.54356   0.00000  Uiso   1.00
C63    C     0.63838   0.01428   0.47835   0.00000  Uiso   1.00
C64    C     0.73981   0.17824   0.89529   0.00000  Uiso   1.00
C65    C     0.81919   0.22156   0.96598   0.00000  Uiso   1.00
C66    C     0.87073   0.18268   0.09395   0.00000  Uiso   1.00
C67    C     0.59306   0.23323   0.77051   0.00000  Uiso   1.00
C68    C     0.54908   0.32278   0.73632   0.00000  Uiso   1.00
C69    C     0.47708   0.33021   0.75929   0.00000  Uiso   1.00
H70    H     0.60271   0.00119   0.89853   0.00000  Uiso   1.00
H71    H     0.58397   0.88303   0.69868   0.00000  Uiso   1.00
H72    H     0.74337   0.99858   0.12102   0.00000  Uiso   1.00
H73    H     0.47330   0.09978   0.89140   0.00000  Uiso   1.00
H74    H     0.57510   0.78701   0.45279   0.00000  Uiso   1.00
H75    H     0.91121   0.03066   0.34336   0.00000  Uiso   1.00
H76    H     0.34171   0.24408   0.85917   0.00000  Uiso   1.00
H77    H     0.69435   0.27078   0.71105   0.00000  Uiso   1.00
H78    H     0.68063   0.16741   0.50090   0.00000  Uiso   1.00
H79    H     0.84004   0.28295   0.92325   0.00000  Uiso   1.00
H80    H     0.56997   0.38416   0.69363   0.00000  Uiso   1.00
H81    H     0.65356   0.01782   0.29227   0.00000  Uiso   1.00
H82    H     0.98967   0.26147   0.18285   0.00000  Uiso   1.00
H83    H     0.42017   0.47488   0.69865   0.00000  Uiso   1.00
O84    O     0.60368   0.82955   0.23770   0.00000  Uiso   1.00
O85    O     0.04463   0.14921   0.40610   0.00000  Uiso   1.00
O86    O     0.29745   0.42921   0.77085   0.00000  Uiso   1.00
N87    N     0.59544   0.85552   0.44384   0.00000  Uiso   1.00
N88    N     0.90968   0.08331   0.27646   0.00000  Uiso   1.00
N89    N     0.37725   0.28284   0.82382   0.00000  Uiso   1.00
N90    N     0.63765   0.97972   0.35747   0.00000  Uiso   1.00
N91    N     0.95190   0.20750   0.19009   0.00000  Uiso   1.00
N92    N     0.41947   0.40704   0.73744   0.00000  Uiso   1.00
C93    C     0.87630   0.56295   0.14443   0.00000  Uiso   1.00
C94    C     0.87378   0.53614   0.27902   0.00000  Uiso   1.00
C95    C     0.89517   0.44441   0.34406   0.00000  Uiso   1.00
C96    C     0.88863   0.43481   0.46637   0.00000  Uiso   1.00
C97    C     0.88879   0.38109   0.66693   0.00000  Uiso   1.00
C98    C     0.78716   0.59891   0.04955   0.00000  Uiso   1.00
C99    C     0.73574   0.55996   0.92165   0.00000  Uiso   1.00
C100   C     0.65629   0.60321   0.85079   0.00000  Uiso   1.00
C101   C     0.52200   0.64699   0.69504   0.00000  Uiso   1.00
C102   C     0.93391   0.65389   0.17432   0.00000  Uiso   1.00
C103   C     0.00585   0.66119   0.15129   0.00000  Uiso   1.00
C104   C     0.04994   0.75074   0.18545   0.00000  Uiso   1.00
C105   C     0.14349   0.87989   0.22343   0.00000  Uiso   1.00
C106   C     0.82665   0.70901   0.24600   0.00000  Uiso   1.00
C107   C     0.84681   0.61548   0.33418   0.00000  Uiso   1.00
C108   C     0.84024   0.60601   0.45644   0.00000  Uiso   1.00
C109   C     0.86162   0.51428   0.52165   0.00000  Uiso   1.00
C110   C     0.76019   0.67824   0.10471   0.00000  Uiso   1.00
C111   C     0.68081   0.72156   0.03402   0.00000  Uiso   1.00
C112   C     0.62927   0.68268   0.90605   0.00000  Uiso   1.00
C113   C     0.90694   0.73323   0.22949   0.00000  Uiso   1.00
C114   C     0.95092   0.82278   0.26368   0.00000  Uiso   1.00
C115   C     0.02292   0.83021   0.24071   0.00000  Uiso   1.00
H116   H     0.89729   0.50119   0.10147   0.00000  Uiso   1.00
H117   H     0.91603   0.38303   0.30132   0.00000  Uiso   1.00
H118   H     0.75663   0.49858   0.87898   0.00000  Uiso   1.00
H119   H     0.02670   0.59978   0.10860   0.00000  Uiso   1.00
H120   H     0.92490   0.28701   0.54721   0.00000  Uiso   1.00
H121   H     0.58879   0.53066   0.65664   0.00000  Uiso   1.00
H122   H     0.15829   0.74408   0.14083   0.00000  Uiso   1.00
H123   H     0.80565   0.77078   0.28895   0.00000  Uiso   1.00
H124   H     0.81937   0.66741   0.49910   0.00000  Uiso   1.00
H125   H     0.65996   0.78295   0.07675   0.00000  Uiso   1.00
H126   H     0.93003   0.88416   0.30637   0.00000  Uiso   1.00
H127   H     0.84644   0.51782   0.70773   0.00000  Uiso   1.00
H128   H     0.51033   0.76147   0.81715   0.00000  Uiso   1.00
H129   H     0.07983   0.97488   0.30135   0.00000  Uiso   1.00
O130   O     0.89632   0.32955   0.76230   0.00000  Uiso   1.00
O131   O     0.45537   0.64921   0.59390   0.00000  Uiso   1.00
O132   O     0.20255   0.92921   0.22915   0.00000  Uiso   1.00
N133   N     0.90456   0.35552   0.55616   0.00000  Uiso   1.00
N134   N     0.59032   0.58331   0.72354   0.00000  Uiso   1.00
N135   N     0.12275   0.78284   0.17618   0.00000  Uiso   1.00
N136   N     0.86235   0.47972   0.64253   0.00000  Uiso   1.00
N137   N     0.54810   0.70750   0.80991   0.00000  Uiso   1.00
N138   N     0.08053   0.90704   0.26256   0.00000  Uiso   1.00
C139   C     0.37630   0.06295   0.14443   0.00000  Uiso   1.00
C140   C     0.37378   0.03614   0.27902   0.00000  Uiso   1.00
C141   C     0.39517   0.94441   0.34406   0.00000  Uiso   1.00
C142   C     0.38863   0.93481   0.46637   0.00000  Uiso   1.00
C143   C     0.38879   0.88109   0.66693   0.00000  Uiso   1.00
C144   C     0.28716   0.09891   0.04955   0.00000  Uiso   1.00
C145   C     0.23574   0.05996   0.92165   0.00000  Uiso   1.00
C146   C     0.15629   0.10321   0.85079   0.00000  Uiso   1.00
C147   C     0.02200   0.14699   0.69504   0.00000  Uiso   1.00
C148   C     0.43391   0.15389   0.17432   0.00000  Uiso   1.00
C149   C     0.50585   0.16119   0.15129   0.00000  Uiso   1.00
C150   C     0.54994   0.25074   0.18545   0.00000  Uiso   1.00
C151   C     0.64349   0.37989   0.22343   0.00000  Uiso   1.00
C152   C     0.32665   0.20901   0.24600   0.00000  Uiso   1.00
C153   C     0.34681   0.11548   0.33418   0.00000  Uiso   1.00
C154   C     0.34024   0.10601   0.45644   0.00000  Uiso   1.00
C155   C     0.36162   0.01428   0.52165   0.00000  Uiso   1.00
C156   C     0.26019   0.17824   0.10471   0.00000  Uiso   1.00
C157   C     0.18081   0.22156   0.03402   0.00000  Uiso   1.00
C158   C     0.12927   0.18268   0.90605   0.00000  Uiso   1.00
C159   C     0.40694   0.23323   0.22949   0.00000  Uiso   1.00
C160   C     0.45092   0.32278   0.26368   0.00000  Uiso   1.00
C161   C     0.52292   0.33021   0.24071   0.00000  Uiso   1.00
H162   H     0.39729   0.00119   0.10147   0.00000  Uiso   1.00
H163   H     0.41603   0.88303   0.30132   0.00000  Uiso   1.00
H164   H     0.25663   0.99858   0.87898   0.00000  Uiso   1.00
H165   H     0.52670   0.09978   0.10860   0.00000  Uiso   1.00
H166   H     0.42490   0.78701   0.54721   0.00000  Uiso   1.00
H167   H     0.08879   0.03066   0.65664   0.00000  Uiso   1.00
H168   H     0.65829   0.24408   0.14083   0.00000  Uiso   1.00
H169   H     0.30565   0.27078   0.28895   0.00000  Uiso   1.00
H170   H     0.31937   0.16741   0.49910   0.00000  Uiso   1.00
H171   H     0.15996   0.28295   0.07675   0.00000  Uiso   1.00
H172   H     0.43003   0.38416   0.30637   0.00000  Uiso   1.00
H173   H     0.34644   0.01782   0.70773   0.00000  Uiso   1.00
H174   H     0.01033   0.26147   0.81715   0.00000  Uiso   1.00
H175   H     0.57983   0.47488   0.30135   0.00000  Uiso   1.00
O176   O     0.39632   0.82955   0.76230   0.00000  Uiso   1.00
O177   O     0.95537   0.14921   0.59390   0.00000  Uiso   1.00
O178   O     0.70255   0.42921   0.22915   0.00000  Uiso   1.00
N179   N     0.40456   0.85552   0.55616   0.00000  Uiso   1.00
N180   N     0.09032   0.08331   0.72354   0.00000  Uiso   1.00
N181   N     0.62275   0.28284   0.17618   0.00000  Uiso   1.00
N182   N     0.36235   0.97972   0.64253   0.00000  Uiso   1.00
N183   N     0.04810   0.20750   0.80991   0.00000  Uiso   1.00
N184   N     0.58053   0.40704   0.26256   0.00000  Uiso   1.00
