data_job_01829
_audit_creation_date              2018-12-19
_audit_creation_method            'Materials Studio'
_symmetry_space_group_name_H-M    'P1'
_symmetry_Int_Tables_number       1
_symmetry_cell_setting            triclinic
loop_
_symmetry_equiv_pos_as_xyz
  x,y,z
_cell_length_a                    15.3695
_cell_length_b                    37.1252
_cell_length_c                    18.2102
_cell_angle_alpha                 90.0000
_cell_angle_beta                  147.2217
_cell_angle_gamma                 90.0000
loop_
_atom_site_label
_atom_site_type_symbol
_atom_site_fract_x
_atom_site_fract_y
_atom_site_fract_z
_atom_site_U_iso_or_equiv
_atom_site_adp_type
_atom_site_occupancy
C1     C     0.30877   0.67848   0.56541   0.00000  Uiso   1.00
C2     C     0.24491   0.67672   0.59851   0.00000  Uiso   1.00
C3     C     0.28317   0.70044   0.68190   0.00000  Uiso   1.00
C4     C     0.21221   0.69424   0.69938   0.00000  Uiso   1.00
C5     C     0.12916   0.69590   0.76052   0.00000  Uiso   1.00
C6     C     0.38706   0.64205   0.60619   0.00000  Uiso   1.00
C7     C     0.54483   0.63663   0.69603   0.00000  Uiso   1.00
C8     C     0.59351   0.60124   0.71995   0.00000  Uiso   1.00
C9     C     0.73112   0.54908   0.79294   0.00000  Uiso   1.00
C10    C     0.16134   0.68019   0.41118   0.00000  Uiso   1.00
C11    C     0.12933   0.70683   0.33704   0.00000  Uiso   1.00
C12    C     0.98799   0.70355   0.19677   0.00000  Uiso   1.00
C13    C     0.77513   0.71061   0.96697   0.00000  Uiso   1.00
C14    C     0.11470   0.62527   0.44815   0.00000  Uiso   1.00
C15    C     0.13951   0.64782   0.53482   0.00000  Uiso   1.00
C16    C     0.06846   0.64158   0.55217   0.00000  Uiso   1.00
C17    C     0.10660   0.66529   0.63557   0.00000  Uiso   1.00
C18    C     0.28166   0.61316   0.54251   0.00000  Uiso   1.00
C19    C     0.33012   0.57776   0.56629   0.00000  Uiso   1.00
C20    C     0.48791   0.57229   0.65614   0.00000  Uiso   1.00
C21    C     0.05593   0.65130   0.34748   0.00000  Uiso   1.00
C22    C     0.91461   0.64797   0.20730   0.00000  Uiso   1.00
C23    C     0.88239   0.67460   0.13296   0.00000  Uiso   1.00
H24    H     0.39084   0.70097   0.61500   0.00000  Uiso   1.00
H25    H     0.36476   0.72280   0.73119   0.00000  Uiso   1.00
H26    H     0.62637   0.65900   0.74529   0.00000  Uiso   1.00
H27    H     0.21093   0.72919   0.38636   0.00000  Uiso   1.00
H28    H     0.28942   0.73425   0.83195   0.00000  Uiso   1.00
H29    H     0.84101   0.59971   0.86166   0.00000  Uiso   1.00
H30    H     0.96498   0.74773   0.10478   0.00000  Uiso   1.00
H31    H     0.03263   0.60277   0.39856   0.00000  Uiso   1.00
H32    H     0.98689   0.61922   0.50287   0.00000  Uiso   1.00
H33    H     0.24851   0.55541   0.51698   0.00000  Uiso   1.00
H34    H     0.83307   0.62560   0.15805   0.00000  Uiso   1.00
H35    H     0.98273   0.65018   0.64665   0.00000  Uiso   1.00
H36    H     0.53433   0.51564   0.67635   0.00000  Uiso   1.00
H37    H     0.65830   0.66366   0.91947   0.00000  Uiso   1.00
O38    O     0.11249   0.70479   0.81186   0.00000  Uiso   1.00
O39    O     0.83615   0.52829   0.85081   0.00000  Uiso   1.00
O40    O     0.68683   0.72248   0.85781   0.00000  Uiso   1.00
N41    N     0.22349   0.71221   0.77400   0.00000  Uiso   1.00
N42    N     0.73921   0.58643   0.80180   0.00000  Uiso   1.00
N43    N     0.92021   0.72481   0.09418   0.00000  Uiso   1.00
N44    N     0.05846   0.66697   0.67429   0.00000  Uiso   1.00
N45    N     0.57418   0.54119   0.70208   0.00000  Uiso   1.00
N46    N     0.75519   0.67957   0.99446   0.00000  Uiso   1.00
C47    C     0.16054   0.82325   0.56927   0.00000  Uiso   1.00
C48    C     0.28837   0.82451   0.60003   0.00000  Uiso   1.00
C49    C     0.41547   0.80060   0.68254   0.00000  Uiso   1.00
C50    C     0.51943   0.80635   0.69784   0.00000  Uiso   1.00
C51    C     0.72138   0.80397   0.75553   0.00000  Uiso   1.00
C52    C     0.16560   0.85989   0.61063   0.00000  Uiso   1.00
C53    C     0.18945   0.86573   0.70204   0.00000  Uiso   1.00
C54    C     0.19004   0.90126   0.72624   0.00000  Uiso   1.00
C55    C     0.20127   0.95380   0.80032   0.00000  Uiso   1.00
C56    C     0.99929   0.82148   0.41522   0.00000  Uiso   1.00
C57    C     0.88328   0.79502   0.34232   0.00000  Uiso   1.00
C58    C     0.74382   0.79821   0.20200   0.00000  Uiso   1.00
C59    C     0.49683   0.79111   0.97268   0.00000  Uiso   1.00
C60    C     0.11914   0.87597   0.44970   0.00000  Uiso   1.00
C61    C     0.26588   0.85315   0.53508   0.00000  Uiso   1.00
C62    C     0.36967   0.85894   0.55025   0.00000  Uiso   1.00
C63    C     0.49690   0.83504   0.63277   0.00000  Uiso   1.00
C64    C     0.14311   0.88853   0.54569   0.00000  Uiso   1.00
C65    C     0.14365   0.92406   0.56975   0.00000  Uiso   1.00
C66    C     0.16751   0.92995   0.66118   0.00000  Uiso   1.00
C67    C     0.97680   0.85011   0.35027   0.00000  Uiso   1.00
C68    C     0.83749   0.85335   0.21004   0.00000  Uiso   1.00
C69    C     0.72129   0.82690   0.13694   0.00000  Uiso   1.00
H70    H     0.17805   0.80095   0.61983   0.00000  Uiso   1.00
H71    H     0.43284   0.77845   0.73280   0.00000  Uiso   1.00
H72    H     0.20684   0.84356   0.75227   0.00000  Uiso   1.00
H73    H     0.90073   0.77286   0.39262   0.00000  Uiso   1.00
H74    H     0.70545   0.76613   0.82943   0.00000  Uiso   1.00
H75    H     0.22886   0.90342   0.87047   0.00000  Uiso   1.00
H76    H     0.58334   0.75434   0.11206   0.00000  Uiso   1.00
H77    H     0.10163   0.89827   0.39913   0.00000  Uiso   1.00
H78    H     0.35224   0.88110   0.49998   0.00000  Uiso   1.00
H79    H     0.12624   0.94621   0.51947   0.00000  Uiso   1.00
H80    H     0.82012   0.87552   0.15981   0.00000  Uiso   1.00
H81    H     0.64003   0.84945   0.64048   0.00000  Uiso   1.00
H82    H     0.16343   0.98674   0.68152   0.00000  Uiso   1.00
H83    H     0.51793   0.83766   0.92311   0.00000  Uiso   1.00
O84    O     0.83900   0.79475   0.80531   0.00000  Uiso   1.00
O85    O     0.21370   0.97487   0.85914   0.00000  Uiso   1.00
O86    O     0.36682   0.77928   0.86413   0.00000  Uiso   1.00
N87    N     0.65564   0.78809   0.77110   0.00000  Uiso   1.00
N88    N     0.21008   0.91645   0.80949   0.00000  Uiso   1.00
N89    N     0.60657   0.77708   0.10044   0.00000  Uiso   1.00
N90    N     0.62044   0.83292   0.66942   0.00000  Uiso   1.00
N91    N     0.17488   0.96128   0.70781   0.00000  Uiso   1.00
N92    N     0.57136   0.82191   0.99876   0.00000  Uiso   1.00
C93    C     0.69123   0.17848   0.93459   0.00000  Uiso   1.00
C94    C     0.75509   0.17672   0.90149   0.00000  Uiso   1.00
C95    C     0.71683   0.20044   0.81810   0.00000  Uiso   1.00
C96    C     0.78779   0.19424   0.80062   0.00000  Uiso   1.00
C97    C     0.87084   0.19590   0.73948   0.00000  Uiso   1.00
C98    C     0.61294   0.14205   0.89381   0.00000  Uiso   1.00
C99    C     0.45517   0.13663   0.80397   0.00000  Uiso   1.00
C100   C     0.40649   0.10124   0.78005   0.00000  Uiso   1.00
C101   C     0.26888   0.04908   0.70706   0.00000  Uiso   1.00
C102   C     0.83866   0.18019   0.08882   0.00000  Uiso   1.00
C103   C     0.87067   0.20683   0.16296   0.00000  Uiso   1.00
C104   C     0.01201   0.20355   0.30323   0.00000  Uiso   1.00
C105   C     0.22487   0.21061   0.53303   0.00000  Uiso   1.00
C106   C     0.88530   0.12527   0.05185   0.00000  Uiso   1.00
C107   C     0.86049   0.14782   0.96518   0.00000  Uiso   1.00
C108   C     0.93154   0.14158   0.94783   0.00000  Uiso   1.00
C109   C     0.89340   0.16529   0.86443   0.00000  Uiso   1.00
C110   C     0.71834   0.11316   0.95749   0.00000  Uiso   1.00
C111   C     0.66988   0.07776   0.93371   0.00000  Uiso   1.00
C112   C     0.51209   0.07229   0.84386   0.00000  Uiso   1.00
C113   C     0.94407   0.15130   0.15252   0.00000  Uiso   1.00
C114   C     0.08539   0.14797   0.29270   0.00000  Uiso   1.00
C115   C     0.11761   0.17460   0.36704   0.00000  Uiso   1.00
H116   H     0.60916   0.20097   0.88500   0.00000  Uiso   1.00
H117   H     0.63524   0.22280   0.76881   0.00000  Uiso   1.00
H118   H     0.37363   0.15900   0.75471   0.00000  Uiso   1.00
H119   H     0.78907   0.22919   0.11364   0.00000  Uiso   1.00
H120   H     0.71058   0.23425   0.66805   0.00000  Uiso   1.00
H121   H     0.15899   0.09971   0.63834   0.00000  Uiso   1.00
H122   H     0.03502   0.24773   0.39522   0.00000  Uiso   1.00
H123   H     0.96737   0.10277   0.10144   0.00000  Uiso   1.00
H124   H     0.01311   0.11922   0.99713   0.00000  Uiso   1.00
H125   H     0.75149   0.05541   0.98302   0.00000  Uiso   1.00
H126   H     0.16693   0.12560   0.34195   0.00000  Uiso   1.00
H127   H     0.01727   0.15018   0.85335   0.00000  Uiso   1.00
H128   H     0.46567   0.01564   0.82365   0.00000  Uiso   1.00
H129   H     0.34170   0.16366   0.58053   0.00000  Uiso   1.00
O130   O     0.88751   0.20479   0.68814   0.00000  Uiso   1.00
O131   O     0.16385   0.02829   0.64919   0.00000  Uiso   1.00
O132   O     0.31317   0.22248   0.64219   0.00000  Uiso   1.00
N133   N     0.77651   0.21221   0.72600   0.00000  Uiso   1.00
N134   N     0.26079   0.08643   0.69820   0.00000  Uiso   1.00
N135   N     0.07979   0.22481   0.40582   0.00000  Uiso   1.00
N136   N     0.94154   0.16697   0.82571   0.00000  Uiso   1.00
N137   N     0.42582   0.04119   0.79792   0.00000  Uiso   1.00
N138   N     0.24481   0.17957   0.50554   0.00000  Uiso   1.00
C139   C     0.83946   0.32325   0.93073   0.00000  Uiso   1.00
C140   C     0.71163   0.32451   0.89997   0.00000  Uiso   1.00
C141   C     0.58453   0.30060   0.81746   0.00000  Uiso   1.00
C142   C     0.48057   0.30635   0.80216   0.00000  Uiso   1.00
C143   C     0.27862   0.30397   0.74447   0.00000  Uiso   1.00
C144   C     0.83440   0.35989   0.88937   0.00000  Uiso   1.00
C145   C     0.81055   0.36573   0.79796   0.00000  Uiso   1.00
C146   C     0.80996   0.40126   0.77376   0.00000  Uiso   1.00
C147   C     0.79873   0.45380   0.69968   0.00000  Uiso   1.00
C148   C     0.00071   0.32148   0.08478   0.00000  Uiso   1.00
C149   C     0.11672   0.29502   0.15768   0.00000  Uiso   1.00
C150   C     0.25618   0.29821   0.29800   0.00000  Uiso   1.00
C151   C     0.50317   0.29111   0.52732   0.00000  Uiso   1.00
C152   C     0.88086   0.37597   0.05030   0.00000  Uiso   1.00
C153   C     0.73412   0.35315   0.96492   0.00000  Uiso   1.00
C154   C     0.63033   0.35894   0.94975   0.00000  Uiso   1.00
C155   C     0.50310   0.33504   0.86723   0.00000  Uiso   1.00
C156   C     0.85689   0.38853   0.95431   0.00000  Uiso   1.00
C157   C     0.85635   0.42406   0.93025   0.00000  Uiso   1.00
C158   C     0.83249   0.42995   0.83882   0.00000  Uiso   1.00
C159   C     0.02320   0.35011   0.14973   0.00000  Uiso   1.00
C160   C     0.16251   0.35335   0.28996   0.00000  Uiso   1.00
C161   C     0.27871   0.32690   0.36306   0.00000  Uiso   1.00
H162   H     0.82195   0.30095   0.88017   0.00000  Uiso   1.00
H163   H     0.56716   0.27845   0.76720   0.00000  Uiso   1.00
H164   H     0.79316   0.34356   0.74773   0.00000  Uiso   1.00
H165   H     0.09927   0.27286   0.10738   0.00000  Uiso   1.00
H166   H     0.29455   0.26613   0.67057   0.00000  Uiso   1.00
H167   H     0.77114   0.40342   0.62953   0.00000  Uiso   1.00
H168   H     0.41666   0.25434   0.38794   0.00000  Uiso   1.00
H169   H     0.89837   0.39827   0.10087   0.00000  Uiso   1.00
H170   H     0.64776   0.38110   0.00002   0.00000  Uiso   1.00
H171   H     0.87376   0.44621   0.98053   0.00000  Uiso   1.00
H172   H     0.17988   0.37552   0.34019   0.00000  Uiso   1.00
H173   H     0.35997   0.34945   0.85952   0.00000  Uiso   1.00
H174   H     0.83657   0.48674   0.81848   0.00000  Uiso   1.00
H175   H     0.48207   0.33766   0.57689   0.00000  Uiso   1.00
O176   O     0.16100   0.29475   0.69469   0.00000  Uiso   1.00
O177   O     0.78630   0.47487   0.64086   0.00000  Uiso   1.00
O178   O     0.63318   0.27928   0.63587   0.00000  Uiso   1.00
N179   N     0.34436   0.28809   0.72890   0.00000  Uiso   1.00
N180   N     0.78992   0.41645   0.69051   0.00000  Uiso   1.00
N181   N     0.39343   0.27708   0.39956   0.00000  Uiso   1.00
N182   N     0.37956   0.33292   0.83058   0.00000  Uiso   1.00
N183   N     0.82512   0.46128   0.79219   0.00000  Uiso   1.00
N184   N     0.42864   0.32191   0.50124   0.00000  Uiso   1.00
C185   C     0.69123   0.32152   0.43459   0.00000  Uiso   1.00
C186   C     0.75509   0.32328   0.40149   0.00000  Uiso   1.00
C187   C     0.71683   0.29956   0.31810   0.00000  Uiso   1.00
C188   C     0.78779   0.30576   0.30062   0.00000  Uiso   1.00
C189   C     0.87084   0.30410   0.23948   0.00000  Uiso   1.00
C190   C     0.61294   0.35795   0.39381   0.00000  Uiso   1.00
C191   C     0.45517   0.36337   0.30397   0.00000  Uiso   1.00
C192   C     0.40649   0.39876   0.28005   0.00000  Uiso   1.00
C193   C     0.26888   0.45092   0.20706   0.00000  Uiso   1.00
C194   C     0.83866   0.31981   0.58882   0.00000  Uiso   1.00
C195   C     0.87067   0.29317   0.66296   0.00000  Uiso   1.00
C196   C     0.01201   0.29645   0.80323   0.00000  Uiso   1.00
C197   C     0.22487   0.28939   0.03303   0.00000  Uiso   1.00
C198   C     0.88530   0.37473   0.55185   0.00000  Uiso   1.00
C199   C     0.86049   0.35218   0.46518   0.00000  Uiso   1.00
C200   C     0.93154   0.35842   0.44783   0.00000  Uiso   1.00
C201   C     0.89340   0.33471   0.36443   0.00000  Uiso   1.00
C202   C     0.71834   0.38684   0.45749   0.00000  Uiso   1.00
C203   C     0.66988   0.42224   0.43371   0.00000  Uiso   1.00
C204   C     0.51209   0.42771   0.34386   0.00000  Uiso   1.00
C205   C     0.94407   0.34870   0.65252   0.00000  Uiso   1.00
C206   C     0.08539   0.35203   0.79270   0.00000  Uiso   1.00
C207   C     0.11761   0.32540   0.86704   0.00000  Uiso   1.00
H208   H     0.60916   0.29903   0.38500   0.00000  Uiso   1.00
H209   H     0.63524   0.27720   0.26881   0.00000  Uiso   1.00
H210   H     0.37363   0.34100   0.25471   0.00000  Uiso   1.00
H211   H     0.78907   0.27081   0.61364   0.00000  Uiso   1.00
H212   H     0.71058   0.26575   0.16805   0.00000  Uiso   1.00
H213   H     0.15899   0.40029   0.13834   0.00000  Uiso   1.00
H214   H     0.03502   0.25227   0.89522   0.00000  Uiso   1.00
H215   H     0.96737   0.39723   0.60144   0.00000  Uiso   1.00
H216   H     0.01311   0.38078   0.49713   0.00000  Uiso   1.00
H217   H     0.75149   0.44459   0.48302   0.00000  Uiso   1.00
H218   H     0.16693   0.37440   0.84195   0.00000  Uiso   1.00
H219   H     0.01727   0.34982   0.35335   0.00000  Uiso   1.00
H220   H     0.46567   0.48436   0.32365   0.00000  Uiso   1.00
H221   H     0.34170   0.33634   0.08053   0.00000  Uiso   1.00
O222   O     0.88751   0.29521   0.18814   0.00000  Uiso   1.00
O223   O     0.16385   0.47171   0.14919   0.00000  Uiso   1.00
O224   O     0.31317   0.27752   0.14219   0.00000  Uiso   1.00
N225   N     0.77651   0.28779   0.22600   0.00000  Uiso   1.00
N226   N     0.26079   0.41357   0.19820   0.00000  Uiso   1.00
N227   N     0.07979   0.27519   0.90582   0.00000  Uiso   1.00
N228   N     0.94154   0.33303   0.32571   0.00000  Uiso   1.00
N229   N     0.42582   0.45881   0.29792   0.00000  Uiso   1.00
N230   N     0.24481   0.32043   0.00554   0.00000  Uiso   1.00
C231   C     0.83946   0.17675   0.43073   0.00000  Uiso   1.00
C232   C     0.71163   0.17549   0.39997   0.00000  Uiso   1.00
C233   C     0.58453   0.19940   0.31746   0.00000  Uiso   1.00
C234   C     0.48057   0.19365   0.30216   0.00000  Uiso   1.00
C235   C     0.27862   0.19603   0.24447   0.00000  Uiso   1.00
C236   C     0.83440   0.14011   0.38937   0.00000  Uiso   1.00
C237   C     0.81055   0.13427   0.29796   0.00000  Uiso   1.00
C238   C     0.80996   0.09874   0.27376   0.00000  Uiso   1.00
C239   C     0.79873   0.04620   0.19968   0.00000  Uiso   1.00
C240   C     0.00071   0.17852   0.58478   0.00000  Uiso   1.00
C241   C     0.11672   0.20498   0.65768   0.00000  Uiso   1.00
C242   C     0.25618   0.20179   0.79800   0.00000  Uiso   1.00
C243   C     0.50317   0.20889   0.02732   0.00000  Uiso   1.00
C244   C     0.88086   0.12403   0.55030   0.00000  Uiso   1.00
C245   C     0.73412   0.14685   0.46492   0.00000  Uiso   1.00
C246   C     0.63033   0.14106   0.44975   0.00000  Uiso   1.00
C247   C     0.50310   0.16496   0.36723   0.00000  Uiso   1.00
C248   C     0.85689   0.11147   0.45431   0.00000  Uiso   1.00
C249   C     0.85635   0.07594   0.43025   0.00000  Uiso   1.00
C250   C     0.83249   0.07005   0.33882   0.00000  Uiso   1.00
C251   C     0.02320   0.14989   0.64973   0.00000  Uiso   1.00
C252   C     0.16251   0.14665   0.78996   0.00000  Uiso   1.00
C253   C     0.27871   0.17310   0.86306   0.00000  Uiso   1.00
H254   H     0.82195   0.19905   0.38017   0.00000  Uiso   1.00
H255   H     0.56716   0.22155   0.26720   0.00000  Uiso   1.00
H256   H     0.79316   0.15644   0.24773   0.00000  Uiso   1.00
H257   H     0.09927   0.22714   0.60738   0.00000  Uiso   1.00
H258   H     0.29455   0.23387   0.17057   0.00000  Uiso   1.00
H259   H     0.77114   0.09658   0.12953   0.00000  Uiso   1.00
H260   H     0.41666   0.24566   0.88794   0.00000  Uiso   1.00
H261   H     0.89837   0.10173   0.60087   0.00000  Uiso   1.00
H262   H     0.64776   0.11890   0.50002   0.00000  Uiso   1.00
H263   H     0.87376   0.05379   0.48053   0.00000  Uiso   1.00
H264   H     0.17988   0.12448   0.84019   0.00000  Uiso   1.00
H265   H     0.35997   0.15055   0.35952   0.00000  Uiso   1.00
H266   H     0.83657   0.01326   0.31848   0.00000  Uiso   1.00
H267   H     0.48207   0.16234   0.07689   0.00000  Uiso   1.00
O268   O     0.16100   0.20525   0.19469   0.00000  Uiso   1.00
O269   O     0.78630   0.02513   0.14086   0.00000  Uiso   1.00
O270   O     0.63318   0.22072   0.13587   0.00000  Uiso   1.00
N271   N     0.34436   0.21191   0.22890   0.00000  Uiso   1.00
N272   N     0.78992   0.08355   0.19051   0.00000  Uiso   1.00
N273   N     0.39343   0.22292   0.89956   0.00000  Uiso   1.00
N274   N     0.37956   0.16708   0.33058   0.00000  Uiso   1.00
N275   N     0.82512   0.03872   0.29219   0.00000  Uiso   1.00
N276   N     0.42864   0.17809   0.00124   0.00000  Uiso   1.00
C277   C     0.30877   0.82152   0.06541   0.00000  Uiso   1.00
C278   C     0.24491   0.82328   0.09851   0.00000  Uiso   1.00
C279   C     0.28317   0.79956   0.18190   0.00000  Uiso   1.00
C280   C     0.21221   0.80576   0.19938   0.00000  Uiso   1.00
C281   C     0.12916   0.80410   0.26052   0.00000  Uiso   1.00
C282   C     0.38706   0.85795   0.10619   0.00000  Uiso   1.00
C283   C     0.54483   0.86337   0.19603   0.00000  Uiso   1.00
C284   C     0.59351   0.89876   0.21995   0.00000  Uiso   1.00
C285   C     0.73112   0.95092   0.29294   0.00000  Uiso   1.00
C286   C     0.16134   0.81981   0.91118   0.00000  Uiso   1.00
C287   C     0.12933   0.79317   0.83704   0.00000  Uiso   1.00
C288   C     0.98799   0.79645   0.69677   0.00000  Uiso   1.00
C289   C     0.77513   0.78939   0.46697   0.00000  Uiso   1.00
C290   C     0.11470   0.87473   0.94815   0.00000  Uiso   1.00
C291   C     0.13951   0.85218   0.03482   0.00000  Uiso   1.00
C292   C     0.06846   0.85842   0.05217   0.00000  Uiso   1.00
C293   C     0.10660   0.83471   0.13557   0.00000  Uiso   1.00
C294   C     0.28166   0.88684   0.04251   0.00000  Uiso   1.00
C295   C     0.33012   0.92224   0.06629   0.00000  Uiso   1.00
C296   C     0.48791   0.92771   0.15614   0.00000  Uiso   1.00
C297   C     0.05593   0.84870   0.84748   0.00000  Uiso   1.00
C298   C     0.91461   0.85203   0.70730   0.00000  Uiso   1.00
C299   C     0.88239   0.82540   0.63296   0.00000  Uiso   1.00
H300   H     0.39084   0.79903   0.11500   0.00000  Uiso   1.00
H301   H     0.36476   0.77720   0.23119   0.00000  Uiso   1.00
H302   H     0.62637   0.84100   0.24529   0.00000  Uiso   1.00
H303   H     0.21093   0.77081   0.88636   0.00000  Uiso   1.00
H304   H     0.28942   0.76575   0.33195   0.00000  Uiso   1.00
H305   H     0.84101   0.90029   0.36166   0.00000  Uiso   1.00
H306   H     0.96498   0.75227   0.60478   0.00000  Uiso   1.00
H307   H     0.03263   0.89723   0.89856   0.00000  Uiso   1.00
H308   H     0.98689   0.88078   0.00287   0.00000  Uiso   1.00
H309   H     0.24851   0.94459   0.01698   0.00000  Uiso   1.00
H310   H     0.83307   0.87440   0.65805   0.00000  Uiso   1.00
H311   H     0.98273   0.84982   0.14665   0.00000  Uiso   1.00
H312   H     0.53433   0.98436   0.17635   0.00000  Uiso   1.00
H313   H     0.65830   0.83634   0.41947   0.00000  Uiso   1.00
O314   O     0.11249   0.79521   0.31186   0.00000  Uiso   1.00
O315   O     0.83615   0.97171   0.35081   0.00000  Uiso   1.00
O316   O     0.68683   0.77752   0.35781   0.00000  Uiso   1.00
N317   N     0.22349   0.78779   0.27400   0.00000  Uiso   1.00
N318   N     0.73921   0.91357   0.30180   0.00000  Uiso   1.00
N319   N     0.92021   0.77519   0.59418   0.00000  Uiso   1.00
N320   N     0.05846   0.83303   0.17429   0.00000  Uiso   1.00
N321   N     0.57418   0.95881   0.20208   0.00000  Uiso   1.00
N322   N     0.75519   0.82043   0.49446   0.00000  Uiso   1.00
C323   C     0.16054   0.67675   0.06927   0.00000  Uiso   1.00
C324   C     0.28837   0.67549   0.10003   0.00000  Uiso   1.00
C325   C     0.41547   0.69940   0.18254   0.00000  Uiso   1.00
C326   C     0.51943   0.69365   0.19784   0.00000  Uiso   1.00
C327   C     0.72138   0.69603   0.25553   0.00000  Uiso   1.00
C328   C     0.16560   0.64011   0.11063   0.00000  Uiso   1.00
C329   C     0.18945   0.63427   0.20204   0.00000  Uiso   1.00
C330   C     0.19004   0.59874   0.22624   0.00000  Uiso   1.00
C331   C     0.20127   0.54620   0.30032   0.00000  Uiso   1.00
C332   C     0.99929   0.67852   0.91522   0.00000  Uiso   1.00
C333   C     0.88328   0.70498   0.84232   0.00000  Uiso   1.00
C334   C     0.74382   0.70179   0.70200   0.00000  Uiso   1.00
C335   C     0.49683   0.70889   0.47268   0.00000  Uiso   1.00
C336   C     0.11914   0.62403   0.94970   0.00000  Uiso   1.00
C337   C     0.26588   0.64685   0.03508   0.00000  Uiso   1.00
C338   C     0.36967   0.64106   0.05025   0.00000  Uiso   1.00
C339   C     0.49690   0.66496   0.13277   0.00000  Uiso   1.00
C340   C     0.14311   0.61147   0.04569   0.00000  Uiso   1.00
C341   C     0.14365   0.57594   0.06975   0.00000  Uiso   1.00
C342   C     0.16751   0.57005   0.16118   0.00000  Uiso   1.00
C343   C     0.97680   0.64989   0.85027   0.00000  Uiso   1.00
C344   C     0.83749   0.64665   0.71004   0.00000  Uiso   1.00
C345   C     0.72129   0.67310   0.63694   0.00000  Uiso   1.00
H346   H     0.17805   0.69905   0.11983   0.00000  Uiso   1.00
H347   H     0.43284   0.72155   0.23280   0.00000  Uiso   1.00
H348   H     0.20684   0.65644   0.25227   0.00000  Uiso   1.00
H349   H     0.90073   0.72714   0.89262   0.00000  Uiso   1.00
H350   H     0.70545   0.73387   0.32943   0.00000  Uiso   1.00
H351   H     0.22886   0.59658   0.37047   0.00000  Uiso   1.00
H352   H     0.58334   0.74566   0.61206   0.00000  Uiso   1.00
H353   H     0.10163   0.60173   0.89913   0.00000  Uiso   1.00
H354   H     0.35224   0.61890   0.99998   0.00000  Uiso   1.00
H355   H     0.12624   0.55379   0.01947   0.00000  Uiso   1.00
H356   H     0.82012   0.62448   0.65981   0.00000  Uiso   1.00
H357   H     0.64003   0.65055   0.14048   0.00000  Uiso   1.00
H358   H     0.16343   0.51326   0.18152   0.00000  Uiso   1.00
H359   H     0.51793   0.66234   0.42311   0.00000  Uiso   1.00
O360   O     0.83900   0.70525   0.30531   0.00000  Uiso   1.00
O361   O     0.21370   0.52513   0.35914   0.00000  Uiso   1.00
O362   O     0.36682   0.72072   0.36413   0.00000  Uiso   1.00
N363   N     0.65564   0.71191   0.27110   0.00000  Uiso   1.00
N364   N     0.21008   0.58355   0.30949   0.00000  Uiso   1.00
N365   N     0.60657   0.72292   0.60044   0.00000  Uiso   1.00
N366   N     0.62044   0.66708   0.16942   0.00000  Uiso   1.00
N367   N     0.17488   0.53872   0.20781   0.00000  Uiso   1.00
N368   N     0.57136   0.67809   0.49876   0.00000  Uiso   1.00
