data_job_04632
_audit_creation_date              2018-12-19
_audit_creation_method            'Materials Studio'
_symmetry_space_group_name_H-M    'P1'
_symmetry_Int_Tables_number       1
_symmetry_cell_setting            triclinic
loop_
_symmetry_equiv_pos_as_xyz
  x,y,z
_cell_length_a                    15.7511
_cell_length_b                    14.0433
_cell_length_c                    23.5612
_cell_angle_alpha                 90.0000
_cell_angle_beta                  63.1082
_cell_angle_gamma                 90.0000
loop_
_atom_site_label
_atom_site_type_symbol
_atom_site_fract_x
_atom_site_fract_y
_atom_site_fract_z
_atom_site_U_iso_or_equiv
_atom_site_adp_type
_atom_site_occupancy
C1     C     0.56455   0.41090   0.63861   0.00000  Uiso   1.00
C2     C     0.66795   0.41908   0.62644   0.00000  Uiso   1.00
C3     C     0.72400   0.50022   0.60584   0.00000  Uiso   1.00
C4     C     0.81684   0.49318   0.59753   0.00000  Uiso   1.00
C5     C     0.97202   0.51883   0.57679   0.00000  Uiso   1.00
C6     C     0.56158   0.32891   0.59711   0.00000  Uiso   1.00
C7     C     0.52818   0.33424   0.55186   0.00000  Uiso   1.00
C8     C     0.53148   0.25128   0.51887   0.00000  Uiso   1.00
C9     C     0.52145   0.13692   0.45263   0.00000  Uiso   1.00
C10    C     0.50882   0.37725   0.70725   0.00000  Uiso   1.00
C11    C     0.43104   0.42321   0.75461   0.00000  Uiso   1.00
C12    C     0.38989   0.38095   0.81435   0.00000  Uiso   1.00
C13    C     0.29794   0.34165   0.91912   0.00000  Uiso   1.00
C14    C     0.62977   0.25410   0.66047   0.00000  Uiso   1.00
C15    C     0.70337   0.33391   0.63831   0.00000  Uiso   1.00
C16    C     0.79615   0.32675   0.63003   0.00000  Uiso   1.00
C17    C     0.85233   0.40787   0.60942   0.00000  Uiso   1.00
C18    C     0.59700   0.24374   0.60898   0.00000  Uiso   1.00
C19    C     0.60034   0.16076   0.57605   0.00000  Uiso   1.00
C20    C     0.56696   0.16596   0.53076   0.00000  Uiso   1.00
C21    C     0.54424   0.29209   0.71913   0.00000  Uiso   1.00
C22    C     0.50320   0.24974   0.77879   0.00000  Uiso   1.00
C23    C     0.42538   0.29563   0.82624   0.00000  Uiso   1.00
H24    H     0.53697   0.47720   0.62937   0.00000  Uiso   1.00
H25    H     0.69656   0.56612   0.59666   0.00000  Uiso   1.00
H26    H     0.50077   0.40015   0.54269   0.00000  Uiso   1.00
H27    H     0.40364   0.48912   0.74541   0.00000  Uiso   1.00
H28    H     0.88913   0.62713   0.56560   0.00000  Uiso   1.00
H29    H     0.47626   0.27718   0.45183   0.00000  Uiso   1.00
H30    H     0.27145   0.46478   0.87930   0.00000  Uiso   1.00
H31    H     0.65735   0.18779   0.66971   0.00000  Uiso   1.00
H32    H     0.82355   0.26083   0.63922   0.00000  Uiso   1.00
H33    H     0.62775   0.09487   0.58525   0.00000  Uiso   1.00
H34    H     0.53063   0.18383   0.78797   0.00000  Uiso   1.00
H35    H     0.99220   0.37935   0.60014   0.00000  Uiso   1.00
H36    H     0.57932   0.02939   0.48637   0.00000  Uiso   1.00
H37    H     0.37452   0.21700   0.91384   0.00000  Uiso   1.00
O38    O     0.04783   0.55650   0.56206   0.00000  Uiso   1.00
O39    O     0.50614   0.09737   0.41281   0.00000  Uiso   1.00
O40    O     0.23745   0.34351   0.97364   0.00000  Uiso   1.00
N41    N     0.89057   0.55880   0.57793   0.00000  Uiso   1.00
N42    N     0.50457   0.23161   0.47155   0.00000  Uiso   1.00
N43    N     0.31308   0.40699   0.87120   0.00000  Uiso   1.00
N44    N     0.94603   0.42547   0.59652   0.00000  Uiso   1.00
N45    N     0.56003   0.09828   0.49014   0.00000  Uiso   1.00
N46    N     0.36854   0.27367   0.88978   0.00000  Uiso   1.00
C47    C     0.99847   0.99825   0.72674   0.00000  Uiso   1.00
C48    C     0.09674   0.99538   0.72447   0.00000  Uiso   1.00
C49    C     0.15437   0.07362   0.71772   0.00000  Uiso   1.00
C50    C     0.24180   0.05608   0.71670   0.00000  Uiso   1.00
C51    C     0.39004   0.06568   0.71231   0.00000  Uiso   1.00
C52    C     0.00380   0.93245   0.67374   0.00000  Uiso   1.00
C53    C     0.98328   0.95777   0.62434   0.00000  Uiso   1.00
C54    C     0.99246   0.88725   0.58063   0.00000  Uiso   1.00
C55    C     0.99635   0.79914   0.49750   0.00000  Uiso   1.00
C56    C     0.93104   0.95024   0.78900   0.00000  Uiso   1.00
C57    C     0.84932   0.99051   0.83650   0.00000  Uiso   1.00
C58    C     0.79722   0.93495   0.88983   0.00000  Uiso   1.00
C59    C     0.68813   0.87446   0.98565   0.00000  Uiso   1.00
C60    C     0.05124   0.82798   0.73696   0.00000  Uiso   1.00
C61    C     0.12540   0.90289   0.73002   0.00000  Uiso   1.00
C62    C     0.21275   0.88523   0.72902   0.00000  Uiso   1.00
C63    C     0.27051   0.96343   0.72227   0.00000  Uiso   1.00
C64    C     0.03246   0.83997   0.67929   0.00000  Uiso   1.00
C65    C     0.04166   0.76939   0.63564   0.00000  Uiso   1.00
C66    C     0.02117   0.79460   0.58619   0.00000  Uiso   1.00
C67    C     0.95970   0.85775   0.79455   0.00000  Uiso   1.00
C68    C     0.90771   0.80212   0.84781   0.00000  Uiso   1.00
C69    C     0.82593   0.84230   0.89539   0.00000  Uiso   1.00
H70    H     0.97616   0.07025   0.72242   0.00000  Uiso   1.00
H71    H     0.13217   0.14518   0.71342   0.00000  Uiso   1.00
H72    H     0.96110   0.02935   0.62006   0.00000  Uiso   1.00
H73    H     0.82716   0.06208   0.83219   0.00000  Uiso   1.00
H74    H     0.31780   0.18746   0.70587   0.00000  Uiso   1.00
H75    H     0.95705   0.94321   0.50903   0.00000  Uiso   1.00
H76    H     0.67461   0.01224   0.95635   0.00000  Uiso   1.00
H77    H     0.07355   0.75597   0.74128   0.00000  Uiso   1.00
H78    H     0.23491   0.81365   0.73332   0.00000  Uiso   1.00
H79    H     0.06384   0.69782   0.63996   0.00000  Uiso   1.00
H80    H     0.92990   0.73056   0.85209   0.00000  Uiso   1.00
H81    H     0.40119   0.91838   0.72201   0.00000  Uiso   1.00
H82    H     0.04043   0.67413   0.52518   0.00000  Uiso   1.00
H83    H     0.75800   0.74316   0.97250   0.00000  Uiso   1.00
O84    O     0.46390   0.09653   0.70834   0.00000  Uiso   1.00
O85    O     0.99059   0.77609   0.45011   0.00000  Uiso   1.00
O86    O     0.62005   0.86665   0.03698   0.00000  Uiso   1.00
N87    N     0.31527   0.11622   0.71077   0.00000  Uiso   1.00
N88    N     0.97801   0.88787   0.52673   0.00000  Uiso   1.00
N89    N     0.71394   0.95239   0.94493   0.00000  Uiso   1.00
N90    N     0.36014   0.97143   0.71946   0.00000  Uiso   1.00
N91    N     0.02288   0.74308   0.53542   0.00000  Uiso   1.00
N92    N     0.75881   0.80760   0.95362   0.00000  Uiso   1.00
C93    C     0.43545   0.91090   0.86139   0.00000  Uiso   1.00
C94    C     0.33205   0.91908   0.87356   0.00000  Uiso   1.00
C95    C     0.27600   0.00022   0.89416   0.00000  Uiso   1.00
C96    C     0.18316   0.99318   0.90247   0.00000  Uiso   1.00
C97    C     0.02798   0.01883   0.92321   0.00000  Uiso   1.00
C98    C     0.43842   0.82891   0.90289   0.00000  Uiso   1.00
C99    C     0.47182   0.83424   0.94814   0.00000  Uiso   1.00
C100   C     0.46852   0.75128   0.98113   0.00000  Uiso   1.00
C101   C     0.47855   0.63692   0.04737   0.00000  Uiso   1.00
C102   C     0.49118   0.87725   0.79275   0.00000  Uiso   1.00
C103   C     0.56896   0.92321   0.74539   0.00000  Uiso   1.00
C104   C     0.61011   0.88095   0.68565   0.00000  Uiso   1.00
C105   C     0.70206   0.84165   0.58088   0.00000  Uiso   1.00
C106   C     0.37023   0.75410   0.83953   0.00000  Uiso   1.00
C107   C     0.29663   0.83391   0.86169   0.00000  Uiso   1.00
C108   C     0.20385   0.82675   0.86997   0.00000  Uiso   1.00
C109   C     0.14767   0.90787   0.89058   0.00000  Uiso   1.00
C110   C     0.40300   0.74374   0.89102   0.00000  Uiso   1.00
C111   C     0.39966   0.66076   0.92395   0.00000  Uiso   1.00
C112   C     0.43304   0.66596   0.96924   0.00000  Uiso   1.00
C113   C     0.45576   0.79209   0.78087   0.00000  Uiso   1.00
C114   C     0.49680   0.74974   0.72121   0.00000  Uiso   1.00
C115   C     0.57462   0.79563   0.67376   0.00000  Uiso   1.00
H116   H     0.46303   0.97720   0.87063   0.00000  Uiso   1.00
H117   H     0.30344   0.06612   0.90334   0.00000  Uiso   1.00
H118   H     0.49923   0.90015   0.95731   0.00000  Uiso   1.00
H119   H     0.59636   0.98912   0.75459   0.00000  Uiso   1.00
H120   H     0.11087   0.12713   0.93440   0.00000  Uiso   1.00
H121   H     0.52374   0.77718   0.04817   0.00000  Uiso   1.00
H122   H     0.72855   0.96478   0.62070   0.00000  Uiso   1.00
H123   H     0.34265   0.68779   0.83029   0.00000  Uiso   1.00
H124   H     0.17645   0.76083   0.86078   0.00000  Uiso   1.00
H125   H     0.37225   0.59487   0.91475   0.00000  Uiso   1.00
H126   H     0.46937   0.68383   0.71203   0.00000  Uiso   1.00
H127   H     0.00780   0.87935   0.89986   0.00000  Uiso   1.00
H128   H     0.42068   0.52939   0.01363   0.00000  Uiso   1.00
H129   H     0.62548   0.71700   0.58616   0.00000  Uiso   1.00
O130   O     0.95217   0.05650   0.93794   0.00000  Uiso   1.00
O131   O     0.49386   0.59737   0.08719   0.00000  Uiso   1.00
O132   O     0.76255   0.84351   0.52636   0.00000  Uiso   1.00
N133   N     0.10943   0.05880   0.92207   0.00000  Uiso   1.00
N134   N     0.49543   0.73161   0.02845   0.00000  Uiso   1.00
N135   N     0.68692   0.90699   0.62880   0.00000  Uiso   1.00
N136   N     0.05397   0.92547   0.90348   0.00000  Uiso   1.00
N137   N     0.43997   0.59828   0.00986   0.00000  Uiso   1.00
N138   N     0.63146   0.77367   0.61022   0.00000  Uiso   1.00
C139   C     0.00153   0.49825   0.77326   0.00000  Uiso   1.00
C140   C     0.90326   0.49538   0.77553   0.00000  Uiso   1.00
C141   C     0.84563   0.57362   0.78228   0.00000  Uiso   1.00
C142   C     0.75820   0.55608   0.78330   0.00000  Uiso   1.00
C143   C     0.60996   0.56568   0.78769   0.00000  Uiso   1.00
C144   C     0.99620   0.43245   0.82626   0.00000  Uiso   1.00
C145   C     0.01672   0.45777   0.87566   0.00000  Uiso   1.00
C146   C     0.00754   0.38725   0.91937   0.00000  Uiso   1.00
C147   C     0.00365   0.29914   0.00250   0.00000  Uiso   1.00
C148   C     0.06896   0.45024   0.71100   0.00000  Uiso   1.00
C149   C     0.15068   0.49051   0.66350   0.00000  Uiso   1.00
C150   C     0.20278   0.43495   0.61017   0.00000  Uiso   1.00
C151   C     0.31187   0.37446   0.51435   0.00000  Uiso   1.00
C152   C     0.94876   0.32798   0.76304   0.00000  Uiso   1.00
C153   C     0.87460   0.40289   0.76998   0.00000  Uiso   1.00
C154   C     0.78725   0.38523   0.77098   0.00000  Uiso   1.00
C155   C     0.72949   0.46343   0.77773   0.00000  Uiso   1.00
C156   C     0.96754   0.33997   0.82071   0.00000  Uiso   1.00
C157   C     0.95834   0.26939   0.86436   0.00000  Uiso   1.00
C158   C     0.97883   0.29460   0.91381   0.00000  Uiso   1.00
C159   C     0.04030   0.35775   0.70545   0.00000  Uiso   1.00
C160   C     0.09229   0.30212   0.65219   0.00000  Uiso   1.00
C161   C     0.17407   0.34230   0.60461   0.00000  Uiso   1.00
H162   H     0.02384   0.57025   0.77758   0.00000  Uiso   1.00
H163   H     0.86783   0.64518   0.78658   0.00000  Uiso   1.00
H164   H     0.03890   0.52935   0.87994   0.00000  Uiso   1.00
H165   H     0.17284   0.56208   0.66781   0.00000  Uiso   1.00
H166   H     0.68220   0.68746   0.79413   0.00000  Uiso   1.00
H167   H     0.04295   0.44321   0.99097   0.00000  Uiso   1.00
H168   H     0.32539   0.51224   0.54365   0.00000  Uiso   1.00
H169   H     0.92645   0.25597   0.75872   0.00000  Uiso   1.00
H170   H     0.76509   0.31365   0.76668   0.00000  Uiso   1.00
H171   H     0.93616   0.19782   0.86004   0.00000  Uiso   1.00
H172   H     0.07010   0.23056   0.64791   0.00000  Uiso   1.00
H173   H     0.59881   0.41838   0.77799   0.00000  Uiso   1.00
H174   H     0.95957   0.17413   0.97482   0.00000  Uiso   1.00
H175   H     0.24200   0.24316   0.52750   0.00000  Uiso   1.00
O176   O     0.53610   0.59653   0.79166   0.00000  Uiso   1.00
O177   O     0.00941   0.27609   0.04989   0.00000  Uiso   1.00
O178   O     0.37995   0.36665   0.46302   0.00000  Uiso   1.00
N179   N     0.68473   0.61622   0.78923   0.00000  Uiso   1.00
N180   N     0.02199   0.38787   0.97327   0.00000  Uiso   1.00
N181   N     0.28606   0.45239   0.55507   0.00000  Uiso   1.00
N182   N     0.63986   0.47143   0.78054   0.00000  Uiso   1.00
N183   N     0.97712   0.24308   0.96458   0.00000  Uiso   1.00
N184   N     0.24119   0.30760   0.54638   0.00000  Uiso   1.00
C185   C     0.43545   0.58910   0.36139   0.00000  Uiso   1.00
C186   C     0.33205   0.58092   0.37356   0.00000  Uiso   1.00
C187   C     0.27600   0.49978   0.39416   0.00000  Uiso   1.00
C188   C     0.18316   0.50682   0.40247   0.00000  Uiso   1.00
C189   C     0.02798   0.48117   0.42321   0.00000  Uiso   1.00
C190   C     0.43842   0.67109   0.40289   0.00000  Uiso   1.00
C191   C     0.47182   0.66576   0.44814   0.00000  Uiso   1.00
C192   C     0.46852   0.74872   0.48113   0.00000  Uiso   1.00
C193   C     0.47855   0.86308   0.54737   0.00000  Uiso   1.00
C194   C     0.49118   0.62275   0.29275   0.00000  Uiso   1.00
C195   C     0.56896   0.57679   0.24539   0.00000  Uiso   1.00
C196   C     0.61011   0.61905   0.18565   0.00000  Uiso   1.00
C197   C     0.70206   0.65835   0.08088   0.00000  Uiso   1.00
C198   C     0.37023   0.74590   0.33953   0.00000  Uiso   1.00
C199   C     0.29663   0.66609   0.36169   0.00000  Uiso   1.00
C200   C     0.20385   0.67325   0.36997   0.00000  Uiso   1.00
C201   C     0.14767   0.59213   0.39058   0.00000  Uiso   1.00
C202   C     0.40300   0.75626   0.39102   0.00000  Uiso   1.00
C203   C     0.39966   0.83924   0.42395   0.00000  Uiso   1.00
C204   C     0.43304   0.83404   0.46924   0.00000  Uiso   1.00
C205   C     0.45576   0.70791   0.28087   0.00000  Uiso   1.00
C206   C     0.49680   0.75026   0.22121   0.00000  Uiso   1.00
C207   C     0.57462   0.70437   0.17376   0.00000  Uiso   1.00
H208   H     0.46303   0.52280   0.37063   0.00000  Uiso   1.00
H209   H     0.30344   0.43388   0.40334   0.00000  Uiso   1.00
H210   H     0.49923   0.59985   0.45731   0.00000  Uiso   1.00
H211   H     0.59636   0.51088   0.25459   0.00000  Uiso   1.00
H212   H     0.11087   0.37287   0.43440   0.00000  Uiso   1.00
H213   H     0.52374   0.72282   0.54817   0.00000  Uiso   1.00
H214   H     0.72855   0.53522   0.12070   0.00000  Uiso   1.00
H215   H     0.34265   0.81221   0.33029   0.00000  Uiso   1.00
H216   H     0.17645   0.73917   0.36078   0.00000  Uiso   1.00
H217   H     0.37225   0.90513   0.41475   0.00000  Uiso   1.00
H218   H     0.46937   0.81617   0.21203   0.00000  Uiso   1.00
H219   H     0.00780   0.62065   0.39986   0.00000  Uiso   1.00
H220   H     0.42068   0.97061   0.51363   0.00000  Uiso   1.00
H221   H     0.62548   0.78300   0.08616   0.00000  Uiso   1.00
O222   O     0.95217   0.44350   0.43794   0.00000  Uiso   1.00
O223   O     0.49386   0.90263   0.58719   0.00000  Uiso   1.00
O224   O     0.76255   0.65649   0.02636   0.00000  Uiso   1.00
N225   N     0.10943   0.44120   0.42207   0.00000  Uiso   1.00
N226   N     0.49543   0.76839   0.52845   0.00000  Uiso   1.00
N227   N     0.68692   0.59301   0.12880   0.00000  Uiso   1.00
N228   N     0.05397   0.57453   0.40348   0.00000  Uiso   1.00
N229   N     0.43997   0.90172   0.50986   0.00000  Uiso   1.00
N230   N     0.63146   0.72633   0.11022   0.00000  Uiso   1.00
C231   C     0.00153   0.00175   0.27326   0.00000  Uiso   1.00
C232   C     0.90326   0.00462   0.27553   0.00000  Uiso   1.00
C233   C     0.84563   0.92638   0.28228   0.00000  Uiso   1.00
C234   C     0.75820   0.94392   0.28330   0.00000  Uiso   1.00
C235   C     0.60996   0.93432   0.28769   0.00000  Uiso   1.00
C236   C     0.99620   0.06755   0.32626   0.00000  Uiso   1.00
C237   C     0.01672   0.04223   0.37566   0.00000  Uiso   1.00
C238   C     0.00754   0.11275   0.41937   0.00000  Uiso   1.00
C239   C     0.00365   0.20086   0.50250   0.00000  Uiso   1.00
C240   C     0.06896   0.04976   0.21100   0.00000  Uiso   1.00
C241   C     0.15068   0.00949   0.16350   0.00000  Uiso   1.00
C242   C     0.20278   0.06505   0.11017   0.00000  Uiso   1.00
C243   C     0.31187   0.12554   0.01435   0.00000  Uiso   1.00
C244   C     0.94876   0.17202   0.26304   0.00000  Uiso   1.00
C245   C     0.87460   0.09711   0.26998   0.00000  Uiso   1.00
C246   C     0.78725   0.11477   0.27098   0.00000  Uiso   1.00
C247   C     0.72949   0.03657   0.27773   0.00000  Uiso   1.00
C248   C     0.96754   0.16003   0.32071   0.00000  Uiso   1.00
C249   C     0.95834   0.23061   0.36436   0.00000  Uiso   1.00
C250   C     0.97883   0.20540   0.41381   0.00000  Uiso   1.00
C251   C     0.04030   0.14225   0.20545   0.00000  Uiso   1.00
C252   C     0.09229   0.19788   0.15219   0.00000  Uiso   1.00
C253   C     0.17407   0.15770   0.10461   0.00000  Uiso   1.00
H254   H     0.02384   0.92975   0.27758   0.00000  Uiso   1.00
H255   H     0.86783   0.85482   0.28658   0.00000  Uiso   1.00
H256   H     0.03890   0.97065   0.37994   0.00000  Uiso   1.00
H257   H     0.17284   0.93792   0.16781   0.00000  Uiso   1.00
H258   H     0.68220   0.81254   0.29413   0.00000  Uiso   1.00
H259   H     0.04295   0.05679   0.49097   0.00000  Uiso   1.00
H260   H     0.32539   0.98776   0.04365   0.00000  Uiso   1.00
H261   H     0.92645   0.24403   0.25872   0.00000  Uiso   1.00
H262   H     0.76509   0.18635   0.26668   0.00000  Uiso   1.00
H263   H     0.93616   0.30218   0.36004   0.00000  Uiso   1.00
H264   H     0.07010   0.26944   0.14791   0.00000  Uiso   1.00
H265   H     0.59881   0.08162   0.27799   0.00000  Uiso   1.00
H266   H     0.95957   0.32587   0.47482   0.00000  Uiso   1.00
H267   H     0.24200   0.25684   0.02750   0.00000  Uiso   1.00
O268   O     0.53610   0.90347   0.29166   0.00000  Uiso   1.00
O269   O     0.00941   0.22391   0.54989   0.00000  Uiso   1.00
O270   O     0.37995   0.13335   0.96302   0.00000  Uiso   1.00
N271   N     0.68473   0.88378   0.28923   0.00000  Uiso   1.00
N272   N     0.02199   0.11213   0.47327   0.00000  Uiso   1.00
N273   N     0.28606   0.04761   0.05507   0.00000  Uiso   1.00
N274   N     0.63986   0.02857   0.28054   0.00000  Uiso   1.00
N275   N     0.97712   0.25692   0.46458   0.00000  Uiso   1.00
N276   N     0.24119   0.19240   0.04638   0.00000  Uiso   1.00
C277   C     0.56455   0.08910   0.13861   0.00000  Uiso   1.00
C278   C     0.66795   0.08092   0.12644   0.00000  Uiso   1.00
C279   C     0.72400   0.99978   0.10584   0.00000  Uiso   1.00
C280   C     0.81684   0.00682   0.09753   0.00000  Uiso   1.00
C281   C     0.97202   0.98117   0.07679   0.00000  Uiso   1.00
C282   C     0.56158   0.17109   0.09711   0.00000  Uiso   1.00
C283   C     0.52818   0.16576   0.05186   0.00000  Uiso   1.00
C284   C     0.53148   0.24872   0.01887   0.00000  Uiso   1.00
C285   C     0.52145   0.36308   0.95263   0.00000  Uiso   1.00
C286   C     0.50882   0.12275   0.20725   0.00000  Uiso   1.00
C287   C     0.43104   0.07679   0.25461   0.00000  Uiso   1.00
C288   C     0.38989   0.11905   0.31435   0.00000  Uiso   1.00
C289   C     0.29794   0.15835   0.41912   0.00000  Uiso   1.00
C290   C     0.62977   0.24590   0.16047   0.00000  Uiso   1.00
C291   C     0.70337   0.16609   0.13831   0.00000  Uiso   1.00
C292   C     0.79615   0.17325   0.13003   0.00000  Uiso   1.00
C293   C     0.85233   0.09213   0.10942   0.00000  Uiso   1.00
C294   C     0.59700   0.25626   0.10898   0.00000  Uiso   1.00
C295   C     0.60034   0.33924   0.07605   0.00000  Uiso   1.00
C296   C     0.56696   0.33404   0.03076   0.00000  Uiso   1.00
C297   C     0.54424   0.20791   0.21913   0.00000  Uiso   1.00
C298   C     0.50320   0.25026   0.27879   0.00000  Uiso   1.00
C299   C     0.42538   0.20437   0.32624   0.00000  Uiso   1.00
H300   H     0.53697   0.02280   0.12937   0.00000  Uiso   1.00
H301   H     0.69656   0.93388   0.09666   0.00000  Uiso   1.00
H302   H     0.50077   0.09985   0.04269   0.00000  Uiso   1.00
H303   H     0.40364   0.01088   0.24541   0.00000  Uiso   1.00
H304   H     0.88913   0.87287   0.06560   0.00000  Uiso   1.00
H305   H     0.47626   0.22282   0.95183   0.00000  Uiso   1.00
H306   H     0.27145   0.03522   0.37930   0.00000  Uiso   1.00
H307   H     0.65735   0.31221   0.16971   0.00000  Uiso   1.00
H308   H     0.82355   0.23917   0.13922   0.00000  Uiso   1.00
H309   H     0.62775   0.40513   0.08525   0.00000  Uiso   1.00
H310   H     0.53063   0.31617   0.28797   0.00000  Uiso   1.00
H311   H     0.99220   0.12065   0.10014   0.00000  Uiso   1.00
H312   H     0.57932   0.47061   0.98637   0.00000  Uiso   1.00
H313   H     0.37452   0.28300   0.41384   0.00000  Uiso   1.00
O314   O     0.04783   0.94350   0.06206   0.00000  Uiso   1.00
O315   O     0.50614   0.40263   0.91281   0.00000  Uiso   1.00
O316   O     0.23745   0.15649   0.47364   0.00000  Uiso   1.00
N317   N     0.89057   0.94120   0.07793   0.00000  Uiso   1.00
N318   N     0.50457   0.26839   0.97155   0.00000  Uiso   1.00
N319   N     0.31308   0.09301   0.37120   0.00000  Uiso   1.00
N320   N     0.94603   0.07453   0.09652   0.00000  Uiso   1.00
N321   N     0.56003   0.40172   0.99014   0.00000  Uiso   1.00
N322   N     0.36854   0.22633   0.38978   0.00000  Uiso   1.00
C323   C     0.99847   0.50175   0.22674   0.00000  Uiso   1.00
C324   C     0.09674   0.50462   0.22447   0.00000  Uiso   1.00
C325   C     0.15437   0.42638   0.21772   0.00000  Uiso   1.00
C326   C     0.24180   0.44392   0.21670   0.00000  Uiso   1.00
C327   C     0.39004   0.43432   0.21231   0.00000  Uiso   1.00
C328   C     0.00380   0.56755   0.17374   0.00000  Uiso   1.00
C329   C     0.98328   0.54223   0.12434   0.00000  Uiso   1.00
C330   C     0.99246   0.61275   0.08063   0.00000  Uiso   1.00
C331   C     0.99635   0.70086   0.99750   0.00000  Uiso   1.00
C332   C     0.93104   0.54976   0.28900   0.00000  Uiso   1.00
C333   C     0.84932   0.50949   0.33650   0.00000  Uiso   1.00
C334   C     0.79722   0.56505   0.38983   0.00000  Uiso   1.00
C335   C     0.68813   0.62554   0.48565   0.00000  Uiso   1.00
C336   C     0.05124   0.67202   0.23696   0.00000  Uiso   1.00
C337   C     0.12540   0.59711   0.23002   0.00000  Uiso   1.00
C338   C     0.21275   0.61477   0.22902   0.00000  Uiso   1.00
C339   C     0.27051   0.53657   0.22227   0.00000  Uiso   1.00
C340   C     0.03246   0.66003   0.17929   0.00000  Uiso   1.00
C341   C     0.04166   0.73061   0.13564   0.00000  Uiso   1.00
C342   C     0.02117   0.70540   0.08619   0.00000  Uiso   1.00
C343   C     0.95970   0.64225   0.29455   0.00000  Uiso   1.00
C344   C     0.90771   0.69788   0.34781   0.00000  Uiso   1.00
C345   C     0.82593   0.65770   0.39539   0.00000  Uiso   1.00
H346   H     0.97616   0.42975   0.22242   0.00000  Uiso   1.00
H347   H     0.13217   0.35482   0.21342   0.00000  Uiso   1.00
H348   H     0.96110   0.47065   0.12006   0.00000  Uiso   1.00
H349   H     0.82716   0.43792   0.33219   0.00000  Uiso   1.00
H350   H     0.31780   0.31254   0.20587   0.00000  Uiso   1.00
H351   H     0.95705   0.55679   0.00903   0.00000  Uiso   1.00
H352   H     0.67461   0.48776   0.45635   0.00000  Uiso   1.00
H353   H     0.07355   0.74403   0.24128   0.00000  Uiso   1.00
H354   H     0.23491   0.68635   0.23332   0.00000  Uiso   1.00
H355   H     0.06384   0.80218   0.13996   0.00000  Uiso   1.00
H356   H     0.92990   0.76944   0.35209   0.00000  Uiso   1.00
H357   H     0.40119   0.58162   0.22201   0.00000  Uiso   1.00
H358   H     0.04043   0.82587   0.02518   0.00000  Uiso   1.00
H359   H     0.75800   0.75684   0.47250   0.00000  Uiso   1.00
O360   O     0.46390   0.40347   0.20834   0.00000  Uiso   1.00
O361   O     0.99059   0.72391   0.95011   0.00000  Uiso   1.00
O362   O     0.62005   0.63335   0.53698   0.00000  Uiso   1.00
N363   N     0.31527   0.38378   0.21077   0.00000  Uiso   1.00
N364   N     0.97801   0.61213   0.02673   0.00000  Uiso   1.00
N365   N     0.71394   0.54761   0.44493   0.00000  Uiso   1.00
N366   N     0.36014   0.52857   0.21946   0.00000  Uiso   1.00
N367   N     0.02288   0.75692   0.03542   0.00000  Uiso   1.00
N368   N     0.75881   0.69240   0.45362   0.00000  Uiso   1.00
