data_job_01395
_audit_creation_date              2018-12-19
_audit_creation_method            'Materials Studio'
_symmetry_space_group_name_H-M    'P1'
_symmetry_Int_Tables_number       1
_symmetry_cell_setting            triclinic
loop_
_symmetry_equiv_pos_as_xyz
  x,y,z
_cell_length_a                    38.1368
_cell_length_b                    15.6272
_cell_length_c                    9.8257
_cell_angle_alpha                 90.0000
_cell_angle_beta                  90.0000
_cell_angle_gamma                 90.0000
loop_
_atom_site_label
_atom_site_type_symbol
_atom_site_fract_x
_atom_site_fract_y
_atom_site_fract_z
_atom_site_U_iso_or_equiv
_atom_site_adp_type
_atom_site_occupancy
C1     C     0.82388   0.66128   0.69294   0.00000  Uiso   1.00
C2     C     0.82343   0.75504   0.64998   0.00000  Uiso   1.00
C3     C     0.79889   0.79291   0.56486   0.00000  Uiso   1.00
C4     C     0.80306   0.87953   0.53786   0.00000  Uiso   1.00
C5     C     0.79816   0.01796   0.46255   0.00000  Uiso   1.00
C6     C     0.85972   0.62675   0.65159   0.00000  Uiso   1.00
C7     C     0.86569   0.55673   0.56783   0.00000  Uiso   1.00
C8     C     0.90040   0.53534   0.54219   0.00000  Uiso   1.00
C9     C     0.95185   0.47455   0.46946   0.00000  Uiso   1.00
C10    C     0.82345   0.66132   0.84813   0.00000  Uiso   1.00
C11    C     0.79892   0.62035   0.92963   0.00000  Uiso   1.00
C12    C     0.80310   0.62805   0.06947   0.00000  Uiso   1.00
C13    C     0.79822   0.62093   0.30189   0.00000  Uiso   1.00
C14    C     0.87491   0.74776   0.79637   0.00000  Uiso   1.00
C15    C     0.85116   0.80201   0.70616   0.00000  Uiso   1.00
C16    C     0.85536   0.88859   0.67929   0.00000  Uiso   1.00
C17    C     0.83083   0.92659   0.59414   0.00000  Uiso   1.00
C18    C     0.88745   0.67371   0.70776   0.00000  Uiso   1.00
C19    C     0.92216   0.65242   0.68226   0.00000  Uiso   1.00
C20    C     0.92818   0.58240   0.59847   0.00000  Uiso   1.00
C21    C     0.85117   0.70829   0.90431   0.00000  Uiso   1.00
C22    C     0.85539   0.71604   0.04405   0.00000  Uiso   1.00
C23    C     0.83087   0.67510   0.12575   0.00000  Uiso   1.00
H24    H     0.80230   0.62471   0.64920   0.00000  Uiso   1.00
H25    H     0.77744   0.75654   0.52139   0.00000  Uiso   1.00
H26    H     0.84423   0.52039   0.52438   0.00000  Uiso   1.00
H27    H     0.77747   0.58401   0.88612   0.00000  Uiso   1.00
H28    H     0.76212   0.92340   0.40442   0.00000  Uiso   1.00
H29    H     0.90295   0.42546   0.41075   0.00000  Uiso   1.00
H30    H     0.76217   0.55960   0.17355   0.00000  Uiso   1.00
H31    H     0.89650   0.78433   0.84011   0.00000  Uiso   1.00
H32    H     0.87681   0.92493   0.72278   0.00000  Uiso   1.00
H33    H     0.94360   0.68878   0.72575   0.00000  Uiso   1.00
H34    H     0.87684   0.75239   0.08749   0.00000  Uiso   1.00
H35    H     0.84278   0.06007   0.56787   0.00000  Uiso   1.00
H36    H     0.98361   0.56213   0.57420   0.00000  Uiso   1.00
H37    H     0.84282   0.69627   0.33700   0.00000  Uiso   1.00
O38    O     0.78781   0.08134   0.40548   0.00000  Uiso   1.00
O39    O     0.97257   0.42805   0.41380   0.00000  Uiso   1.00
O40    O     0.78787   0.60404   0.41457   0.00000  Uiso   1.00
N41    N     0.78380   0.93628   0.45901   0.00000  Uiso   1.00
N42    N     0.91547   0.47074   0.46491   0.00000  Uiso   1.00
N43    N     0.78386   0.59613   0.17807   0.00000  Uiso   1.00
N44    N     0.82720   0.00982   0.54696   0.00000  Uiso   1.00
N45    N     0.95887   0.54428   0.55286   0.00000  Uiso   1.00
N46    N     0.82725   0.66967   0.26602   0.00000  Uiso   1.00
C47    C     0.67612   0.33872   0.69294   0.00000  Uiso   1.00
C48    C     0.67657   0.24496   0.64998   0.00000  Uiso   1.00
C49    C     0.70111   0.20709   0.56486   0.00000  Uiso   1.00
C50    C     0.69694   0.12047   0.53786   0.00000  Uiso   1.00
C51    C     0.70184   0.98204   0.46255   0.00000  Uiso   1.00
C52    C     0.64028   0.37325   0.65159   0.00000  Uiso   1.00
C53    C     0.63431   0.44327   0.56783   0.00000  Uiso   1.00
C54    C     0.59960   0.46466   0.54219   0.00000  Uiso   1.00
C55    C     0.54815   0.52545   0.46946   0.00000  Uiso   1.00
C56    C     0.67655   0.33868   0.84813   0.00000  Uiso   1.00
C57    C     0.70108   0.37965   0.92963   0.00000  Uiso   1.00
C58    C     0.69690   0.37195   0.06947   0.00000  Uiso   1.00
C59    C     0.70178   0.37907   0.30189   0.00000  Uiso   1.00
C60    C     0.62509   0.25224   0.79637   0.00000  Uiso   1.00
C61    C     0.64884   0.19799   0.70616   0.00000  Uiso   1.00
C62    C     0.64464   0.11141   0.67929   0.00000  Uiso   1.00
C63    C     0.66917   0.07341   0.59414   0.00000  Uiso   1.00
C64    C     0.61255   0.32629   0.70776   0.00000  Uiso   1.00
C65    C     0.57784   0.34758   0.68226   0.00000  Uiso   1.00
C66    C     0.57182   0.41760   0.59847   0.00000  Uiso   1.00
C67    C     0.64883   0.29171   0.90431   0.00000  Uiso   1.00
C68    C     0.64461   0.28396   0.04405   0.00000  Uiso   1.00
C69    C     0.66913   0.32490   0.12575   0.00000  Uiso   1.00
H70    H     0.69770   0.37529   0.64920   0.00000  Uiso   1.00
H71    H     0.72256   0.24346   0.52139   0.00000  Uiso   1.00
H72    H     0.65577   0.47961   0.52438   0.00000  Uiso   1.00
H73    H     0.72253   0.41599   0.88612   0.00000  Uiso   1.00
H74    H     0.73788   0.07660   0.40442   0.00000  Uiso   1.00
H75    H     0.59705   0.57454   0.41075   0.00000  Uiso   1.00
H76    H     0.73783   0.44040   0.17355   0.00000  Uiso   1.00
H77    H     0.60350   0.21567   0.84011   0.00000  Uiso   1.00
H78    H     0.62319   0.07507   0.72278   0.00000  Uiso   1.00
H79    H     0.55640   0.31122   0.72575   0.00000  Uiso   1.00
H80    H     0.62316   0.24761   0.08749   0.00000  Uiso   1.00
H81    H     0.65722   0.93993   0.56787   0.00000  Uiso   1.00
H82    H     0.51639   0.43787   0.57420   0.00000  Uiso   1.00
H83    H     0.65718   0.30373   0.33700   0.00000  Uiso   1.00
O84    O     0.71219   0.91866   0.40548   0.00000  Uiso   1.00
O85    O     0.52743   0.57195   0.41380   0.00000  Uiso   1.00
O86    O     0.71213   0.39596   0.41457   0.00000  Uiso   1.00
N87    N     0.71620   0.06372   0.45901   0.00000  Uiso   1.00
N88    N     0.58453   0.52926   0.46491   0.00000  Uiso   1.00
N89    N     0.71614   0.40387   0.17807   0.00000  Uiso   1.00
N90    N     0.67280   0.99018   0.54696   0.00000  Uiso   1.00
N91    N     0.54113   0.45572   0.55286   0.00000  Uiso   1.00
N92    N     0.67275   0.33033   0.26602   0.00000  Uiso   1.00
C93    C     0.17612   0.66128   0.80706   0.00000  Uiso   1.00
C94    C     0.17657   0.75504   0.85002   0.00000  Uiso   1.00
C95    C     0.20111   0.79291   0.93514   0.00000  Uiso   1.00
C96    C     0.19694   0.87953   0.96214   0.00000  Uiso   1.00
C97    C     0.20184   0.01796   0.03745   0.00000  Uiso   1.00
C98    C     0.14028   0.62675   0.84841   0.00000  Uiso   1.00
C99    C     0.13431   0.55673   0.93217   0.00000  Uiso   1.00
C100   C     0.09960   0.53534   0.95781   0.00000  Uiso   1.00
C101   C     0.04815   0.47455   0.03054   0.00000  Uiso   1.00
C102   C     0.17655   0.66132   0.65187   0.00000  Uiso   1.00
C103   C     0.20108   0.62035   0.57037   0.00000  Uiso   1.00
C104   C     0.19690   0.62805   0.43053   0.00000  Uiso   1.00
C105   C     0.20178   0.62093   0.19811   0.00000  Uiso   1.00
C106   C     0.12509   0.74776   0.70363   0.00000  Uiso   1.00
C107   C     0.14884   0.80201   0.79384   0.00000  Uiso   1.00
C108   C     0.14464   0.88859   0.82071   0.00000  Uiso   1.00
C109   C     0.16917   0.92659   0.90586   0.00000  Uiso   1.00
C110   C     0.11255   0.67371   0.79224   0.00000  Uiso   1.00
C111   C     0.07784   0.65242   0.81774   0.00000  Uiso   1.00
C112   C     0.07182   0.58240   0.90153   0.00000  Uiso   1.00
C113   C     0.14883   0.70829   0.59569   0.00000  Uiso   1.00
C114   C     0.14461   0.71604   0.45595   0.00000  Uiso   1.00
C115   C     0.16913   0.67510   0.37425   0.00000  Uiso   1.00
H116   H     0.19770   0.62471   0.85080   0.00000  Uiso   1.00
H117   H     0.22256   0.75654   0.97861   0.00000  Uiso   1.00
H118   H     0.15577   0.52039   0.97562   0.00000  Uiso   1.00
H119   H     0.22253   0.58401   0.61388   0.00000  Uiso   1.00
H120   H     0.23788   0.92340   0.09558   0.00000  Uiso   1.00
H121   H     0.09705   0.42546   0.08925   0.00000  Uiso   1.00
H122   H     0.23783   0.55960   0.32645   0.00000  Uiso   1.00
H123   H     0.10350   0.78433   0.65989   0.00000  Uiso   1.00
H124   H     0.12319   0.92493   0.77722   0.00000  Uiso   1.00
H125   H     0.05640   0.68878   0.77425   0.00000  Uiso   1.00
H126   H     0.12316   0.75239   0.41251   0.00000  Uiso   1.00
H127   H     0.15722   0.06007   0.93213   0.00000  Uiso   1.00
H128   H     0.01639   0.56213   0.92580   0.00000  Uiso   1.00
H129   H     0.15718   0.69627   0.16300   0.00000  Uiso   1.00
O130   O     0.21219   0.08134   0.09452   0.00000  Uiso   1.00
O131   O     0.02743   0.42805   0.08620   0.00000  Uiso   1.00
O132   O     0.21213   0.60404   0.08543   0.00000  Uiso   1.00
N133   N     0.21620   0.93628   0.04099   0.00000  Uiso   1.00
N134   N     0.08453   0.47074   0.03509   0.00000  Uiso   1.00
N135   N     0.21614   0.59613   0.32193   0.00000  Uiso   1.00
N136   N     0.17280   0.00982   0.95304   0.00000  Uiso   1.00
N137   N     0.04113   0.54428   0.94714   0.00000  Uiso   1.00
N138   N     0.17275   0.66967   0.23398   0.00000  Uiso   1.00
C139   C     0.32388   0.33872   0.80706   0.00000  Uiso   1.00
C140   C     0.32343   0.24496   0.85002   0.00000  Uiso   1.00
C141   C     0.29889   0.20709   0.93514   0.00000  Uiso   1.00
C142   C     0.30306   0.12047   0.96214   0.00000  Uiso   1.00
C143   C     0.29816   0.98204   0.03745   0.00000  Uiso   1.00
C144   C     0.35972   0.37325   0.84841   0.00000  Uiso   1.00
C145   C     0.36569   0.44327   0.93217   0.00000  Uiso   1.00
C146   C     0.40040   0.46466   0.95781   0.00000  Uiso   1.00
C147   C     0.45185   0.52545   0.03054   0.00000  Uiso   1.00
C148   C     0.32345   0.33868   0.65187   0.00000  Uiso   1.00
C149   C     0.29892   0.37965   0.57037   0.00000  Uiso   1.00
C150   C     0.30310   0.37195   0.43053   0.00000  Uiso   1.00
C151   C     0.29822   0.37907   0.19811   0.00000  Uiso   1.00
C152   C     0.37491   0.25224   0.70363   0.00000  Uiso   1.00
C153   C     0.35116   0.19799   0.79384   0.00000  Uiso   1.00
C154   C     0.35536   0.11141   0.82071   0.00000  Uiso   1.00
C155   C     0.33083   0.07341   0.90586   0.00000  Uiso   1.00
C156   C     0.38745   0.32629   0.79224   0.00000  Uiso   1.00
C157   C     0.42216   0.34758   0.81774   0.00000  Uiso   1.00
C158   C     0.42818   0.41760   0.90153   0.00000  Uiso   1.00
C159   C     0.35117   0.29171   0.59569   0.00000  Uiso   1.00
C160   C     0.35539   0.28396   0.45595   0.00000  Uiso   1.00
C161   C     0.33087   0.32490   0.37425   0.00000  Uiso   1.00
H162   H     0.30230   0.37529   0.85080   0.00000  Uiso   1.00
H163   H     0.27744   0.24346   0.97861   0.00000  Uiso   1.00
H164   H     0.34423   0.47961   0.97562   0.00000  Uiso   1.00
H165   H     0.27747   0.41599   0.61388   0.00000  Uiso   1.00
H166   H     0.26212   0.07660   0.09558   0.00000  Uiso   1.00
H167   H     0.40295   0.57454   0.08925   0.00000  Uiso   1.00
H168   H     0.26217   0.44040   0.32645   0.00000  Uiso   1.00
H169   H     0.39650   0.21567   0.65989   0.00000  Uiso   1.00
H170   H     0.37681   0.07507   0.77722   0.00000  Uiso   1.00
H171   H     0.44360   0.31122   0.77425   0.00000  Uiso   1.00
H172   H     0.37684   0.24761   0.41251   0.00000  Uiso   1.00
H173   H     0.34278   0.93993   0.93213   0.00000  Uiso   1.00
H174   H     0.48361   0.43787   0.92580   0.00000  Uiso   1.00
H175   H     0.34282   0.30373   0.16300   0.00000  Uiso   1.00
O176   O     0.28781   0.91866   0.09452   0.00000  Uiso   1.00
O177   O     0.47257   0.57195   0.08620   0.00000  Uiso   1.00
O178   O     0.28787   0.39596   0.08543   0.00000  Uiso   1.00
N179   N     0.28380   0.06372   0.04099   0.00000  Uiso   1.00
N180   N     0.41547   0.52926   0.03509   0.00000  Uiso   1.00
N181   N     0.28386   0.40387   0.32193   0.00000  Uiso   1.00
N182   N     0.32720   0.99018   0.95304   0.00000  Uiso   1.00
N183   N     0.45887   0.45572   0.94714   0.00000  Uiso   1.00
N184   N     0.32725   0.33033   0.23398   0.00000  Uiso   1.00
C185   C     0.17612   0.33872   0.30706   0.00000  Uiso   1.00
C186   C     0.17657   0.24496   0.35002   0.00000  Uiso   1.00
C187   C     0.20111   0.20709   0.43514   0.00000  Uiso   1.00
C188   C     0.19694   0.12047   0.46214   0.00000  Uiso   1.00
C189   C     0.20184   0.98204   0.53745   0.00000  Uiso   1.00
C190   C     0.14028   0.37325   0.34841   0.00000  Uiso   1.00
C191   C     0.13431   0.44327   0.43217   0.00000  Uiso   1.00
C192   C     0.09960   0.46466   0.45781   0.00000  Uiso   1.00
C193   C     0.04815   0.52545   0.53054   0.00000  Uiso   1.00
C194   C     0.17655   0.33868   0.15187   0.00000  Uiso   1.00
C195   C     0.20108   0.37965   0.07037   0.00000  Uiso   1.00
C196   C     0.19690   0.37195   0.93053   0.00000  Uiso   1.00
C197   C     0.20178   0.37907   0.69811   0.00000  Uiso   1.00
C198   C     0.12509   0.25224   0.20363   0.00000  Uiso   1.00
C199   C     0.14884   0.19799   0.29384   0.00000  Uiso   1.00
C200   C     0.14464   0.11141   0.32071   0.00000  Uiso   1.00
C201   C     0.16917   0.07341   0.40586   0.00000  Uiso   1.00
C202   C     0.11255   0.32629   0.29224   0.00000  Uiso   1.00
C203   C     0.07784   0.34758   0.31774   0.00000  Uiso   1.00
C204   C     0.07182   0.41760   0.40153   0.00000  Uiso   1.00
C205   C     0.14883   0.29171   0.09569   0.00000  Uiso   1.00
C206   C     0.14461   0.28396   0.95595   0.00000  Uiso   1.00
C207   C     0.16913   0.32490   0.87425   0.00000  Uiso   1.00
H208   H     0.19770   0.37529   0.35080   0.00000  Uiso   1.00
H209   H     0.22256   0.24346   0.47861   0.00000  Uiso   1.00
H210   H     0.15577   0.47961   0.47562   0.00000  Uiso   1.00
H211   H     0.22253   0.41599   0.11388   0.00000  Uiso   1.00
H212   H     0.23788   0.07660   0.59558   0.00000  Uiso   1.00
H213   H     0.09705   0.57454   0.58925   0.00000  Uiso   1.00
H214   H     0.23783   0.44040   0.82645   0.00000  Uiso   1.00
H215   H     0.10350   0.21567   0.15989   0.00000  Uiso   1.00
H216   H     0.12319   0.07507   0.27722   0.00000  Uiso   1.00
H217   H     0.05640   0.31122   0.27425   0.00000  Uiso   1.00
H218   H     0.12316   0.24761   0.91251   0.00000  Uiso   1.00
H219   H     0.15722   0.93993   0.43213   0.00000  Uiso   1.00
H220   H     0.01639   0.43787   0.42580   0.00000  Uiso   1.00
H221   H     0.15718   0.30373   0.66300   0.00000  Uiso   1.00
O222   O     0.21219   0.91866   0.59452   0.00000  Uiso   1.00
O223   O     0.02743   0.57195   0.58620   0.00000  Uiso   1.00
O224   O     0.21213   0.39596   0.58543   0.00000  Uiso   1.00
N225   N     0.21620   0.06372   0.54099   0.00000  Uiso   1.00
N226   N     0.08453   0.52926   0.53509   0.00000  Uiso   1.00
N227   N     0.21614   0.40387   0.82193   0.00000  Uiso   1.00
N228   N     0.17280   0.99018   0.45304   0.00000  Uiso   1.00
N229   N     0.04113   0.45572   0.44714   0.00000  Uiso   1.00
N230   N     0.17275   0.33033   0.73398   0.00000  Uiso   1.00
C231   C     0.32388   0.66128   0.30706   0.00000  Uiso   1.00
C232   C     0.32343   0.75504   0.35002   0.00000  Uiso   1.00
C233   C     0.29889   0.79291   0.43514   0.00000  Uiso   1.00
C234   C     0.30306   0.87953   0.46214   0.00000  Uiso   1.00
C235   C     0.29816   0.01796   0.53745   0.00000  Uiso   1.00
C236   C     0.35972   0.62675   0.34841   0.00000  Uiso   1.00
C237   C     0.36569   0.55673   0.43217   0.00000  Uiso   1.00
C238   C     0.40040   0.53534   0.45781   0.00000  Uiso   1.00
C239   C     0.45185   0.47455   0.53054   0.00000  Uiso   1.00
C240   C     0.32345   0.66132   0.15187   0.00000  Uiso   1.00
C241   C     0.29892   0.62035   0.07037   0.00000  Uiso   1.00
C242   C     0.30310   0.62805   0.93053   0.00000  Uiso   1.00
C243   C     0.29822   0.62093   0.69811   0.00000  Uiso   1.00
C244   C     0.37491   0.74776   0.20363   0.00000  Uiso   1.00
C245   C     0.35116   0.80201   0.29384   0.00000  Uiso   1.00
C246   C     0.35536   0.88859   0.32071   0.00000  Uiso   1.00
C247   C     0.33083   0.92659   0.40586   0.00000  Uiso   1.00
C248   C     0.38745   0.67371   0.29224   0.00000  Uiso   1.00
C249   C     0.42216   0.65242   0.31774   0.00000  Uiso   1.00
C250   C     0.42818   0.58240   0.40153   0.00000  Uiso   1.00
C251   C     0.35117   0.70829   0.09569   0.00000  Uiso   1.00
C252   C     0.35539   0.71604   0.95595   0.00000  Uiso   1.00
C253   C     0.33087   0.67510   0.87425   0.00000  Uiso   1.00
H254   H     0.30230   0.62471   0.35080   0.00000  Uiso   1.00
H255   H     0.27744   0.75654   0.47861   0.00000  Uiso   1.00
H256   H     0.34423   0.52039   0.47562   0.00000  Uiso   1.00
H257   H     0.27747   0.58401   0.11388   0.00000  Uiso   1.00
H258   H     0.26212   0.92340   0.59558   0.00000  Uiso   1.00
H259   H     0.40295   0.42546   0.58925   0.00000  Uiso   1.00
H260   H     0.26217   0.55960   0.82645   0.00000  Uiso   1.00
H261   H     0.39650   0.78433   0.15989   0.00000  Uiso   1.00
H262   H     0.37681   0.92493   0.27722   0.00000  Uiso   1.00
H263   H     0.44360   0.68878   0.27425   0.00000  Uiso   1.00
H264   H     0.37684   0.75239   0.91251   0.00000  Uiso   1.00
H265   H     0.34278   0.06007   0.43213   0.00000  Uiso   1.00
H266   H     0.48361   0.56213   0.42580   0.00000  Uiso   1.00
H267   H     0.34282   0.69627   0.66300   0.00000  Uiso   1.00
O268   O     0.28781   0.08134   0.59452   0.00000  Uiso   1.00
O269   O     0.47257   0.42805   0.58620   0.00000  Uiso   1.00
O270   O     0.28787   0.60404   0.58543   0.00000  Uiso   1.00
N271   N     0.28380   0.93628   0.54099   0.00000  Uiso   1.00
N272   N     0.41547   0.47074   0.53509   0.00000  Uiso   1.00
N273   N     0.28386   0.59613   0.82193   0.00000  Uiso   1.00
N274   N     0.32720   0.00982   0.45304   0.00000  Uiso   1.00
N275   N     0.45887   0.54428   0.44714   0.00000  Uiso   1.00
N276   N     0.32725   0.66967   0.73398   0.00000  Uiso   1.00
C277   C     0.82388   0.33872   0.19294   0.00000  Uiso   1.00
C278   C     0.82343   0.24496   0.14998   0.00000  Uiso   1.00
C279   C     0.79889   0.20709   0.06486   0.00000  Uiso   1.00
C280   C     0.80306   0.12047   0.03786   0.00000  Uiso   1.00
C281   C     0.79816   0.98204   0.96255   0.00000  Uiso   1.00
C282   C     0.85972   0.37325   0.15159   0.00000  Uiso   1.00
C283   C     0.86569   0.44327   0.06783   0.00000  Uiso   1.00
C284   C     0.90040   0.46466   0.04219   0.00000  Uiso   1.00
C285   C     0.95185   0.52545   0.96946   0.00000  Uiso   1.00
C286   C     0.82345   0.33868   0.34813   0.00000  Uiso   1.00
C287   C     0.79892   0.37965   0.42963   0.00000  Uiso   1.00
C288   C     0.80310   0.37195   0.56947   0.00000  Uiso   1.00
C289   C     0.79822   0.37907   0.80189   0.00000  Uiso   1.00
C290   C     0.87491   0.25224   0.29637   0.00000  Uiso   1.00
C291   C     0.85116   0.19799   0.20616   0.00000  Uiso   1.00
C292   C     0.85536   0.11141   0.17929   0.00000  Uiso   1.00
C293   C     0.83083   0.07341   0.09414   0.00000  Uiso   1.00
C294   C     0.88745   0.32629   0.20776   0.00000  Uiso   1.00
C295   C     0.92216   0.34758   0.18226   0.00000  Uiso   1.00
C296   C     0.92818   0.41760   0.09847   0.00000  Uiso   1.00
C297   C     0.85117   0.29171   0.40431   0.00000  Uiso   1.00
C298   C     0.85539   0.28396   0.54405   0.00000  Uiso   1.00
C299   C     0.83087   0.32490   0.62575   0.00000  Uiso   1.00
H300   H     0.80230   0.37529   0.14920   0.00000  Uiso   1.00
H301   H     0.77744   0.24346   0.02139   0.00000  Uiso   1.00
H302   H     0.84423   0.47961   0.02438   0.00000  Uiso   1.00
H303   H     0.77747   0.41599   0.38612   0.00000  Uiso   1.00
H304   H     0.76212   0.07660   0.90442   0.00000  Uiso   1.00
H305   H     0.90295   0.57454   0.91075   0.00000  Uiso   1.00
H306   H     0.76217   0.44040   0.67355   0.00000  Uiso   1.00
H307   H     0.89650   0.21567   0.34011   0.00000  Uiso   1.00
H308   H     0.87681   0.07507   0.22278   0.00000  Uiso   1.00
H309   H     0.94360   0.31122   0.22575   0.00000  Uiso   1.00
H310   H     0.87684   0.24761   0.58749   0.00000  Uiso   1.00
H311   H     0.84278   0.93993   0.06787   0.00000  Uiso   1.00
H312   H     0.98361   0.43787   0.07420   0.00000  Uiso   1.00
H313   H     0.84282   0.30373   0.83700   0.00000  Uiso   1.00
O314   O     0.78781   0.91866   0.90548   0.00000  Uiso   1.00
O315   O     0.97257   0.57195   0.91380   0.00000  Uiso   1.00
O316   O     0.78787   0.39596   0.91457   0.00000  Uiso   1.00
N317   N     0.78380   0.06372   0.95901   0.00000  Uiso   1.00
N318   N     0.91547   0.52926   0.96491   0.00000  Uiso   1.00
N319   N     0.78386   0.40387   0.67807   0.00000  Uiso   1.00
N320   N     0.82720   0.99018   0.04696   0.00000  Uiso   1.00
N321   N     0.95887   0.45572   0.05286   0.00000  Uiso   1.00
N322   N     0.82725   0.33033   0.76602   0.00000  Uiso   1.00
C323   C     0.67612   0.66128   0.19294   0.00000  Uiso   1.00
C324   C     0.67657   0.75504   0.14998   0.00000  Uiso   1.00
C325   C     0.70111   0.79291   0.06486   0.00000  Uiso   1.00
C326   C     0.69694   0.87953   0.03786   0.00000  Uiso   1.00
C327   C     0.70184   0.01796   0.96255   0.00000  Uiso   1.00
C328   C     0.64028   0.62675   0.15159   0.00000  Uiso   1.00
C329   C     0.63431   0.55673   0.06783   0.00000  Uiso   1.00
C330   C     0.59960   0.53534   0.04219   0.00000  Uiso   1.00
C331   C     0.54815   0.47455   0.96946   0.00000  Uiso   1.00
C332   C     0.67655   0.66132   0.34813   0.00000  Uiso   1.00
C333   C     0.70108   0.62035   0.42963   0.00000  Uiso   1.00
C334   C     0.69690   0.62805   0.56947   0.00000  Uiso   1.00
C335   C     0.70178   0.62093   0.80189   0.00000  Uiso   1.00
C336   C     0.62509   0.74776   0.29637   0.00000  Uiso   1.00
C337   C     0.64884   0.80201   0.20616   0.00000  Uiso   1.00
C338   C     0.64464   0.88859   0.17929   0.00000  Uiso   1.00
C339   C     0.66917   0.92659   0.09414   0.00000  Uiso   1.00
C340   C     0.61255   0.67371   0.20776   0.00000  Uiso   1.00
C341   C     0.57784   0.65242   0.18226   0.00000  Uiso   1.00
C342   C     0.57182   0.58240   0.09847   0.00000  Uiso   1.00
C343   C     0.64883   0.70829   0.40431   0.00000  Uiso   1.00
C344   C     0.64461   0.71604   0.54405   0.00000  Uiso   1.00
C345   C     0.66913   0.67510   0.62575   0.00000  Uiso   1.00
H346   H     0.69770   0.62471   0.14920   0.00000  Uiso   1.00
H347   H     0.72256   0.75654   0.02139   0.00000  Uiso   1.00
H348   H     0.65577   0.52039   0.02438   0.00000  Uiso   1.00
H349   H     0.72253   0.58401   0.38612   0.00000  Uiso   1.00
H350   H     0.73788   0.92340   0.90442   0.00000  Uiso   1.00
H351   H     0.59705   0.42546   0.91075   0.00000  Uiso   1.00
H352   H     0.73783   0.55960   0.67355   0.00000  Uiso   1.00
H353   H     0.60350   0.78433   0.34011   0.00000  Uiso   1.00
H354   H     0.62319   0.92493   0.22278   0.00000  Uiso   1.00
H355   H     0.55640   0.68878   0.22575   0.00000  Uiso   1.00
H356   H     0.62316   0.75239   0.58749   0.00000  Uiso   1.00
H357   H     0.65722   0.06007   0.06787   0.00000  Uiso   1.00
H358   H     0.51639   0.56213   0.07420   0.00000  Uiso   1.00
H359   H     0.65718   0.69627   0.83700   0.00000  Uiso   1.00
O360   O     0.71219   0.08134   0.90548   0.00000  Uiso   1.00
O361   O     0.52743   0.42805   0.91380   0.00000  Uiso   1.00
O362   O     0.71213   0.60404   0.91457   0.00000  Uiso   1.00
N363   N     0.71620   0.93628   0.95901   0.00000  Uiso   1.00
N364   N     0.58453   0.47074   0.96491   0.00000  Uiso   1.00
N365   N     0.71614   0.59613   0.67807   0.00000  Uiso   1.00
N366   N     0.67280   0.00982   0.04696   0.00000  Uiso   1.00
N367   N     0.54113   0.54428   0.05286   0.00000  Uiso   1.00
N368   N     0.67275   0.66967   0.76602   0.00000  Uiso   1.00
