data_job_01683
_audit_creation_date              2018-12-19
_audit_creation_method            'Materials Studio'
_symmetry_space_group_name_H-M    'P1'
_symmetry_Int_Tables_number       1
_symmetry_cell_setting            triclinic
loop_
_symmetry_equiv_pos_as_xyz
  x,y,z
_cell_length_a                    19.9087
_cell_length_b                    14.8034
_cell_length_c                    26.5986
_cell_angle_alpha                 90.0000
_cell_angle_beta                  55.6027
_cell_angle_gamma                 90.0000
loop_
_atom_site_label
_atom_site_type_symbol
_atom_site_fract_x
_atom_site_fract_y
_atom_site_fract_z
_atom_site_U_iso_or_equiv
_atom_site_adp_type
_atom_site_occupancy
C1     C     0.43140   0.48075   0.84882   0.00000  Uiso   1.00
C2     C     0.42874   0.42623   0.89856   0.00000  Uiso   1.00
C3     C     0.46339   0.34175   0.89122   0.00000  Uiso   1.00
C4     C     0.45422   0.30309   0.94232   0.00000  Uiso   1.00
C5     C     0.45649   0.21169   0.01099   0.00000  Uiso   1.00
C6     C     0.34300   0.50027   0.87246   0.00000  Uiso   1.00
C7     C     0.30558   0.47805   0.84317   0.00000  Uiso   1.00
C8     C     0.22425   0.50173   0.87229   0.00000  Uiso   1.00
C9     C     0.09344   0.52533   0.90041   0.00000  Uiso   1.00
C10    C     0.46905   0.57163   0.84657   0.00000  Uiso   1.00
C11    C     0.53760   0.60944   0.79550   0.00000  Uiso   1.00
C12    C     0.56238   0.69321   0.80282   0.00000  Uiso   1.00
C13    C     0.62728   0.82761   0.79074   0.00000  Uiso   1.00
C14    C     0.35350   0.56232   0.95261   0.00000  Uiso   1.00
C15    C     0.38642   0.47054   0.95494   0.00000  Uiso   1.00
C16    C     0.37720   0.43201   0.00606   0.00000  Uiso   1.00
C17    C     0.41184   0.34748   0.99880   0.00000  Uiso   1.00
C18    C     0.30069   0.54458   0.92883   0.00000  Uiso   1.00
C19    C     0.21940   0.56831   0.95800   0.00000  Uiso   1.00
C20    C     0.18186   0.54612   0.92877   0.00000  Uiso   1.00
C21    C     0.42674   0.61595   0.90294   0.00000  Uiso   1.00
C22    C     0.45142   0.69969   0.91034   0.00000  Uiso   1.00
C23    C     0.51999   0.73760   0.85930   0.00000  Uiso   1.00
H24    H     0.46433   0.44625   0.80493   0.00000  Uiso   1.00
H25    H     0.49612   0.30748   0.84759   0.00000  Uiso   1.00
H26    H     0.33834   0.44377   0.79954   0.00000  Uiso   1.00
H27    H     0.57033   0.57513   0.75189   0.00000  Uiso   1.00
H28    H     0.51268   0.17315   0.91975   0.00000  Uiso   1.00
H29    H     0.18000   0.46055   0.81843   0.00000  Uiso   1.00
H30    H     0.66919   0.73755   0.71793   0.00000  Uiso   1.00
H31    H     0.32055   0.59682   0.99650   0.00000  Uiso   1.00
H32    H     0.34446   0.46631   0.04968   0.00000  Uiso   1.00
H33    H     0.18668   0.60260   0.00163   0.00000  Uiso   1.00
H34    H     0.41866   0.73395   0.95397   0.00000  Uiso   1.00
H35    H     0.38958   0.30206   0.08378   0.00000  Uiso   1.00
H36    H     0.05690   0.58947   0.98245   0.00000  Uiso   1.00
H37    H     0.54609   0.86646   0.88196   0.00000  Uiso   1.00
O38    O     0.46943   0.14902   0.03329   0.00000  Uiso   1.00
O39    O     0.03297   0.52610   0.90035   0.00000  Uiso   1.00
O40    O     0.67477   0.88950   0.76851   0.00000  Uiso   1.00
N41    N     0.48044   0.22141   0.95105   0.00000  Uiso   1.00
N42    N     0.16941   0.49010   0.85633   0.00000  Uiso   1.00
N43    N     0.62674   0.74908   0.76237   0.00000  Uiso   1.00
N44    N     0.41421   0.29078   0.03931   0.00000  Uiso   1.00
N45    N     0.10317   0.55946   0.94459   0.00000  Uiso   1.00
N46    N     0.56050   0.81844   0.85063   0.00000  Uiso   1.00
C47    C     0.93140   0.98075   0.84882   0.00000  Uiso   1.00
C48    C     0.92874   0.92623   0.89856   0.00000  Uiso   1.00
C49    C     0.96339   0.84175   0.89122   0.00000  Uiso   1.00
C50    C     0.95422   0.80309   0.94232   0.00000  Uiso   1.00
C51    C     0.95649   0.71169   0.01099   0.00000  Uiso   1.00
C52    C     0.84300   0.00027   0.87246   0.00000  Uiso   1.00
C53    C     0.80558   0.97805   0.84317   0.00000  Uiso   1.00
C54    C     0.72425   0.00173   0.87229   0.00000  Uiso   1.00
C55    C     0.59344   0.02533   0.90041   0.00000  Uiso   1.00
C56    C     0.96905   0.07163   0.84657   0.00000  Uiso   1.00
C57    C     0.03760   0.10944   0.79550   0.00000  Uiso   1.00
C58    C     0.06238   0.19321   0.80282   0.00000  Uiso   1.00
C59    C     0.12728   0.32761   0.79074   0.00000  Uiso   1.00
C60    C     0.85350   0.06232   0.95261   0.00000  Uiso   1.00
C61    C     0.88642   0.97054   0.95494   0.00000  Uiso   1.00
C62    C     0.87720   0.93201   0.00606   0.00000  Uiso   1.00
C63    C     0.91184   0.84748   0.99880   0.00000  Uiso   1.00
C64    C     0.80069   0.04458   0.92883   0.00000  Uiso   1.00
C65    C     0.71940   0.06831   0.95800   0.00000  Uiso   1.00
C66    C     0.68186   0.04612   0.92877   0.00000  Uiso   1.00
C67    C     0.92674   0.11595   0.90294   0.00000  Uiso   1.00
C68    C     0.95142   0.19969   0.91034   0.00000  Uiso   1.00
C69    C     0.01999   0.23760   0.85930   0.00000  Uiso   1.00
H70    H     0.96433   0.94625   0.80493   0.00000  Uiso   1.00
H71    H     0.99612   0.80748   0.84759   0.00000  Uiso   1.00
H72    H     0.83834   0.94377   0.79954   0.00000  Uiso   1.00
H73    H     0.07033   0.07513   0.75189   0.00000  Uiso   1.00
H74    H     0.01268   0.67315   0.91975   0.00000  Uiso   1.00
H75    H     0.68000   0.96055   0.81843   0.00000  Uiso   1.00
H76    H     0.16919   0.23755   0.71793   0.00000  Uiso   1.00
H77    H     0.82055   0.09682   0.99650   0.00000  Uiso   1.00
H78    H     0.84446   0.96631   0.04968   0.00000  Uiso   1.00
H79    H     0.68668   0.10260   0.00163   0.00000  Uiso   1.00
H80    H     0.91866   0.23395   0.95397   0.00000  Uiso   1.00
H81    H     0.88958   0.80206   0.08378   0.00000  Uiso   1.00
H82    H     0.55690   0.08947   0.98245   0.00000  Uiso   1.00
H83    H     0.04609   0.36646   0.88196   0.00000  Uiso   1.00
O84    O     0.96943   0.64902   0.03329   0.00000  Uiso   1.00
O85    O     0.53297   0.02610   0.90035   0.00000  Uiso   1.00
O86    O     0.17477   0.38950   0.76851   0.00000  Uiso   1.00
N87    N     0.98044   0.72141   0.95105   0.00000  Uiso   1.00
N88    N     0.66941   0.99010   0.85633   0.00000  Uiso   1.00
N89    N     0.12674   0.24908   0.76237   0.00000  Uiso   1.00
N90    N     0.91421   0.79078   0.03931   0.00000  Uiso   1.00
N91    N     0.60317   0.05946   0.94459   0.00000  Uiso   1.00
N92    N     0.06050   0.31844   0.85063   0.00000  Uiso   1.00
C93    C     0.56860   0.48075   0.65118   0.00000  Uiso   1.00
C94    C     0.57126   0.42623   0.60144   0.00000  Uiso   1.00
C95    C     0.53661   0.34175   0.60878   0.00000  Uiso   1.00
C96    C     0.54578   0.30309   0.55768   0.00000  Uiso   1.00
C97    C     0.54351   0.21169   0.48901   0.00000  Uiso   1.00
C98    C     0.65700   0.50027   0.62754   0.00000  Uiso   1.00
C99    C     0.69442   0.47805   0.65683   0.00000  Uiso   1.00
C100   C     0.77575   0.50173   0.62771   0.00000  Uiso   1.00
C101   C     0.90656   0.52533   0.59959   0.00000  Uiso   1.00
C102   C     0.53095   0.57163   0.65343   0.00000  Uiso   1.00
C103   C     0.46240   0.60944   0.70450   0.00000  Uiso   1.00
C104   C     0.43762   0.69321   0.69718   0.00000  Uiso   1.00
C105   C     0.37272   0.82761   0.70926   0.00000  Uiso   1.00
C106   C     0.64650   0.56232   0.54739   0.00000  Uiso   1.00
C107   C     0.61358   0.47054   0.54506   0.00000  Uiso   1.00
C108   C     0.62280   0.43201   0.49394   0.00000  Uiso   1.00
C109   C     0.58816   0.34748   0.50120   0.00000  Uiso   1.00
C110   C     0.69931   0.54458   0.57117   0.00000  Uiso   1.00
C111   C     0.78060   0.56831   0.54200   0.00000  Uiso   1.00
C112   C     0.81814   0.54612   0.57123   0.00000  Uiso   1.00
C113   C     0.57326   0.61595   0.59706   0.00000  Uiso   1.00
C114   C     0.54858   0.69969   0.58966   0.00000  Uiso   1.00
C115   C     0.48001   0.73760   0.64070   0.00000  Uiso   1.00
H116   H     0.53567   0.44625   0.69507   0.00000  Uiso   1.00
H117   H     0.50388   0.30748   0.65241   0.00000  Uiso   1.00
H118   H     0.66166   0.44377   0.70046   0.00000  Uiso   1.00
H119   H     0.42967   0.57513   0.74811   0.00000  Uiso   1.00
H120   H     0.48732   0.17315   0.58025   0.00000  Uiso   1.00
H121   H     0.82000   0.46055   0.68157   0.00000  Uiso   1.00
H122   H     0.33081   0.73755   0.78207   0.00000  Uiso   1.00
H123   H     0.67945   0.59682   0.50350   0.00000  Uiso   1.00
H124   H     0.65554   0.46631   0.45032   0.00000  Uiso   1.00
H125   H     0.81332   0.60260   0.49837   0.00000  Uiso   1.00
H126   H     0.58134   0.73395   0.54603   0.00000  Uiso   1.00
H127   H     0.61042   0.30206   0.41622   0.00000  Uiso   1.00
H128   H     0.94310   0.58947   0.51755   0.00000  Uiso   1.00
H129   H     0.45391   0.86646   0.61804   0.00000  Uiso   1.00
O130   O     0.53057   0.14902   0.46671   0.00000  Uiso   1.00
O131   O     0.96703   0.52610   0.59965   0.00000  Uiso   1.00
O132   O     0.32523   0.88950   0.73149   0.00000  Uiso   1.00
N133   N     0.51956   0.22141   0.54895   0.00000  Uiso   1.00
N134   N     0.83059   0.49010   0.64367   0.00000  Uiso   1.00
N135   N     0.37326   0.74908   0.73763   0.00000  Uiso   1.00
N136   N     0.58579   0.29078   0.46069   0.00000  Uiso   1.00
N137   N     0.89683   0.55946   0.55541   0.00000  Uiso   1.00
N138   N     0.43950   0.81844   0.64937   0.00000  Uiso   1.00
C139   C     0.06860   0.98075   0.65118   0.00000  Uiso   1.00
C140   C     0.07126   0.92623   0.60144   0.00000  Uiso   1.00
C141   C     0.03661   0.84175   0.60878   0.00000  Uiso   1.00
C142   C     0.04578   0.80309   0.55768   0.00000  Uiso   1.00
C143   C     0.04351   0.71169   0.48901   0.00000  Uiso   1.00
C144   C     0.15700   0.00027   0.62754   0.00000  Uiso   1.00
C145   C     0.19442   0.97805   0.65683   0.00000  Uiso   1.00
C146   C     0.27575   0.00173   0.62771   0.00000  Uiso   1.00
C147   C     0.40656   0.02533   0.59959   0.00000  Uiso   1.00
C148   C     0.03095   0.07163   0.65343   0.00000  Uiso   1.00
C149   C     0.96240   0.10944   0.70450   0.00000  Uiso   1.00
C150   C     0.93762   0.19321   0.69718   0.00000  Uiso   1.00
C151   C     0.87272   0.32761   0.70926   0.00000  Uiso   1.00
C152   C     0.14650   0.06232   0.54739   0.00000  Uiso   1.00
C153   C     0.11358   0.97054   0.54506   0.00000  Uiso   1.00
C154   C     0.12280   0.93201   0.49394   0.00000  Uiso   1.00
C155   C     0.08816   0.84748   0.50120   0.00000  Uiso   1.00
C156   C     0.19931   0.04458   0.57117   0.00000  Uiso   1.00
C157   C     0.28060   0.06831   0.54200   0.00000  Uiso   1.00
C158   C     0.31814   0.04612   0.57123   0.00000  Uiso   1.00
C159   C     0.07326   0.11595   0.59706   0.00000  Uiso   1.00
C160   C     0.04858   0.19969   0.58966   0.00000  Uiso   1.00
C161   C     0.98001   0.23760   0.64070   0.00000  Uiso   1.00
H162   H     0.03567   0.94625   0.69507   0.00000  Uiso   1.00
H163   H     0.00388   0.80748   0.65241   0.00000  Uiso   1.00
H164   H     0.16166   0.94377   0.70046   0.00000  Uiso   1.00
H165   H     0.92967   0.07513   0.74811   0.00000  Uiso   1.00
H166   H     0.98732   0.67315   0.58025   0.00000  Uiso   1.00
H167   H     0.32000   0.96055   0.68157   0.00000  Uiso   1.00
H168   H     0.83081   0.23755   0.78207   0.00000  Uiso   1.00
H169   H     0.17945   0.09682   0.50350   0.00000  Uiso   1.00
H170   H     0.15554   0.96631   0.45032   0.00000  Uiso   1.00
H171   H     0.31332   0.10260   0.49837   0.00000  Uiso   1.00
H172   H     0.08134   0.23395   0.54603   0.00000  Uiso   1.00
H173   H     0.11042   0.80206   0.41622   0.00000  Uiso   1.00
H174   H     0.44310   0.08947   0.51755   0.00000  Uiso   1.00
H175   H     0.95391   0.36646   0.61804   0.00000  Uiso   1.00
O176   O     0.03057   0.64902   0.46671   0.00000  Uiso   1.00
O177   O     0.46703   0.02610   0.59965   0.00000  Uiso   1.00
O178   O     0.82523   0.38950   0.73149   0.00000  Uiso   1.00
N179   N     0.01956   0.72141   0.54895   0.00000  Uiso   1.00
N180   N     0.33059   0.99010   0.64367   0.00000  Uiso   1.00
N181   N     0.87326   0.24908   0.73763   0.00000  Uiso   1.00
N182   N     0.08579   0.79078   0.46069   0.00000  Uiso   1.00
N183   N     0.39683   0.05946   0.55541   0.00000  Uiso   1.00
N184   N     0.93950   0.31844   0.64937   0.00000  Uiso   1.00
C185   C     0.56860   0.51925   0.15118   0.00000  Uiso   1.00
C186   C     0.57126   0.57377   0.10144   0.00000  Uiso   1.00
C187   C     0.53661   0.65825   0.10878   0.00000  Uiso   1.00
C188   C     0.54578   0.69691   0.05768   0.00000  Uiso   1.00
C189   C     0.54351   0.78831   0.98901   0.00000  Uiso   1.00
C190   C     0.65700   0.49973   0.12754   0.00000  Uiso   1.00
C191   C     0.69442   0.52195   0.15683   0.00000  Uiso   1.00
C192   C     0.77575   0.49827   0.12771   0.00000  Uiso   1.00
C193   C     0.90656   0.47467   0.09959   0.00000  Uiso   1.00
C194   C     0.53095   0.42837   0.15343   0.00000  Uiso   1.00
C195   C     0.46240   0.39056   0.20450   0.00000  Uiso   1.00
C196   C     0.43762   0.30679   0.19718   0.00000  Uiso   1.00
C197   C     0.37272   0.17239   0.20926   0.00000  Uiso   1.00
C198   C     0.64650   0.43768   0.04739   0.00000  Uiso   1.00
C199   C     0.61358   0.52946   0.04506   0.00000  Uiso   1.00
C200   C     0.62280   0.56799   0.99394   0.00000  Uiso   1.00
C201   C     0.58816   0.65252   0.00120   0.00000  Uiso   1.00
C202   C     0.69931   0.45542   0.07117   0.00000  Uiso   1.00
C203   C     0.78060   0.43169   0.04200   0.00000  Uiso   1.00
C204   C     0.81814   0.45388   0.07123   0.00000  Uiso   1.00
C205   C     0.57326   0.38405   0.09706   0.00000  Uiso   1.00
C206   C     0.54858   0.30031   0.08966   0.00000  Uiso   1.00
C207   C     0.48001   0.26240   0.14070   0.00000  Uiso   1.00
H208   H     0.53567   0.55375   0.19507   0.00000  Uiso   1.00
H209   H     0.50388   0.69252   0.15241   0.00000  Uiso   1.00
H210   H     0.66166   0.55623   0.20046   0.00000  Uiso   1.00
H211   H     0.42967   0.42487   0.24811   0.00000  Uiso   1.00
H212   H     0.48732   0.82685   0.08025   0.00000  Uiso   1.00
H213   H     0.82000   0.53945   0.18157   0.00000  Uiso   1.00
H214   H     0.33081   0.26245   0.28207   0.00000  Uiso   1.00
H215   H     0.67945   0.40318   0.00350   0.00000  Uiso   1.00
H216   H     0.65554   0.53369   0.95032   0.00000  Uiso   1.00
H217   H     0.81332   0.39740   0.99837   0.00000  Uiso   1.00
H218   H     0.58134   0.26605   0.04603   0.00000  Uiso   1.00
H219   H     0.61042   0.69794   0.91622   0.00000  Uiso   1.00
H220   H     0.94310   0.41053   0.01755   0.00000  Uiso   1.00
H221   H     0.45391   0.13354   0.11804   0.00000  Uiso   1.00
O222   O     0.53057   0.85098   0.96671   0.00000  Uiso   1.00
O223   O     0.96703   0.47390   0.09965   0.00000  Uiso   1.00
O224   O     0.32523   0.11050   0.23149   0.00000  Uiso   1.00
N225   N     0.51956   0.77859   0.04895   0.00000  Uiso   1.00
N226   N     0.83059   0.50990   0.14367   0.00000  Uiso   1.00
N227   N     0.37326   0.25092   0.23763   0.00000  Uiso   1.00
N228   N     0.58579   0.70922   0.96069   0.00000  Uiso   1.00
N229   N     0.89683   0.44054   0.05541   0.00000  Uiso   1.00
N230   N     0.43950   0.18156   0.14937   0.00000  Uiso   1.00
C231   C     0.06860   0.01925   0.15118   0.00000  Uiso   1.00
C232   C     0.07126   0.07377   0.10144   0.00000  Uiso   1.00
C233   C     0.03661   0.15825   0.10878   0.00000  Uiso   1.00
C234   C     0.04578   0.19691   0.05768   0.00000  Uiso   1.00
C235   C     0.04351   0.28831   0.98901   0.00000  Uiso   1.00
C236   C     0.15700   0.99973   0.12754   0.00000  Uiso   1.00
C237   C     0.19442   0.02195   0.15683   0.00000  Uiso   1.00
C238   C     0.27575   0.99827   0.12771   0.00000  Uiso   1.00
C239   C     0.40656   0.97467   0.09959   0.00000  Uiso   1.00
C240   C     0.03095   0.92837   0.15343   0.00000  Uiso   1.00
C241   C     0.96240   0.89056   0.20450   0.00000  Uiso   1.00
C242   C     0.93762   0.80679   0.19718   0.00000  Uiso   1.00
C243   C     0.87272   0.67239   0.20926   0.00000  Uiso   1.00
C244   C     0.14650   0.93768   0.04739   0.00000  Uiso   1.00
C245   C     0.11358   0.02946   0.04506   0.00000  Uiso   1.00
C246   C     0.12280   0.06799   0.99394   0.00000  Uiso   1.00
C247   C     0.08816   0.15252   0.00120   0.00000  Uiso   1.00
C248   C     0.19931   0.95542   0.07117   0.00000  Uiso   1.00
C249   C     0.28060   0.93169   0.04200   0.00000  Uiso   1.00
C250   C     0.31814   0.95388   0.07123   0.00000  Uiso   1.00
C251   C     0.07326   0.88405   0.09706   0.00000  Uiso   1.00
C252   C     0.04858   0.80031   0.08966   0.00000  Uiso   1.00
C253   C     0.98001   0.76240   0.14070   0.00000  Uiso   1.00
H254   H     0.03567   0.05375   0.19507   0.00000  Uiso   1.00
H255   H     0.00388   0.19252   0.15241   0.00000  Uiso   1.00
H256   H     0.16166   0.05623   0.20046   0.00000  Uiso   1.00
H257   H     0.92967   0.92487   0.24811   0.00000  Uiso   1.00
H258   H     0.98732   0.32685   0.08025   0.00000  Uiso   1.00
H259   H     0.32000   0.03945   0.18157   0.00000  Uiso   1.00
H260   H     0.83081   0.76245   0.28207   0.00000  Uiso   1.00
H261   H     0.17945   0.90318   0.00350   0.00000  Uiso   1.00
H262   H     0.15554   0.03369   0.95032   0.00000  Uiso   1.00
H263   H     0.31332   0.89740   0.99837   0.00000  Uiso   1.00
H264   H     0.08134   0.76605   0.04603   0.00000  Uiso   1.00
H265   H     0.11042   0.19794   0.91622   0.00000  Uiso   1.00
H266   H     0.44310   0.91053   0.01755   0.00000  Uiso   1.00
H267   H     0.95391   0.63354   0.11804   0.00000  Uiso   1.00
O268   O     0.03057   0.35098   0.96671   0.00000  Uiso   1.00
O269   O     0.46703   0.97390   0.09965   0.00000  Uiso   1.00
O270   O     0.82523   0.61050   0.23149   0.00000  Uiso   1.00
N271   N     0.01956   0.27859   0.04895   0.00000  Uiso   1.00
N272   N     0.33059   0.00990   0.14367   0.00000  Uiso   1.00
N273   N     0.87326   0.75092   0.23763   0.00000  Uiso   1.00
N274   N     0.08579   0.20922   0.96069   0.00000  Uiso   1.00
N275   N     0.39683   0.94054   0.05541   0.00000  Uiso   1.00
N276   N     0.93950   0.68156   0.14937   0.00000  Uiso   1.00
C277   C     0.43140   0.51925   0.34882   0.00000  Uiso   1.00
C278   C     0.42874   0.57377   0.39856   0.00000  Uiso   1.00
C279   C     0.46339   0.65825   0.39122   0.00000  Uiso   1.00
C280   C     0.45422   0.69691   0.44232   0.00000  Uiso   1.00
C281   C     0.45649   0.78831   0.51099   0.00000  Uiso   1.00
C282   C     0.34300   0.49973   0.37246   0.00000  Uiso   1.00
C283   C     0.30558   0.52195   0.34317   0.00000  Uiso   1.00
C284   C     0.22425   0.49827   0.37229   0.00000  Uiso   1.00
C285   C     0.09344   0.47467   0.40041   0.00000  Uiso   1.00
C286   C     0.46905   0.42837   0.34657   0.00000  Uiso   1.00
C287   C     0.53760   0.39056   0.29550   0.00000  Uiso   1.00
C288   C     0.56238   0.30679   0.30282   0.00000  Uiso   1.00
C289   C     0.62728   0.17239   0.29074   0.00000  Uiso   1.00
C290   C     0.35350   0.43768   0.45261   0.00000  Uiso   1.00
C291   C     0.38642   0.52946   0.45494   0.00000  Uiso   1.00
C292   C     0.37720   0.56799   0.50606   0.00000  Uiso   1.00
C293   C     0.41184   0.65252   0.49880   0.00000  Uiso   1.00
C294   C     0.30069   0.45542   0.42883   0.00000  Uiso   1.00
C295   C     0.21940   0.43169   0.45800   0.00000  Uiso   1.00
C296   C     0.18186   0.45388   0.42877   0.00000  Uiso   1.00
C297   C     0.42674   0.38405   0.40294   0.00000  Uiso   1.00
C298   C     0.45142   0.30031   0.41034   0.00000  Uiso   1.00
C299   C     0.51999   0.26240   0.35930   0.00000  Uiso   1.00
H300   H     0.46433   0.55375   0.30493   0.00000  Uiso   1.00
H301   H     0.49612   0.69252   0.34759   0.00000  Uiso   1.00
H302   H     0.33834   0.55623   0.29954   0.00000  Uiso   1.00
H303   H     0.57033   0.42487   0.25189   0.00000  Uiso   1.00
H304   H     0.51268   0.82685   0.41975   0.00000  Uiso   1.00
H305   H     0.18000   0.53945   0.31843   0.00000  Uiso   1.00
H306   H     0.66919   0.26245   0.21793   0.00000  Uiso   1.00
H307   H     0.32055   0.40318   0.49650   0.00000  Uiso   1.00
H308   H     0.34446   0.53369   0.54968   0.00000  Uiso   1.00
H309   H     0.18668   0.39740   0.50163   0.00000  Uiso   1.00
H310   H     0.41866   0.26605   0.45397   0.00000  Uiso   1.00
H311   H     0.38958   0.69794   0.58378   0.00000  Uiso   1.00
H312   H     0.05690   0.41053   0.48245   0.00000  Uiso   1.00
H313   H     0.54609   0.13354   0.38196   0.00000  Uiso   1.00
O314   O     0.46943   0.85098   0.53329   0.00000  Uiso   1.00
O315   O     0.03297   0.47390   0.40035   0.00000  Uiso   1.00
O316   O     0.67477   0.11050   0.26851   0.00000  Uiso   1.00
N317   N     0.48044   0.77859   0.45105   0.00000  Uiso   1.00
N318   N     0.16941   0.50990   0.35633   0.00000  Uiso   1.00
N319   N     0.62674   0.25092   0.26237   0.00000  Uiso   1.00
N320   N     0.41421   0.70922   0.53931   0.00000  Uiso   1.00
N321   N     0.10317   0.44054   0.44459   0.00000  Uiso   1.00
N322   N     0.56050   0.18156   0.35063   0.00000  Uiso   1.00
C323   C     0.93140   0.01925   0.34882   0.00000  Uiso   1.00
C324   C     0.92874   0.07377   0.39856   0.00000  Uiso   1.00
C325   C     0.96339   0.15825   0.39122   0.00000  Uiso   1.00
C326   C     0.95422   0.19691   0.44232   0.00000  Uiso   1.00
C327   C     0.95649   0.28831   0.51099   0.00000  Uiso   1.00
C328   C     0.84300   0.99973   0.37246   0.00000  Uiso   1.00
C329   C     0.80558   0.02195   0.34317   0.00000  Uiso   1.00
C330   C     0.72425   0.99827   0.37229   0.00000  Uiso   1.00
C331   C     0.59344   0.97467   0.40041   0.00000  Uiso   1.00
C332   C     0.96905   0.92837   0.34657   0.00000  Uiso   1.00
C333   C     0.03760   0.89056   0.29550   0.00000  Uiso   1.00
C334   C     0.06238   0.80679   0.30282   0.00000  Uiso   1.00
C335   C     0.12728   0.67239   0.29074   0.00000  Uiso   1.00
C336   C     0.85350   0.93768   0.45261   0.00000  Uiso   1.00
C337   C     0.88642   0.02946   0.45494   0.00000  Uiso   1.00
C338   C     0.87720   0.06799   0.50606   0.00000  Uiso   1.00
C339   C     0.91184   0.15252   0.49880   0.00000  Uiso   1.00
C340   C     0.80069   0.95542   0.42883   0.00000  Uiso   1.00
C341   C     0.71940   0.93169   0.45800   0.00000  Uiso   1.00
C342   C     0.68186   0.95388   0.42877   0.00000  Uiso   1.00
C343   C     0.92674   0.88405   0.40294   0.00000  Uiso   1.00
C344   C     0.95142   0.80031   0.41034   0.00000  Uiso   1.00
C345   C     0.01999   0.76240   0.35930   0.00000  Uiso   1.00
H346   H     0.96433   0.05375   0.30493   0.00000  Uiso   1.00
H347   H     0.99612   0.19252   0.34759   0.00000  Uiso   1.00
H348   H     0.83834   0.05623   0.29954   0.00000  Uiso   1.00
H349   H     0.07033   0.92487   0.25189   0.00000  Uiso   1.00
H350   H     0.01268   0.32685   0.41975   0.00000  Uiso   1.00
H351   H     0.68000   0.03945   0.31843   0.00000  Uiso   1.00
H352   H     0.16919   0.76245   0.21793   0.00000  Uiso   1.00
H353   H     0.82055   0.90318   0.49650   0.00000  Uiso   1.00
H354   H     0.84446   0.03369   0.54968   0.00000  Uiso   1.00
H355   H     0.68668   0.89740   0.50163   0.00000  Uiso   1.00
H356   H     0.91866   0.76605   0.45397   0.00000  Uiso   1.00
H357   H     0.88958   0.19794   0.58378   0.00000  Uiso   1.00
H358   H     0.55690   0.91053   0.48245   0.00000  Uiso   1.00
H359   H     0.04609   0.63354   0.38196   0.00000  Uiso   1.00
O360   O     0.96943   0.35098   0.53329   0.00000  Uiso   1.00
O361   O     0.53297   0.97390   0.40035   0.00000  Uiso   1.00
O362   O     0.17477   0.61050   0.26851   0.00000  Uiso   1.00
N363   N     0.98044   0.27859   0.45105   0.00000  Uiso   1.00
N364   N     0.66941   0.00990   0.35633   0.00000  Uiso   1.00
N365   N     0.12674   0.75092   0.26237   0.00000  Uiso   1.00
N366   N     0.91421   0.20922   0.53931   0.00000  Uiso   1.00
N367   N     0.60317   0.94054   0.44459   0.00000  Uiso   1.00
N368   N     0.06050   0.68156   0.35063   0.00000  Uiso   1.00
