data_job_00836
_audit_creation_date              2018-12-19
_audit_creation_method            'Materials Studio'
_symmetry_space_group_name_H-M    'P1'
_symmetry_Int_Tables_number       1
_symmetry_cell_setting            triclinic
loop_
_symmetry_equiv_pos_as_xyz
  x,y,z
_cell_length_a                    13.3601
_cell_length_b                    13.3601
_cell_length_c                    25.7012
_cell_angle_alpha                 90.0000
_cell_angle_beta                  90.0000
_cell_angle_gamma                 90.0000
loop_
_atom_site_label
_atom_site_type_symbol
_atom_site_fract_x
_atom_site_fract_y
_atom_site_fract_z
_atom_site_U_iso_or_equiv
_atom_site_adp_type
_atom_site_occupancy
C1     C     0.83042   0.95388   0.13689   0.00000  Uiso   1.00
C2     C     0.82462   0.03522   0.09537   0.00000  Uiso   1.00
C3     C     0.90573   0.08038   0.07115   0.00000  Uiso   1.00
C4     C     0.88472   0.15324   0.03421   0.00000  Uiso   1.00
C5     C     0.89071   0.27553   0.97163   0.00000  Uiso   1.00
C6     C     0.77288   0.99395   0.18370   0.00000  Uiso   1.00
C7     C     0.81049   0.00439   0.23375   0.00000  Uiso   1.00
C8     C     0.74592   0.04249   0.27116   0.00000  Uiso   1.00
C9     C     0.67157   0.10064   0.34572   0.00000  Uiso   1.00
C10    C     0.76936   0.86609   0.11614   0.00000  Uiso   1.00
C11    C     0.80400   0.76902   0.10939   0.00000  Uiso   1.00
C12    C     0.73646   0.69947   0.08994   0.00000  Uiso   1.00
C13    C     0.65663   0.55909   0.05960   0.00000  Uiso   1.00
C14    C     0.64888   0.00295   0.11435   0.00000  Uiso   1.00
C15    C     0.72601   0.06188   0.08314   0.00000  Uiso   1.00
C16    C     0.70488   0.13468   0.04622   0.00000  Uiso   1.00
C17    C     0.78594   0.17994   0.02194   0.00000  Uiso   1.00
C18    C     0.67428   0.02060   0.17146   0.00000  Uiso   1.00
C19    C     0.60964   0.05869   0.20881   0.00000  Uiso   1.00
C20    C     0.64714   0.06919   0.25890   0.00000  Uiso   1.00
C21    C     0.67075   0.89274   0.10390   0.00000  Uiso   1.00
C22    C     0.60315   0.82332   0.08446   0.00000  Uiso   1.00
C23    C     0.63767   0.72617   0.07768   0.00000  Uiso   1.00
H24    H     0.90719   0.93313   0.14642   0.00000  Uiso   1.00
H25    H     0.98202   0.05974   0.08064   0.00000  Uiso   1.00
H26    H     0.88679   0.98375   0.24321   0.00000  Uiso   1.00
H27    H     0.88030   0.74843   0.11887   0.00000  Uiso   1.00
H28    H     0.02151   0.21190   0.00232   0.00000  Uiso   1.00
H29    H     0.82071   0.05164   0.34511   0.00000  Uiso   1.00
H30    H     0.80702   0.55540   0.08293   0.00000  Uiso   1.00
H31    H     0.57211   0.02370   0.10482   0.00000  Uiso   1.00
H32    H     0.62856   0.15529   0.03675   0.00000  Uiso   1.00
H33    H     0.53334   0.07930   0.19933   0.00000  Uiso   1.00
H34    H     0.52685   0.84397   0.07499   0.00000  Uiso   1.00
H35    H     0.73463   0.28945   0.96671   0.00000  Uiso   1.00
H36    H     0.53383   0.12919   0.30950   0.00000  Uiso   1.00
H37    H     0.52014   0.63295   0.04731   0.00000  Uiso   1.00
O38    O     0.92125   0.33563   0.94050   0.00000  Uiso   1.00
O39    O     0.65780   0.12535   0.39023   0.00000  Uiso   1.00
O40    O     0.63985   0.47431   0.04625   0.00000  Uiso   1.00
N41    N     0.94625   0.21208   0.00327   0.00000  Uiso   1.00
N42    N     0.75851   0.06226   0.32376   0.00000  Uiso   1.00
N43    N     0.74571   0.59831   0.07865   0.00000  Uiso   1.00
N44    N     0.79188   0.25381   0.98411   0.00000  Uiso   1.00
N45    N     0.60415   0.10399   0.30460   0.00000  Uiso   1.00
N46    N     0.59134   0.64004   0.05949   0.00000  Uiso   1.00
C47    C     0.16958   0.04612   0.63689   0.00000  Uiso   1.00
C48    C     0.17538   0.96478   0.59537   0.00000  Uiso   1.00
C49    C     0.09427   0.91962   0.57115   0.00000  Uiso   1.00
C50    C     0.11528   0.84676   0.53421   0.00000  Uiso   1.00
C51    C     0.10929   0.72447   0.47163   0.00000  Uiso   1.00
C52    C     0.22712   0.00605   0.68370   0.00000  Uiso   1.00
C53    C     0.18951   0.99561   0.73375   0.00000  Uiso   1.00
C54    C     0.25408   0.95751   0.77116   0.00000  Uiso   1.00
C55    C     0.32843   0.89936   0.84572   0.00000  Uiso   1.00
C56    C     0.23064   0.13391   0.61614   0.00000  Uiso   1.00
C57    C     0.19600   0.23098   0.60939   0.00000  Uiso   1.00
C58    C     0.26354   0.30053   0.58994   0.00000  Uiso   1.00
C59    C     0.34337   0.44091   0.55960   0.00000  Uiso   1.00
C60    C     0.35112   0.99705   0.61435   0.00000  Uiso   1.00
C61    C     0.27399   0.93812   0.58314   0.00000  Uiso   1.00
C62    C     0.29512   0.86532   0.54622   0.00000  Uiso   1.00
C63    C     0.21406   0.82006   0.52194   0.00000  Uiso   1.00
C64    C     0.32572   0.97940   0.67146   0.00000  Uiso   1.00
C65    C     0.39036   0.94131   0.70881   0.00000  Uiso   1.00
C66    C     0.35286   0.93081   0.75890   0.00000  Uiso   1.00
C67    C     0.32925   0.10726   0.60390   0.00000  Uiso   1.00
C68    C     0.39685   0.17668   0.58446   0.00000  Uiso   1.00
C69    C     0.36233   0.27383   0.57768   0.00000  Uiso   1.00
H70    H     0.09281   0.06687   0.64642   0.00000  Uiso   1.00
H71    H     0.01798   0.94026   0.58064   0.00000  Uiso   1.00
H72    H     0.11321   0.01625   0.74321   0.00000  Uiso   1.00
H73    H     0.11970   0.25157   0.61887   0.00000  Uiso   1.00
H74    H     0.97849   0.78810   0.50232   0.00000  Uiso   1.00
H75    H     0.17929   0.94836   0.84511   0.00000  Uiso   1.00
H76    H     0.19298   0.44460   0.58293   0.00000  Uiso   1.00
H77    H     0.42789   0.97630   0.60482   0.00000  Uiso   1.00
H78    H     0.37144   0.84471   0.53675   0.00000  Uiso   1.00
H79    H     0.46666   0.92070   0.69933   0.00000  Uiso   1.00
H80    H     0.47315   0.15603   0.57499   0.00000  Uiso   1.00
H81    H     0.26537   0.71055   0.46671   0.00000  Uiso   1.00
H82    H     0.46617   0.87081   0.80950   0.00000  Uiso   1.00
H83    H     0.47986   0.36705   0.54731   0.00000  Uiso   1.00
O84    O     0.07875   0.66437   0.44050   0.00000  Uiso   1.00
O85    O     0.34220   0.87465   0.89023   0.00000  Uiso   1.00
O86    O     0.36015   0.52569   0.54625   0.00000  Uiso   1.00
N87    N     0.05375   0.78792   0.50327   0.00000  Uiso   1.00
N88    N     0.24149   0.93774   0.82376   0.00000  Uiso   1.00
N89    N     0.25429   0.40169   0.57865   0.00000  Uiso   1.00
N90    N     0.20812   0.74619   0.48411   0.00000  Uiso   1.00
N91    N     0.39585   0.89601   0.80460   0.00000  Uiso   1.00
N92    N     0.40866   0.35996   0.55949   0.00000  Uiso   1.00
C93    C     0.54612   0.33042   0.88689   0.00000  Uiso   1.00
C94    C     0.46478   0.32462   0.84537   0.00000  Uiso   1.00
C95    C     0.41962   0.40573   0.82115   0.00000  Uiso   1.00
C96    C     0.34676   0.38472   0.78421   0.00000  Uiso   1.00
C97    C     0.22447   0.39071   0.72163   0.00000  Uiso   1.00
C98    C     0.50605   0.27288   0.93370   0.00000  Uiso   1.00
C99    C     0.49561   0.31049   0.98375   0.00000  Uiso   1.00
C100   C     0.45751   0.24592   0.02116   0.00000  Uiso   1.00
C101   C     0.39936   0.17157   0.09572   0.00000  Uiso   1.00
C102   C     0.63391   0.26936   0.86614   0.00000  Uiso   1.00
C103   C     0.73098   0.30400   0.85939   0.00000  Uiso   1.00
C104   C     0.80053   0.23646   0.83994   0.00000  Uiso   1.00
C105   C     0.94091   0.15663   0.80960   0.00000  Uiso   1.00
C106   C     0.49705   0.14888   0.86435   0.00000  Uiso   1.00
C107   C     0.43812   0.22601   0.83314   0.00000  Uiso   1.00
C108   C     0.36532   0.20488   0.79622   0.00000  Uiso   1.00
C109   C     0.32006   0.28594   0.77194   0.00000  Uiso   1.00
C110   C     0.47940   0.17428   0.92146   0.00000  Uiso   1.00
C111   C     0.44131   0.10964   0.95881   0.00000  Uiso   1.00
C112   C     0.43081   0.14714   0.00890   0.00000  Uiso   1.00
C113   C     0.60726   0.17075   0.85390   0.00000  Uiso   1.00
C114   C     0.67668   0.10315   0.83446   0.00000  Uiso   1.00
C115   C     0.77383   0.13767   0.82768   0.00000  Uiso   1.00
H116   H     0.56687   0.40719   0.89642   0.00000  Uiso   1.00
H117   H     0.44026   0.48202   0.83064   0.00000  Uiso   1.00
H118   H     0.51625   0.38679   0.99321   0.00000  Uiso   1.00
H119   H     0.75157   0.38030   0.86887   0.00000  Uiso   1.00
H120   H     0.28810   0.52151   0.75232   0.00000  Uiso   1.00
H121   H     0.44836   0.32071   0.09511   0.00000  Uiso   1.00
H122   H     0.94460   0.30702   0.83293   0.00000  Uiso   1.00
H123   H     0.47630   0.07211   0.85482   0.00000  Uiso   1.00
H124   H     0.34471   0.12856   0.78675   0.00000  Uiso   1.00
H125   H     0.42070   0.03334   0.94933   0.00000  Uiso   1.00
H126   H     0.65603   0.02685   0.82499   0.00000  Uiso   1.00
H127   H     0.21055   0.23463   0.71671   0.00000  Uiso   1.00
H128   H     0.37081   0.03383   0.05950   0.00000  Uiso   1.00
H129   H     0.86705   0.02014   0.79731   0.00000  Uiso   1.00
O130   O     0.16437   0.42125   0.69050   0.00000  Uiso   1.00
O131   O     0.37465   0.15780   0.14023   0.00000  Uiso   1.00
O132   O     0.02569   0.13985   0.79625   0.00000  Uiso   1.00
N133   N     0.28792   0.44625   0.75327   0.00000  Uiso   1.00
N134   N     0.43774   0.25851   0.07376   0.00000  Uiso   1.00
N135   N     0.90169   0.24571   0.82865   0.00000  Uiso   1.00
N136   N     0.24619   0.29188   0.73411   0.00000  Uiso   1.00
N137   N     0.39601   0.10415   0.05460   0.00000  Uiso   1.00
N138   N     0.85996   0.09134   0.80949   0.00000  Uiso   1.00
C139   C     0.45388   0.66958   0.38689   0.00000  Uiso   1.00
C140   C     0.53522   0.67538   0.34537   0.00000  Uiso   1.00
C141   C     0.58038   0.59427   0.32115   0.00000  Uiso   1.00
C142   C     0.65324   0.61528   0.28421   0.00000  Uiso   1.00
C143   C     0.77553   0.60929   0.22163   0.00000  Uiso   1.00
C144   C     0.49395   0.72712   0.43370   0.00000  Uiso   1.00
C145   C     0.50439   0.68951   0.48375   0.00000  Uiso   1.00
C146   C     0.54249   0.75408   0.52116   0.00000  Uiso   1.00
C147   C     0.60064   0.82843   0.59572   0.00000  Uiso   1.00
C148   C     0.36609   0.73064   0.36614   0.00000  Uiso   1.00
C149   C     0.26902   0.69600   0.35939   0.00000  Uiso   1.00
C150   C     0.19947   0.76354   0.33994   0.00000  Uiso   1.00
C151   C     0.05909   0.84337   0.30960   0.00000  Uiso   1.00
C152   C     0.50295   0.85112   0.36435   0.00000  Uiso   1.00
C153   C     0.56188   0.77399   0.33314   0.00000  Uiso   1.00
C154   C     0.63468   0.79512   0.29622   0.00000  Uiso   1.00
C155   C     0.67994   0.71406   0.27194   0.00000  Uiso   1.00
C156   C     0.52060   0.82572   0.42146   0.00000  Uiso   1.00
C157   C     0.55869   0.89036   0.45881   0.00000  Uiso   1.00
C158   C     0.56919   0.85286   0.50890   0.00000  Uiso   1.00
C159   C     0.39274   0.82925   0.35390   0.00000  Uiso   1.00
C160   C     0.32332   0.89685   0.33446   0.00000  Uiso   1.00
C161   C     0.22617   0.86233   0.32768   0.00000  Uiso   1.00
H162   H     0.43313   0.59281   0.39642   0.00000  Uiso   1.00
H163   H     0.55974   0.51798   0.33064   0.00000  Uiso   1.00
H164   H     0.48375   0.61321   0.49321   0.00000  Uiso   1.00
H165   H     0.24843   0.61970   0.36887   0.00000  Uiso   1.00
H166   H     0.71190   0.47849   0.25232   0.00000  Uiso   1.00
H167   H     0.55164   0.67929   0.59511   0.00000  Uiso   1.00
H168   H     0.05540   0.69298   0.33293   0.00000  Uiso   1.00
H169   H     0.52370   0.92789   0.35482   0.00000  Uiso   1.00
H170   H     0.65529   0.87144   0.28675   0.00000  Uiso   1.00
H171   H     0.57930   0.96666   0.44933   0.00000  Uiso   1.00
H172   H     0.34397   0.97315   0.32499   0.00000  Uiso   1.00
H173   H     0.78945   0.76537   0.21671   0.00000  Uiso   1.00
H174   H     0.62919   0.96617   0.55950   0.00000  Uiso   1.00
H175   H     0.13295   0.97986   0.29731   0.00000  Uiso   1.00
O176   O     0.83563   0.57875   0.19050   0.00000  Uiso   1.00
O177   O     0.62535   0.84220   0.64023   0.00000  Uiso   1.00
O178   O     0.97431   0.86015   0.29625   0.00000  Uiso   1.00
N179   N     0.71208   0.55375   0.25327   0.00000  Uiso   1.00
N180   N     0.56226   0.74149   0.57376   0.00000  Uiso   1.00
N181   N     0.09831   0.75429   0.32865   0.00000  Uiso   1.00
N182   N     0.75381   0.70812   0.23411   0.00000  Uiso   1.00
N183   N     0.60399   0.89585   0.55460   0.00000  Uiso   1.00
N184   N     0.14004   0.90866   0.30949   0.00000  Uiso   1.00
C185   C     0.66958   0.45388   0.61311   0.00000  Uiso   1.00
C186   C     0.67538   0.53522   0.65463   0.00000  Uiso   1.00
C187   C     0.59427   0.58038   0.67885   0.00000  Uiso   1.00
C188   C     0.61528   0.65324   0.71579   0.00000  Uiso   1.00
C189   C     0.60929   0.77553   0.77837   0.00000  Uiso   1.00
C190   C     0.72712   0.49395   0.56630   0.00000  Uiso   1.00
C191   C     0.68951   0.50439   0.51625   0.00000  Uiso   1.00
C192   C     0.75408   0.54249   0.47884   0.00000  Uiso   1.00
C193   C     0.82843   0.60064   0.40428   0.00000  Uiso   1.00
C194   C     0.73064   0.36609   0.63386   0.00000  Uiso   1.00
C195   C     0.69600   0.26902   0.64061   0.00000  Uiso   1.00
C196   C     0.76354   0.19947   0.66006   0.00000  Uiso   1.00
C197   C     0.84337   0.05909   0.69040   0.00000  Uiso   1.00
C198   C     0.85112   0.50295   0.63565   0.00000  Uiso   1.00
C199   C     0.77399   0.56188   0.66686   0.00000  Uiso   1.00
C200   C     0.79512   0.63468   0.70378   0.00000  Uiso   1.00
C201   C     0.71406   0.67994   0.72806   0.00000  Uiso   1.00
C202   C     0.82572   0.52060   0.57854   0.00000  Uiso   1.00
C203   C     0.89036   0.55869   0.54119   0.00000  Uiso   1.00
C204   C     0.85286   0.56919   0.49110   0.00000  Uiso   1.00
C205   C     0.82925   0.39274   0.64610   0.00000  Uiso   1.00
C206   C     0.89685   0.32332   0.66554   0.00000  Uiso   1.00
C207   C     0.86233   0.22617   0.67232   0.00000  Uiso   1.00
H208   H     0.59281   0.43313   0.60358   0.00000  Uiso   1.00
H209   H     0.51798   0.55974   0.66936   0.00000  Uiso   1.00
H210   H     0.61321   0.48375   0.50679   0.00000  Uiso   1.00
H211   H     0.61970   0.24843   0.63113   0.00000  Uiso   1.00
H212   H     0.47849   0.71190   0.74768   0.00000  Uiso   1.00
H213   H     0.67929   0.55164   0.40489   0.00000  Uiso   1.00
H214   H     0.69298   0.05540   0.66707   0.00000  Uiso   1.00
H215   H     0.92789   0.52370   0.64518   0.00000  Uiso   1.00
H216   H     0.87144   0.65529   0.71325   0.00000  Uiso   1.00
H217   H     0.96666   0.57930   0.55067   0.00000  Uiso   1.00
H218   H     0.97315   0.34397   0.67501   0.00000  Uiso   1.00
H219   H     0.76537   0.78945   0.78329   0.00000  Uiso   1.00
H220   H     0.96617   0.62919   0.44050   0.00000  Uiso   1.00
H221   H     0.97986   0.13295   0.70269   0.00000  Uiso   1.00
O222   O     0.57875   0.83563   0.80950   0.00000  Uiso   1.00
O223   O     0.84220   0.62535   0.35977   0.00000  Uiso   1.00
O224   O     0.86015   0.97431   0.70375   0.00000  Uiso   1.00
N225   N     0.55375   0.71208   0.74673   0.00000  Uiso   1.00
N226   N     0.74149   0.56226   0.42624   0.00000  Uiso   1.00
N227   N     0.75429   0.09831   0.67135   0.00000  Uiso   1.00
N228   N     0.70812   0.75381   0.76589   0.00000  Uiso   1.00
N229   N     0.89585   0.60399   0.44540   0.00000  Uiso   1.00
N230   N     0.90866   0.14004   0.69051   0.00000  Uiso   1.00
C231   C     0.33042   0.54612   0.11311   0.00000  Uiso   1.00
C232   C     0.32462   0.46478   0.15463   0.00000  Uiso   1.00
C233   C     0.40573   0.41962   0.17885   0.00000  Uiso   1.00
C234   C     0.38472   0.34676   0.21579   0.00000  Uiso   1.00
C235   C     0.39071   0.22447   0.27837   0.00000  Uiso   1.00
C236   C     0.27288   0.50605   0.06630   0.00000  Uiso   1.00
C237   C     0.31049   0.49561   0.01625   0.00000  Uiso   1.00
C238   C     0.24592   0.45751   0.97884   0.00000  Uiso   1.00
C239   C     0.17157   0.39936   0.90428   0.00000  Uiso   1.00
C240   C     0.26936   0.63391   0.13386   0.00000  Uiso   1.00
C241   C     0.30400   0.73098   0.14061   0.00000  Uiso   1.00
C242   C     0.23646   0.80053   0.16006   0.00000  Uiso   1.00
C243   C     0.15663   0.94091   0.19040   0.00000  Uiso   1.00
C244   C     0.14888   0.49705   0.13565   0.00000  Uiso   1.00
C245   C     0.22601   0.43812   0.16686   0.00000  Uiso   1.00
C246   C     0.20488   0.36532   0.20378   0.00000  Uiso   1.00
C247   C     0.28594   0.32006   0.22806   0.00000  Uiso   1.00
C248   C     0.17428   0.47940   0.07854   0.00000  Uiso   1.00
C249   C     0.10964   0.44131   0.04119   0.00000  Uiso   1.00
C250   C     0.14714   0.43081   0.99110   0.00000  Uiso   1.00
C251   C     0.17075   0.60726   0.14610   0.00000  Uiso   1.00
C252   C     0.10315   0.67668   0.16554   0.00000  Uiso   1.00
C253   C     0.13767   0.77383   0.17232   0.00000  Uiso   1.00
H254   H     0.40719   0.56687   0.10358   0.00000  Uiso   1.00
H255   H     0.48202   0.44026   0.16936   0.00000  Uiso   1.00
H256   H     0.38679   0.51625   0.00679   0.00000  Uiso   1.00
H257   H     0.38030   0.75157   0.13113   0.00000  Uiso   1.00
H258   H     0.52151   0.28810   0.24768   0.00000  Uiso   1.00
H259   H     0.32071   0.44836   0.90489   0.00000  Uiso   1.00
H260   H     0.30702   0.94460   0.16707   0.00000  Uiso   1.00
H261   H     0.07211   0.47630   0.14518   0.00000  Uiso   1.00
H262   H     0.12856   0.34471   0.21325   0.00000  Uiso   1.00
H263   H     0.03334   0.42070   0.05067   0.00000  Uiso   1.00
H264   H     0.02685   0.65603   0.17501   0.00000  Uiso   1.00
H265   H     0.23463   0.21055   0.28329   0.00000  Uiso   1.00
H266   H     0.03383   0.37081   0.94050   0.00000  Uiso   1.00
H267   H     0.02014   0.86705   0.20269   0.00000  Uiso   1.00
O268   O     0.42125   0.16437   0.30950   0.00000  Uiso   1.00
O269   O     0.15780   0.37465   0.85977   0.00000  Uiso   1.00
O270   O     0.13985   0.02569   0.20375   0.00000  Uiso   1.00
N271   N     0.44625   0.28792   0.24673   0.00000  Uiso   1.00
N272   N     0.25851   0.43774   0.92624   0.00000  Uiso   1.00
N273   N     0.24571   0.90169   0.17135   0.00000  Uiso   1.00
N274   N     0.29188   0.24619   0.26589   0.00000  Uiso   1.00
N275   N     0.10415   0.39601   0.94540   0.00000  Uiso   1.00
N276   N     0.09134   0.85996   0.19051   0.00000  Uiso   1.00
C277   C     0.95388   0.83042   0.86311   0.00000  Uiso   1.00
C278   C     0.03522   0.82462   0.90463   0.00000  Uiso   1.00
C279   C     0.08038   0.90573   0.92885   0.00000  Uiso   1.00
C280   C     0.15324   0.88472   0.96579   0.00000  Uiso   1.00
C281   C     0.27553   0.89071   0.02837   0.00000  Uiso   1.00
C282   C     0.99395   0.77288   0.81630   0.00000  Uiso   1.00
C283   C     0.00439   0.81049   0.76625   0.00000  Uiso   1.00
C284   C     0.04249   0.74592   0.72884   0.00000  Uiso   1.00
C285   C     0.10064   0.67157   0.65428   0.00000  Uiso   1.00
C286   C     0.86609   0.76936   0.88386   0.00000  Uiso   1.00
C287   C     0.76902   0.80400   0.89061   0.00000  Uiso   1.00
C288   C     0.69947   0.73646   0.91006   0.00000  Uiso   1.00
C289   C     0.55909   0.65663   0.94040   0.00000  Uiso   1.00
C290   C     0.00295   0.64888   0.88565   0.00000  Uiso   1.00
C291   C     0.06188   0.72601   0.91686   0.00000  Uiso   1.00
C292   C     0.13468   0.70488   0.95378   0.00000  Uiso   1.00
C293   C     0.17994   0.78594   0.97806   0.00000  Uiso   1.00
C294   C     0.02060   0.67428   0.82854   0.00000  Uiso   1.00
C295   C     0.05869   0.60964   0.79119   0.00000  Uiso   1.00
C296   C     0.06919   0.64714   0.74110   0.00000  Uiso   1.00
C297   C     0.89274   0.67075   0.89610   0.00000  Uiso   1.00
C298   C     0.82332   0.60315   0.91554   0.00000  Uiso   1.00
C299   C     0.72617   0.63767   0.92232   0.00000  Uiso   1.00
H300   H     0.93313   0.90719   0.85358   0.00000  Uiso   1.00
H301   H     0.05974   0.98202   0.91936   0.00000  Uiso   1.00
H302   H     0.98375   0.88679   0.75679   0.00000  Uiso   1.00
H303   H     0.74843   0.88030   0.88113   0.00000  Uiso   1.00
H304   H     0.21190   0.02151   0.99768   0.00000  Uiso   1.00
H305   H     0.05164   0.82071   0.65489   0.00000  Uiso   1.00
H306   H     0.55540   0.80702   0.91707   0.00000  Uiso   1.00
H307   H     0.02370   0.57211   0.89518   0.00000  Uiso   1.00
H308   H     0.15529   0.62856   0.96325   0.00000  Uiso   1.00
H309   H     0.07930   0.53334   0.80067   0.00000  Uiso   1.00
H310   H     0.84397   0.52685   0.92501   0.00000  Uiso   1.00
H311   H     0.28945   0.73463   0.03329   0.00000  Uiso   1.00
H312   H     0.12919   0.53383   0.69050   0.00000  Uiso   1.00
H313   H     0.63295   0.52014   0.95269   0.00000  Uiso   1.00
O314   O     0.33563   0.92125   0.05950   0.00000  Uiso   1.00
O315   O     0.12535   0.65780   0.60977   0.00000  Uiso   1.00
O316   O     0.47431   0.63985   0.95375   0.00000  Uiso   1.00
N317   N     0.21208   0.94625   0.99673   0.00000  Uiso   1.00
N318   N     0.06226   0.75851   0.67624   0.00000  Uiso   1.00
N319   N     0.59831   0.74571   0.92135   0.00000  Uiso   1.00
N320   N     0.25381   0.79188   0.01589   0.00000  Uiso   1.00
N321   N     0.10399   0.60415   0.69540   0.00000  Uiso   1.00
N322   N     0.64004   0.59134   0.94051   0.00000  Uiso   1.00
C323   C     0.04612   0.16958   0.36311   0.00000  Uiso   1.00
C324   C     0.96478   0.17538   0.40463   0.00000  Uiso   1.00
C325   C     0.91962   0.09427   0.42885   0.00000  Uiso   1.00
C326   C     0.84676   0.11528   0.46579   0.00000  Uiso   1.00
C327   C     0.72447   0.10929   0.52837   0.00000  Uiso   1.00
C328   C     0.00605   0.22712   0.31630   0.00000  Uiso   1.00
C329   C     0.99561   0.18951   0.26625   0.00000  Uiso   1.00
C330   C     0.95751   0.25408   0.22884   0.00000  Uiso   1.00
C331   C     0.89936   0.32843   0.15428   0.00000  Uiso   1.00
C332   C     0.13391   0.23064   0.38386   0.00000  Uiso   1.00
C333   C     0.23098   0.19600   0.39061   0.00000  Uiso   1.00
C334   C     0.30053   0.26354   0.41006   0.00000  Uiso   1.00
C335   C     0.44091   0.34337   0.44040   0.00000  Uiso   1.00
C336   C     0.99705   0.35112   0.38565   0.00000  Uiso   1.00
C337   C     0.93812   0.27399   0.41686   0.00000  Uiso   1.00
C338   C     0.86532   0.29512   0.45378   0.00000  Uiso   1.00
C339   C     0.82006   0.21406   0.47806   0.00000  Uiso   1.00
C340   C     0.97940   0.32572   0.32854   0.00000  Uiso   1.00
C341   C     0.94131   0.39036   0.29119   0.00000  Uiso   1.00
C342   C     0.93081   0.35286   0.24110   0.00000  Uiso   1.00
C343   C     0.10726   0.32925   0.39610   0.00000  Uiso   1.00
C344   C     0.17668   0.39685   0.41554   0.00000  Uiso   1.00
C345   C     0.27383   0.36233   0.42232   0.00000  Uiso   1.00
H346   H     0.06687   0.09281   0.35358   0.00000  Uiso   1.00
H347   H     0.94026   0.01798   0.41936   0.00000  Uiso   1.00
H348   H     0.01625   0.11321   0.25679   0.00000  Uiso   1.00
H349   H     0.25157   0.11970   0.38113   0.00000  Uiso   1.00
H350   H     0.78810   0.97849   0.49768   0.00000  Uiso   1.00
H351   H     0.94836   0.17929   0.15489   0.00000  Uiso   1.00
H352   H     0.44460   0.19298   0.41707   0.00000  Uiso   1.00
H353   H     0.97630   0.42789   0.39518   0.00000  Uiso   1.00
H354   H     0.84471   0.37144   0.46325   0.00000  Uiso   1.00
H355   H     0.92070   0.46666   0.30067   0.00000  Uiso   1.00
H356   H     0.15603   0.47315   0.42501   0.00000  Uiso   1.00
H357   H     0.71055   0.26537   0.53329   0.00000  Uiso   1.00
H358   H     0.87081   0.46617   0.19050   0.00000  Uiso   1.00
H359   H     0.36705   0.47986   0.45269   0.00000  Uiso   1.00
O360   O     0.66437   0.07875   0.55950   0.00000  Uiso   1.00
O361   O     0.87465   0.34220   0.10977   0.00000  Uiso   1.00
O362   O     0.52569   0.36015   0.45375   0.00000  Uiso   1.00
N363   N     0.78792   0.05375   0.49673   0.00000  Uiso   1.00
N364   N     0.93774   0.24149   0.17624   0.00000  Uiso   1.00
N365   N     0.40169   0.25429   0.42135   0.00000  Uiso   1.00
N366   N     0.74619   0.20812   0.51589   0.00000  Uiso   1.00
N367   N     0.89601   0.39585   0.19540   0.00000  Uiso   1.00
N368   N     0.35996   0.40866   0.44051   0.00000  Uiso   1.00
