data_job_01993
_audit_creation_date              2018-12-19
_audit_creation_method            'Materials Studio'
_symmetry_space_group_name_H-M    'P1'
_symmetry_Int_Tables_number       1
_symmetry_cell_setting            triclinic
loop_
_symmetry_equiv_pos_as_xyz
  x,y,z
_cell_length_a                    23.9440
_cell_length_b                    12.5549
_cell_length_c                    22.8406
_cell_angle_alpha                 90.0000
_cell_angle_beta                  90.0000
_cell_angle_gamma                 90.0000
loop_
_atom_site_label
_atom_site_type_symbol
_atom_site_fract_x
_atom_site_fract_y
_atom_site_fract_z
_atom_site_U_iso_or_equiv
_atom_site_adp_type
_atom_site_occupancy
C1     C     0.89091   0.82753   0.58554   0.00000  Uiso   1.00
C2     C     0.88190   0.76760   0.64284   0.00000  Uiso   1.00
C3     C     0.85415   0.80653   0.69170   0.00000  Uiso   1.00
C4     C     0.85036   0.73933   0.73981   0.00000  Uiso   1.00
C5     C     0.83288   0.66186   0.82891   0.00000  Uiso   1.00
C6     C     0.95383   0.82844   0.57521   0.00000  Uiso   1.00
C7     C     0.98654   0.91852   0.56719   0.00000  Uiso   1.00
C8     C     0.04329   0.90253   0.55837   0.00000  Uiso   1.00
C9     C     0.13747   0.91952   0.54242   0.00000  Uiso   1.00
C10    C     0.86621   0.75735   0.53760   0.00000  Uiso   1.00
C11    C     0.82527   0.78767   0.49795   0.00000  Uiso   1.00
C12    C     0.80827   0.71184   0.45745   0.00000  Uiso   1.00
C13    C     0.76642   0.61845   0.38311   0.00000  Uiso   1.00
C14    C     0.93354   0.63897   0.58411   0.00000  Uiso   1.00
C15    C     0.90506   0.66518   0.64206   0.00000  Uiso   1.00
C16    C     0.90131   0.59790   0.69011   0.00000  Uiso   1.00
C17    C     0.87355   0.63672   0.73903   0.00000  Uiso   1.00
C18    C     0.97698   0.72602   0.57443   0.00000  Uiso   1.00
C19    C     0.03370   0.70989   0.56560   0.00000  Uiso   1.00
C20    C     0.06649   0.79993   0.55758   0.00000  Uiso   1.00
C21    C     0.88937   0.65493   0.53682   0.00000  Uiso   1.00
C22    C     0.87243   0.57904   0.49636   0.00000  Uiso   1.00
C23    C     0.83147   0.60923   0.45666   0.00000  Uiso   1.00
H24    H     0.87289   0.90727   0.58615   0.00000  Uiso   1.00
H25    H     0.83624   0.88580   0.69229   0.00000  Uiso   1.00
H26    H     0.96861   0.99777   0.56779   0.00000  Uiso   1.00
H27    H     0.80736   0.86693   0.49857   0.00000  Uiso   1.00
H28    H     0.80584   0.81683   0.80962   0.00000  Uiso   1.00
H29    H     0.08494   0.05293   0.54711   0.00000  Uiso   1.00
H30    H     0.74493   0.77704   0.40112   0.00000  Uiso   1.00
H31    H     0.95157   0.55923   0.58350   0.00000  Uiso   1.00
H32    H     0.91923   0.51864   0.68949   0.00000  Uiso   1.00
H33    H     0.05160   0.63062   0.56500   0.00000  Uiso   1.00
H34    H     0.89036   0.49979   0.49577   0.00000  Uiso   1.00
H35    H     0.87320   0.51884   0.80736   0.00000  Uiso   1.00
H36    H     0.15231   0.75494   0.54484   0.00000  Uiso   1.00
H37    H     0.81229   0.47905   0.39885   0.00000  Uiso   1.00
O38    O     0.81685   0.64743   0.87827   0.00000  Uiso   1.00
O39    O     0.18302   0.95719   0.53385   0.00000  Uiso   1.00
O40    O     0.73693   0.59522   0.34232   0.00000  Uiso   1.00
N41    N     0.82612   0.75226   0.79454   0.00000  Uiso   1.00
N42    N     0.08707   0.97300   0.54911   0.00000  Uiso   1.00
N43    N     0.76919   0.71507   0.41262   0.00000  Uiso   1.00
N44    N     0.86237   0.59191   0.79332   0.00000  Uiso   1.00
N45    N     0.12331   0.81265   0.54789   0.00000  Uiso   1.00
N46    N     0.80544   0.55473   0.41140   0.00000  Uiso   1.00
C47    C     0.60909   0.67247   0.08554   0.00000  Uiso   1.00
C48    C     0.61810   0.73240   0.14284   0.00000  Uiso   1.00
C49    C     0.64585   0.69347   0.19170   0.00000  Uiso   1.00
C50    C     0.64964   0.76067   0.23981   0.00000  Uiso   1.00
C51    C     0.66712   0.83814   0.32891   0.00000  Uiso   1.00
C52    C     0.54617   0.67156   0.07521   0.00000  Uiso   1.00
C53    C     0.51346   0.58148   0.06719   0.00000  Uiso   1.00
C54    C     0.45671   0.59747   0.05837   0.00000  Uiso   1.00
C55    C     0.36253   0.58048   0.04242   0.00000  Uiso   1.00
C56    C     0.63379   0.74265   0.03760   0.00000  Uiso   1.00
C57    C     0.67473   0.71233   0.99795   0.00000  Uiso   1.00
C58    C     0.69173   0.78816   0.95745   0.00000  Uiso   1.00
C59    C     0.73358   0.88155   0.88311   0.00000  Uiso   1.00
C60    C     0.56646   0.86103   0.08411   0.00000  Uiso   1.00
C61    C     0.59494   0.83482   0.14206   0.00000  Uiso   1.00
C62    C     0.59869   0.90210   0.19011   0.00000  Uiso   1.00
C63    C     0.62645   0.86328   0.23903   0.00000  Uiso   1.00
C64    C     0.52302   0.77398   0.07443   0.00000  Uiso   1.00
C65    C     0.46630   0.79011   0.06560   0.00000  Uiso   1.00
C66    C     0.43351   0.70007   0.05758   0.00000  Uiso   1.00
C67    C     0.61063   0.84507   0.03682   0.00000  Uiso   1.00
C68    C     0.62757   0.92096   0.99636   0.00000  Uiso   1.00
C69    C     0.66853   0.89077   0.95666   0.00000  Uiso   1.00
H70    H     0.62711   0.59273   0.08615   0.00000  Uiso   1.00
H71    H     0.66376   0.61420   0.19229   0.00000  Uiso   1.00
H72    H     0.53139   0.50223   0.06779   0.00000  Uiso   1.00
H73    H     0.69264   0.63307   0.99857   0.00000  Uiso   1.00
H74    H     0.69416   0.68317   0.30962   0.00000  Uiso   1.00
H75    H     0.41506   0.44707   0.04711   0.00000  Uiso   1.00
H76    H     0.75507   0.72296   0.90112   0.00000  Uiso   1.00
H77    H     0.54843   0.94077   0.08350   0.00000  Uiso   1.00
H78    H     0.58077   0.98136   0.18949   0.00000  Uiso   1.00
H79    H     0.44840   0.86938   0.06500   0.00000  Uiso   1.00
H80    H     0.60964   0.00021   0.99577   0.00000  Uiso   1.00
H81    H     0.62680   0.98116   0.30736   0.00000  Uiso   1.00
H82    H     0.34769   0.74506   0.04484   0.00000  Uiso   1.00
H83    H     0.68771   0.02095   0.89885   0.00000  Uiso   1.00
O84    O     0.68315   0.85257   0.37827   0.00000  Uiso   1.00
O85    O     0.31698   0.54281   0.03385   0.00000  Uiso   1.00
O86    O     0.76307   0.90478   0.84232   0.00000  Uiso   1.00
N87    N     0.67388   0.74774   0.29454   0.00000  Uiso   1.00
N88    N     0.41293   0.52700   0.04911   0.00000  Uiso   1.00
N89    N     0.73081   0.78493   0.91262   0.00000  Uiso   1.00
N90    N     0.63763   0.90809   0.29332   0.00000  Uiso   1.00
N91    N     0.37669   0.68735   0.04789   0.00000  Uiso   1.00
N92    N     0.69456   0.94527   0.91140   0.00000  Uiso   1.00
C93    C     0.10909   0.82753   0.91446   0.00000  Uiso   1.00
C94    C     0.11810   0.76760   0.85716   0.00000  Uiso   1.00
C95    C     0.14585   0.80653   0.80830   0.00000  Uiso   1.00
C96    C     0.14964   0.73933   0.76019   0.00000  Uiso   1.00
C97    C     0.16712   0.66186   0.67109   0.00000  Uiso   1.00
C98    C     0.04617   0.82844   0.92479   0.00000  Uiso   1.00
C99    C     0.01346   0.91852   0.93281   0.00000  Uiso   1.00
C100   C     0.95671   0.90253   0.94163   0.00000  Uiso   1.00
C101   C     0.86253   0.91952   0.95758   0.00000  Uiso   1.00
C102   C     0.13379   0.75735   0.96240   0.00000  Uiso   1.00
C103   C     0.17473   0.78767   0.00205   0.00000  Uiso   1.00
C104   C     0.19173   0.71184   0.04255   0.00000  Uiso   1.00
C105   C     0.23358   0.61845   0.11689   0.00000  Uiso   1.00
C106   C     0.06646   0.63897   0.91589   0.00000  Uiso   1.00
C107   C     0.09494   0.66518   0.85794   0.00000  Uiso   1.00
C108   C     0.09869   0.59790   0.80989   0.00000  Uiso   1.00
C109   C     0.12645   0.63672   0.76097   0.00000  Uiso   1.00
C110   C     0.02302   0.72602   0.92557   0.00000  Uiso   1.00
C111   C     0.96630   0.70989   0.93440   0.00000  Uiso   1.00
C112   C     0.93351   0.79993   0.94242   0.00000  Uiso   1.00
C113   C     0.11063   0.65493   0.96318   0.00000  Uiso   1.00
C114   C     0.12757   0.57904   0.00364   0.00000  Uiso   1.00
C115   C     0.16853   0.60923   0.04334   0.00000  Uiso   1.00
H116   H     0.12711   0.90727   0.91385   0.00000  Uiso   1.00
H117   H     0.16376   0.88580   0.80771   0.00000  Uiso   1.00
H118   H     0.03139   0.99777   0.93221   0.00000  Uiso   1.00
H119   H     0.19264   0.86693   0.00143   0.00000  Uiso   1.00
H120   H     0.19416   0.81683   0.69038   0.00000  Uiso   1.00
H121   H     0.91506   0.05293   0.95289   0.00000  Uiso   1.00
H122   H     0.25507   0.77704   0.09888   0.00000  Uiso   1.00
H123   H     0.04843   0.55923   0.91650   0.00000  Uiso   1.00
H124   H     0.08077   0.51864   0.81051   0.00000  Uiso   1.00
H125   H     0.94840   0.63062   0.93500   0.00000  Uiso   1.00
H126   H     0.10964   0.49979   0.00423   0.00000  Uiso   1.00
H127   H     0.12680   0.51884   0.69264   0.00000  Uiso   1.00
H128   H     0.84769   0.75494   0.95516   0.00000  Uiso   1.00
H129   H     0.18771   0.47905   0.10115   0.00000  Uiso   1.00
O130   O     0.18315   0.64743   0.62173   0.00000  Uiso   1.00
O131   O     0.81698   0.95719   0.96615   0.00000  Uiso   1.00
O132   O     0.26307   0.59522   0.15768   0.00000  Uiso   1.00
N133   N     0.17388   0.75226   0.70546   0.00000  Uiso   1.00
N134   N     0.91293   0.97300   0.95089   0.00000  Uiso   1.00
N135   N     0.23081   0.71507   0.08738   0.00000  Uiso   1.00
N136   N     0.13763   0.59191   0.70668   0.00000  Uiso   1.00
N137   N     0.87669   0.81265   0.95211   0.00000  Uiso   1.00
N138   N     0.19456   0.55473   0.08860   0.00000  Uiso   1.00
C139   C     0.39091   0.67247   0.41446   0.00000  Uiso   1.00
C140   C     0.38190   0.73240   0.35716   0.00000  Uiso   1.00
C141   C     0.35415   0.69347   0.30830   0.00000  Uiso   1.00
C142   C     0.35036   0.76067   0.26019   0.00000  Uiso   1.00
C143   C     0.33288   0.83814   0.17109   0.00000  Uiso   1.00
C144   C     0.45383   0.67156   0.42479   0.00000  Uiso   1.00
C145   C     0.48654   0.58148   0.43281   0.00000  Uiso   1.00
C146   C     0.54329   0.59747   0.44163   0.00000  Uiso   1.00
C147   C     0.63747   0.58048   0.45758   0.00000  Uiso   1.00
C148   C     0.36621   0.74265   0.46240   0.00000  Uiso   1.00
C149   C     0.32527   0.71233   0.50205   0.00000  Uiso   1.00
C150   C     0.30827   0.78816   0.54255   0.00000  Uiso   1.00
C151   C     0.26642   0.88155   0.61689   0.00000  Uiso   1.00
C152   C     0.43354   0.86103   0.41589   0.00000  Uiso   1.00
C153   C     0.40506   0.83482   0.35794   0.00000  Uiso   1.00
C154   C     0.40131   0.90210   0.30989   0.00000  Uiso   1.00
C155   C     0.37355   0.86328   0.26097   0.00000  Uiso   1.00
C156   C     0.47698   0.77398   0.42557   0.00000  Uiso   1.00
C157   C     0.53370   0.79011   0.43440   0.00000  Uiso   1.00
C158   C     0.56649   0.70007   0.44242   0.00000  Uiso   1.00
C159   C     0.38937   0.84507   0.46318   0.00000  Uiso   1.00
C160   C     0.37243   0.92096   0.50364   0.00000  Uiso   1.00
C161   C     0.33147   0.89077   0.54334   0.00000  Uiso   1.00
H162   H     0.37289   0.59273   0.41385   0.00000  Uiso   1.00
H163   H     0.33624   0.61420   0.30771   0.00000  Uiso   1.00
H164   H     0.46861   0.50223   0.43221   0.00000  Uiso   1.00
H165   H     0.30736   0.63307   0.50143   0.00000  Uiso   1.00
H166   H     0.30584   0.68317   0.19038   0.00000  Uiso   1.00
H167   H     0.58494   0.44707   0.45289   0.00000  Uiso   1.00
H168   H     0.24493   0.72296   0.59888   0.00000  Uiso   1.00
H169   H     0.45157   0.94077   0.41650   0.00000  Uiso   1.00
H170   H     0.41923   0.98136   0.31051   0.00000  Uiso   1.00
H171   H     0.55160   0.86938   0.43500   0.00000  Uiso   1.00
H172   H     0.39036   0.00021   0.50423   0.00000  Uiso   1.00
H173   H     0.37320   0.98116   0.19264   0.00000  Uiso   1.00
H174   H     0.65231   0.74506   0.45516   0.00000  Uiso   1.00
H175   H     0.31229   0.02095   0.60115   0.00000  Uiso   1.00
O176   O     0.31685   0.85257   0.12173   0.00000  Uiso   1.00
O177   O     0.68302   0.54281   0.46615   0.00000  Uiso   1.00
O178   O     0.23693   0.90478   0.65768   0.00000  Uiso   1.00
N179   N     0.32612   0.74774   0.20546   0.00000  Uiso   1.00
N180   N     0.58707   0.52700   0.45089   0.00000  Uiso   1.00
N181   N     0.26919   0.78493   0.58738   0.00000  Uiso   1.00
N182   N     0.36237   0.90809   0.20668   0.00000  Uiso   1.00
N183   N     0.62331   0.68735   0.45211   0.00000  Uiso   1.00
N184   N     0.30544   0.94527   0.58860   0.00000  Uiso   1.00
C185   C     0.10909   0.17247   0.41446   0.00000  Uiso   1.00
C186   C     0.11810   0.23240   0.35716   0.00000  Uiso   1.00
C187   C     0.14585   0.19347   0.30830   0.00000  Uiso   1.00
C188   C     0.14964   0.26067   0.26019   0.00000  Uiso   1.00
C189   C     0.16712   0.33814   0.17109   0.00000  Uiso   1.00
C190   C     0.04617   0.17156   0.42479   0.00000  Uiso   1.00
C191   C     0.01346   0.08148   0.43281   0.00000  Uiso   1.00
C192   C     0.95671   0.09747   0.44163   0.00000  Uiso   1.00
C193   C     0.86253   0.08048   0.45758   0.00000  Uiso   1.00
C194   C     0.13379   0.24265   0.46240   0.00000  Uiso   1.00
C195   C     0.17473   0.21233   0.50205   0.00000  Uiso   1.00
C196   C     0.19173   0.28816   0.54255   0.00000  Uiso   1.00
C197   C     0.23358   0.38155   0.61689   0.00000  Uiso   1.00
C198   C     0.06646   0.36103   0.41589   0.00000  Uiso   1.00
C199   C     0.09494   0.33482   0.35794   0.00000  Uiso   1.00
C200   C     0.09869   0.40210   0.30989   0.00000  Uiso   1.00
C201   C     0.12645   0.36328   0.26097   0.00000  Uiso   1.00
C202   C     0.02302   0.27398   0.42557   0.00000  Uiso   1.00
C203   C     0.96630   0.29011   0.43440   0.00000  Uiso   1.00
C204   C     0.93351   0.20007   0.44242   0.00000  Uiso   1.00
C205   C     0.11063   0.34507   0.46318   0.00000  Uiso   1.00
C206   C     0.12757   0.42096   0.50364   0.00000  Uiso   1.00
C207   C     0.16853   0.39077   0.54334   0.00000  Uiso   1.00
H208   H     0.12711   0.09273   0.41385   0.00000  Uiso   1.00
H209   H     0.16376   0.11420   0.30771   0.00000  Uiso   1.00
H210   H     0.03139   0.00223   0.43221   0.00000  Uiso   1.00
H211   H     0.19264   0.13307   0.50143   0.00000  Uiso   1.00
H212   H     0.19416   0.18317   0.19038   0.00000  Uiso   1.00
H213   H     0.91506   0.94707   0.45289   0.00000  Uiso   1.00
H214   H     0.25507   0.22296   0.59888   0.00000  Uiso   1.00
H215   H     0.04843   0.44077   0.41650   0.00000  Uiso   1.00
H216   H     0.08077   0.48136   0.31051   0.00000  Uiso   1.00
H217   H     0.94840   0.36938   0.43500   0.00000  Uiso   1.00
H218   H     0.10964   0.50021   0.50423   0.00000  Uiso   1.00
H219   H     0.12680   0.48116   0.19264   0.00000  Uiso   1.00
H220   H     0.84769   0.24506   0.45516   0.00000  Uiso   1.00
H221   H     0.18771   0.52095   0.60115   0.00000  Uiso   1.00
O222   O     0.18315   0.35257   0.12173   0.00000  Uiso   1.00
O223   O     0.81698   0.04281   0.46615   0.00000  Uiso   1.00
O224   O     0.26307   0.40478   0.65768   0.00000  Uiso   1.00
N225   N     0.17388   0.24774   0.20546   0.00000  Uiso   1.00
N226   N     0.91293   0.02700   0.45089   0.00000  Uiso   1.00
N227   N     0.23081   0.28493   0.58738   0.00000  Uiso   1.00
N228   N     0.13763   0.40809   0.20668   0.00000  Uiso   1.00
N229   N     0.87669   0.18735   0.45211   0.00000  Uiso   1.00
N230   N     0.19456   0.44527   0.58860   0.00000  Uiso   1.00
C231   C     0.39091   0.32753   0.91446   0.00000  Uiso   1.00
C232   C     0.38190   0.26760   0.85716   0.00000  Uiso   1.00
C233   C     0.35415   0.30653   0.80830   0.00000  Uiso   1.00
C234   C     0.35036   0.23933   0.76019   0.00000  Uiso   1.00
C235   C     0.33288   0.16186   0.67109   0.00000  Uiso   1.00
C236   C     0.45383   0.32844   0.92479   0.00000  Uiso   1.00
C237   C     0.48654   0.41852   0.93281   0.00000  Uiso   1.00
C238   C     0.54329   0.40253   0.94163   0.00000  Uiso   1.00
C239   C     0.63747   0.41952   0.95758   0.00000  Uiso   1.00
C240   C     0.36621   0.25735   0.96240   0.00000  Uiso   1.00
C241   C     0.32527   0.28767   0.00205   0.00000  Uiso   1.00
C242   C     0.30827   0.21184   0.04255   0.00000  Uiso   1.00
C243   C     0.26642   0.11845   0.11689   0.00000  Uiso   1.00
C244   C     0.43354   0.13897   0.91589   0.00000  Uiso   1.00
C245   C     0.40506   0.16518   0.85794   0.00000  Uiso   1.00
C246   C     0.40131   0.09790   0.80989   0.00000  Uiso   1.00
C247   C     0.37355   0.13672   0.76097   0.00000  Uiso   1.00
C248   C     0.47698   0.22602   0.92557   0.00000  Uiso   1.00
C249   C     0.53370   0.20989   0.93440   0.00000  Uiso   1.00
C250   C     0.56649   0.29993   0.94242   0.00000  Uiso   1.00
C251   C     0.38937   0.15493   0.96318   0.00000  Uiso   1.00
C252   C     0.37243   0.07904   0.00364   0.00000  Uiso   1.00
C253   C     0.33147   0.10923   0.04334   0.00000  Uiso   1.00
H254   H     0.37289   0.40727   0.91385   0.00000  Uiso   1.00
H255   H     0.33624   0.38580   0.80771   0.00000  Uiso   1.00
H256   H     0.46861   0.49777   0.93221   0.00000  Uiso   1.00
H257   H     0.30736   0.36693   0.00143   0.00000  Uiso   1.00
H258   H     0.30584   0.31683   0.69038   0.00000  Uiso   1.00
H259   H     0.58494   0.55293   0.95289   0.00000  Uiso   1.00
H260   H     0.24493   0.27704   0.09888   0.00000  Uiso   1.00
H261   H     0.45157   0.05923   0.91650   0.00000  Uiso   1.00
H262   H     0.41923   0.01864   0.81051   0.00000  Uiso   1.00
H263   H     0.55160   0.13062   0.93500   0.00000  Uiso   1.00
H264   H     0.39036   0.99979   0.00423   0.00000  Uiso   1.00
H265   H     0.37320   0.01884   0.69264   0.00000  Uiso   1.00
H266   H     0.65231   0.25494   0.95516   0.00000  Uiso   1.00
H267   H     0.31229   0.97905   0.10115   0.00000  Uiso   1.00
O268   O     0.31685   0.14743   0.62173   0.00000  Uiso   1.00
O269   O     0.68302   0.45719   0.96615   0.00000  Uiso   1.00
O270   O     0.23693   0.09522   0.15768   0.00000  Uiso   1.00
N271   N     0.32612   0.25226   0.70546   0.00000  Uiso   1.00
N272   N     0.58707   0.47300   0.95089   0.00000  Uiso   1.00
N273   N     0.26919   0.21507   0.08738   0.00000  Uiso   1.00
N274   N     0.36237   0.09191   0.70668   0.00000  Uiso   1.00
N275   N     0.62331   0.31265   0.95211   0.00000  Uiso   1.00
N276   N     0.30544   0.05473   0.08860   0.00000  Uiso   1.00
C277   C     0.89091   0.17247   0.08554   0.00000  Uiso   1.00
C278   C     0.88190   0.23240   0.14284   0.00000  Uiso   1.00
C279   C     0.85415   0.19347   0.19170   0.00000  Uiso   1.00
C280   C     0.85036   0.26067   0.23981   0.00000  Uiso   1.00
C281   C     0.83288   0.33814   0.32891   0.00000  Uiso   1.00
C282   C     0.95383   0.17156   0.07521   0.00000  Uiso   1.00
C283   C     0.98654   0.08148   0.06719   0.00000  Uiso   1.00
C284   C     0.04329   0.09747   0.05837   0.00000  Uiso   1.00
C285   C     0.13747   0.08048   0.04242   0.00000  Uiso   1.00
C286   C     0.86621   0.24265   0.03760   0.00000  Uiso   1.00
C287   C     0.82527   0.21233   0.99795   0.00000  Uiso   1.00
C288   C     0.80827   0.28816   0.95745   0.00000  Uiso   1.00
C289   C     0.76642   0.38155   0.88311   0.00000  Uiso   1.00
C290   C     0.93354   0.36103   0.08411   0.00000  Uiso   1.00
C291   C     0.90506   0.33482   0.14206   0.00000  Uiso   1.00
C292   C     0.90131   0.40210   0.19011   0.00000  Uiso   1.00
C293   C     0.87355   0.36328   0.23903   0.00000  Uiso   1.00
C294   C     0.97698   0.27398   0.07443   0.00000  Uiso   1.00
C295   C     0.03370   0.29011   0.06560   0.00000  Uiso   1.00
C296   C     0.06649   0.20007   0.05758   0.00000  Uiso   1.00
C297   C     0.88937   0.34507   0.03682   0.00000  Uiso   1.00
C298   C     0.87243   0.42096   0.99636   0.00000  Uiso   1.00
C299   C     0.83147   0.39077   0.95666   0.00000  Uiso   1.00
H300   H     0.87289   0.09273   0.08615   0.00000  Uiso   1.00
H301   H     0.83624   0.11420   0.19229   0.00000  Uiso   1.00
H302   H     0.96861   0.00223   0.06779   0.00000  Uiso   1.00
H303   H     0.80736   0.13307   0.99857   0.00000  Uiso   1.00
H304   H     0.80584   0.18317   0.30962   0.00000  Uiso   1.00
H305   H     0.08494   0.94707   0.04711   0.00000  Uiso   1.00
H306   H     0.74493   0.22296   0.90112   0.00000  Uiso   1.00
H307   H     0.95157   0.44077   0.08350   0.00000  Uiso   1.00
H308   H     0.91923   0.48136   0.18949   0.00000  Uiso   1.00
H309   H     0.05160   0.36938   0.06500   0.00000  Uiso   1.00
H310   H     0.89036   0.50021   0.99577   0.00000  Uiso   1.00
H311   H     0.87320   0.48116   0.30736   0.00000  Uiso   1.00
H312   H     0.15231   0.24506   0.04484   0.00000  Uiso   1.00
H313   H     0.81229   0.52095   0.89885   0.00000  Uiso   1.00
O314   O     0.81685   0.35257   0.37827   0.00000  Uiso   1.00
O315   O     0.18302   0.04281   0.03385   0.00000  Uiso   1.00
O316   O     0.73693   0.40478   0.84232   0.00000  Uiso   1.00
N317   N     0.82612   0.24774   0.29454   0.00000  Uiso   1.00
N318   N     0.08707   0.02700   0.04911   0.00000  Uiso   1.00
N319   N     0.76919   0.28493   0.91262   0.00000  Uiso   1.00
N320   N     0.86237   0.40809   0.29332   0.00000  Uiso   1.00
N321   N     0.12331   0.18735   0.04789   0.00000  Uiso   1.00
N322   N     0.80544   0.44527   0.91140   0.00000  Uiso   1.00
C323   C     0.60909   0.32753   0.58554   0.00000  Uiso   1.00
C324   C     0.61810   0.26760   0.64284   0.00000  Uiso   1.00
C325   C     0.64585   0.30653   0.69170   0.00000  Uiso   1.00
C326   C     0.64964   0.23933   0.73981   0.00000  Uiso   1.00
C327   C     0.66712   0.16186   0.82891   0.00000  Uiso   1.00
C328   C     0.54617   0.32844   0.57521   0.00000  Uiso   1.00
C329   C     0.51346   0.41852   0.56719   0.00000  Uiso   1.00
C330   C     0.45671   0.40253   0.55837   0.00000  Uiso   1.00
C331   C     0.36253   0.41952   0.54242   0.00000  Uiso   1.00
C332   C     0.63379   0.25735   0.53760   0.00000  Uiso   1.00
C333   C     0.67473   0.28767   0.49795   0.00000  Uiso   1.00
C334   C     0.69173   0.21184   0.45745   0.00000  Uiso   1.00
C335   C     0.73358   0.11845   0.38311   0.00000  Uiso   1.00
C336   C     0.56646   0.13897   0.58411   0.00000  Uiso   1.00
C337   C     0.59494   0.16518   0.64206   0.00000  Uiso   1.00
C338   C     0.59869   0.09790   0.69011   0.00000  Uiso   1.00
C339   C     0.62645   0.13672   0.73903   0.00000  Uiso   1.00
C340   C     0.52302   0.22602   0.57443   0.00000  Uiso   1.00
C341   C     0.46630   0.20989   0.56560   0.00000  Uiso   1.00
C342   C     0.43351   0.29993   0.55758   0.00000  Uiso   1.00
C343   C     0.61063   0.15493   0.53682   0.00000  Uiso   1.00
C344   C     0.62757   0.07904   0.49636   0.00000  Uiso   1.00
C345   C     0.66853   0.10923   0.45666   0.00000  Uiso   1.00
H346   H     0.62711   0.40727   0.58615   0.00000  Uiso   1.00
H347   H     0.66376   0.38580   0.69229   0.00000  Uiso   1.00
H348   H     0.53139   0.49777   0.56779   0.00000  Uiso   1.00
H349   H     0.69264   0.36693   0.49857   0.00000  Uiso   1.00
H350   H     0.69416   0.31683   0.80962   0.00000  Uiso   1.00
H351   H     0.41506   0.55293   0.54711   0.00000  Uiso   1.00
H352   H     0.75507   0.27704   0.40112   0.00000  Uiso   1.00
H353   H     0.54843   0.05923   0.58350   0.00000  Uiso   1.00
H354   H     0.58077   0.01864   0.68949   0.00000  Uiso   1.00
H355   H     0.44840   0.13062   0.56500   0.00000  Uiso   1.00
H356   H     0.60964   0.99979   0.49577   0.00000  Uiso   1.00
H357   H     0.62680   0.01884   0.80736   0.00000  Uiso   1.00
H358   H     0.34769   0.25494   0.54484   0.00000  Uiso   1.00
H359   H     0.68771   0.97905   0.39885   0.00000  Uiso   1.00
O360   O     0.68315   0.14743   0.87827   0.00000  Uiso   1.00
O361   O     0.31698   0.45719   0.53385   0.00000  Uiso   1.00
O362   O     0.76307   0.09522   0.34232   0.00000  Uiso   1.00
N363   N     0.67388   0.25226   0.79454   0.00000  Uiso   1.00
N364   N     0.41293   0.47300   0.54911   0.00000  Uiso   1.00
N365   N     0.73081   0.21507   0.41262   0.00000  Uiso   1.00
N366   N     0.63763   0.09191   0.79332   0.00000  Uiso   1.00
N367   N     0.37669   0.31265   0.54789   0.00000  Uiso   1.00
N368   N     0.69456   0.05473   0.41140   0.00000  Uiso   1.00
