data_job_05420
_audit_creation_date              2018-12-19
_audit_creation_method            'Materials Studio'
_symmetry_space_group_name_H-M    'P1'
_symmetry_Int_Tables_number       1
_symmetry_cell_setting            triclinic
loop_
_symmetry_equiv_pos_as_xyz
  x,y,z
_cell_length_a                    42.6571
_cell_length_b                    21.9734
_cell_length_c                    7.2399
_cell_angle_alpha                 90.0000
_cell_angle_beta                  90.0000
_cell_angle_gamma                 90.0000
loop_
_atom_site_label
_atom_site_type_symbol
_atom_site_fract_x
_atom_site_fract_y
_atom_site_fract_z
_atom_site_U_iso_or_equiv
_atom_site_adp_type
_atom_site_occupancy
C1     C     0.11279   0.94447   0.86472   0.00000  Uiso   1.00
C2     C     0.10619   0.00822   0.93829   0.00000  Uiso   1.00
C3     C     0.10856   0.06186   0.83807   0.00000  Uiso   1.00
C4     C     0.10151   0.11552   0.93040   0.00000  Uiso   1.00
C5     C     0.09265   0.21452   0.01639   0.00000  Uiso   1.00
C6     C     0.13770   0.91744   0.99160   0.00000  Uiso   1.00
C7     C     0.16657   0.89474   0.93619   0.00000  Uiso   1.00
C8     C     0.18605   0.87197   0.07341   0.00000  Uiso   1.00
C9     C     0.22610   0.82999   0.24214   0.00000  Uiso   1.00
C10    C     0.08303   0.90770   0.89878   0.00000  Uiso   1.00
C11    C     0.06594   0.87680   0.76534   0.00000  Uiso   1.00
C12    C     0.03940   0.84582   0.82441   0.00000  Uiso   1.00
C13    C     0.99458   0.78872   0.84903   0.00000  Uiso   1.00
C14    C     0.09606   0.94439   0.20693   0.00000  Uiso   1.00
C15    C     0.09710   0.00818   0.12417   0.00000  Uiso   1.00
C16    C     0.09005   0.06177   0.21668   0.00000  Uiso   1.00
C17    C     0.09241   0.11548   0.11661   0.00000  Uiso   1.00
C18    C     0.12861   0.91739   0.17747   0.00000  Uiso   1.00
C19    C     0.14806   0.89465   0.31480   0.00000  Uiso   1.00
C20    C     0.17695   0.87193   0.25962   0.00000  Uiso   1.00
C21    C     0.07394   0.90766   0.08466   0.00000  Uiso   1.00
C22    C     0.04743   0.87672   0.14395   0.00000  Uiso   1.00
C23    C     0.03030   0.84578   0.01062   0.00000  Uiso   1.00
H24    H     0.11987   0.94450   0.72002   0.00000  Uiso   1.00
H25    H     0.11560   0.06187   0.69423   0.00000  Uiso   1.00
H26    H     0.17359   0.89477   0.79234   0.00000  Uiso   1.00
H27    H     0.07298   0.87684   0.62151   0.00000  Uiso   1.00
H28    H     0.10686   0.19198   0.74763   0.00000  Uiso   1.00
H29    H     0.22915   0.83963   0.95449   0.00000  Uiso   1.00
H30    H     0.01699   0.80181   0.59427   0.00000  Uiso   1.00
H31    H     0.08899   0.94436   0.35165   0.00000  Uiso   1.00
H32    H     0.08301   0.06172   0.36052   0.00000  Uiso   1.00
H33    H     0.14101   0.89462   0.45863   0.00000  Uiso   1.00
H34    H     0.04040   0.87669   0.28780   0.00000  Uiso   1.00
H35    H     0.08042   0.19186   0.28842   0.00000  Uiso   1.00
H36    H     0.20270   0.83950   0.49527   0.00000  Uiso   1.00
H37    H     0.99054   0.80169   0.13505   0.00000  Uiso   1.00
O38    O     0.09028   0.26914   0.01248   0.00000  Uiso   1.00
O39    O     0.25071   0.80685   0.28386   0.00000  Uiso   1.00
O40    O     0.97236   0.75724   0.81126   0.00000  Uiso   1.00
N41    N     0.10145   0.17585   0.87368   0.00000  Uiso   1.00
N42    N     0.21578   0.84642   0.06708   0.00000  Uiso   1.00
N43    N     0.01744   0.81106   0.73031   0.00000  Uiso   1.00
N44    N     0.08722   0.17578   0.16467   0.00000  Uiso   1.00
N45    N     0.20155   0.84636   0.35807   0.00000  Uiso   1.00
N46    N     0.00321   0.81099   0.02130   0.00000  Uiso   1.00
C47    C     0.90013   0.44538   0.14219   0.00000  Uiso   1.00
C48    C     0.90183   0.51077   0.07235   0.00000  Uiso   1.00
C49    C     0.90705   0.56193   0.18043   0.00000  Uiso   1.00
C50    C     0.90777   0.61770   0.09037   0.00000  Uiso   1.00
C51    C     0.91107   0.71857   0.01103   0.00000  Uiso   1.00
C52    C     0.86839   0.42092   0.07976   0.00000  Uiso   1.00
C53    C     0.84550   0.39653   0.19407   0.00000  Uiso   1.00
C54    C     0.81807   0.37665   0.11023   0.00000  Uiso   1.00
C55    C     0.76946   0.33799   0.04238   0.00000  Uiso   1.00
C56    C     0.92467   0.40996   0.03314   0.00000  Uiso   1.00
C57    C     0.94909   0.37635   0.10826   0.00000  Uiso   1.00
C58    C     0.96905   0.34724   0.98518   0.00000  Uiso   1.00
C59    C     0.00782   0.29157   0.84495   0.00000  Uiso   1.00
C60    C     0.89214   0.45342   0.79004   0.00000  Uiso   1.00
C61    C     0.89749   0.51513   0.88107   0.00000  Uiso   1.00
C62    C     0.89821   0.57084   0.79082   0.00000  Uiso   1.00
C63    C     0.90343   0.62208   0.89875   0.00000  Uiso   1.00
C64    C     0.86405   0.42529   0.88849   0.00000  Uiso   1.00
C65    C     0.83666   0.40543   0.80445   0.00000  Uiso   1.00
C66    C     0.81372   0.38103   0.91861   0.00000  Uiso   1.00
C67    C     0.92034   0.41433   0.84186   0.00000  Uiso   1.00
C68    C     0.94025   0.38526   0.71864   0.00000  Uiso   1.00
C69    C     0.96470   0.35162   0.79355   0.00000  Uiso   1.00
H70    H     0.90350   0.44197   0.29111   0.00000  Uiso   1.00
H71    H     0.91040   0.55853   0.32846   0.00000  Uiso   1.00
H72    H     0.84886   0.39315   0.34209   0.00000  Uiso   1.00
H73    H     0.95244   0.37298   0.25629   0.00000  Uiso   1.00
H74    H     0.91613   0.68969   0.28553   0.00000  Uiso   1.00
H75    H     0.78637   0.34095   0.31425   0.00000  Uiso   1.00
H76    H     0.00479   0.29842   0.13334   0.00000  Uiso   1.00
H77    H     0.88876   0.45683   0.64111   0.00000  Uiso   1.00
H78    H     0.89485   0.57421   0.64279   0.00000  Uiso   1.00
H79    H     0.83331   0.40882   0.65643   0.00000  Uiso   1.00
H80    H     0.93689   0.38866   0.57063   0.00000  Uiso   1.00
H81    H     0.90350   0.70241   0.72902   0.00000  Uiso   1.00
H82    H     0.77375   0.35367   0.75775   0.00000  Uiso   1.00
H83    H     0.99216   0.31115   0.57682   0.00000  Uiso   1.00
O84    O     0.91408   0.77300   0.02012   0.00000  Uiso   1.00
O85    O     0.74385   0.31546   0.05780   0.00000  Uiso   1.00
O86    O     0.03040   0.25967   0.82044   0.00000  Uiso   1.00
N87    N     0.91233   0.67657   0.15432   0.00000  Uiso   1.00
N88    N     0.79101   0.35053   0.18118   0.00000  Uiso   1.00
N89    N     0.99521   0.31076   0.01204   0.00000  Uiso   1.00
N90    N     0.90553   0.68342   0.85486   0.00000  Uiso   1.00
N91    N     0.78422   0.35738   0.88172   0.00000  Uiso   1.00
N92    N     0.98841   0.31761   0.71258   0.00000  Uiso   1.00
C93    C     0.88721   0.05553   0.36472   0.00000  Uiso   1.00
C94    C     0.89381   0.99178   0.43829   0.00000  Uiso   1.00
C95    C     0.89144   0.93814   0.33807   0.00000  Uiso   1.00
C96    C     0.89849   0.88448   0.43040   0.00000  Uiso   1.00
C97    C     0.90735   0.78548   0.51639   0.00000  Uiso   1.00
C98    C     0.86230   0.08256   0.49160   0.00000  Uiso   1.00
C99    C     0.83343   0.10526   0.43619   0.00000  Uiso   1.00
C100   C     0.81395   0.12803   0.57341   0.00000  Uiso   1.00
C101   C     0.77390   0.17001   0.74214   0.00000  Uiso   1.00
C102   C     0.91697   0.09230   0.39878   0.00000  Uiso   1.00
C103   C     0.93406   0.12320   0.26534   0.00000  Uiso   1.00
C104   C     0.96060   0.15418   0.32441   0.00000  Uiso   1.00
C105   C     0.00542   0.21128   0.34903   0.00000  Uiso   1.00
C106   C     0.90394   0.05561   0.70693   0.00000  Uiso   1.00
C107   C     0.90290   0.99182   0.62417   0.00000  Uiso   1.00
C108   C     0.90995   0.93823   0.71668   0.00000  Uiso   1.00
C109   C     0.90759   0.88452   0.61661   0.00000  Uiso   1.00
C110   C     0.87139   0.08261   0.67747   0.00000  Uiso   1.00
C111   C     0.85194   0.10535   0.81480   0.00000  Uiso   1.00
C112   C     0.82305   0.12807   0.75962   0.00000  Uiso   1.00
C113   C     0.92606   0.09234   0.58466   0.00000  Uiso   1.00
C114   C     0.95257   0.12328   0.64395   0.00000  Uiso   1.00
C115   C     0.96970   0.15422   0.51062   0.00000  Uiso   1.00
H116   H     0.88013   0.05550   0.22002   0.00000  Uiso   1.00
H117   H     0.88440   0.93813   0.19423   0.00000  Uiso   1.00
H118   H     0.82641   0.10523   0.29234   0.00000  Uiso   1.00
H119   H     0.92702   0.12316   0.12151   0.00000  Uiso   1.00
H120   H     0.89314   0.80802   0.24763   0.00000  Uiso   1.00
H121   H     0.77085   0.16037   0.45449   0.00000  Uiso   1.00
H122   H     0.98301   0.19819   0.09427   0.00000  Uiso   1.00
H123   H     0.91101   0.05564   0.85165   0.00000  Uiso   1.00
H124   H     0.91699   0.93828   0.86052   0.00000  Uiso   1.00
H125   H     0.85899   0.10538   0.95863   0.00000  Uiso   1.00
H126   H     0.95960   0.12331   0.78780   0.00000  Uiso   1.00
H127   H     0.91958   0.80814   0.78842   0.00000  Uiso   1.00
H128   H     0.79730   0.16050   0.99527   0.00000  Uiso   1.00
H129   H     0.00946   0.19831   0.63505   0.00000  Uiso   1.00
O130   O     0.90972   0.73086   0.51248   0.00000  Uiso   1.00
O131   O     0.74929   0.19315   0.78386   0.00000  Uiso   1.00
O132   O     0.02764   0.24276   0.31126   0.00000  Uiso   1.00
N133   N     0.89855   0.82415   0.37368   0.00000  Uiso   1.00
N134   N     0.78422   0.15358   0.56708   0.00000  Uiso   1.00
N135   N     0.98256   0.18894   0.23031   0.00000  Uiso   1.00
N136   N     0.91278   0.82422   0.66467   0.00000  Uiso   1.00
N137   N     0.79845   0.15364   0.85807   0.00000  Uiso   1.00
N138   N     0.99679   0.18901   0.52130   0.00000  Uiso   1.00
C139   C     0.09987   0.55462   0.64219   0.00000  Uiso   1.00
C140   C     0.09817   0.48923   0.57235   0.00000  Uiso   1.00
C141   C     0.09295   0.43807   0.68043   0.00000  Uiso   1.00
C142   C     0.09223   0.38230   0.59037   0.00000  Uiso   1.00
C143   C     0.08893   0.28143   0.51103   0.00000  Uiso   1.00
C144   C     0.13161   0.57908   0.57976   0.00000  Uiso   1.00
C145   C     0.15450   0.60347   0.69407   0.00000  Uiso   1.00
C146   C     0.18193   0.62335   0.61023   0.00000  Uiso   1.00
C147   C     0.23054   0.66201   0.54238   0.00000  Uiso   1.00
C148   C     0.07533   0.59004   0.53314   0.00000  Uiso   1.00
C149   C     0.05091   0.62365   0.60826   0.00000  Uiso   1.00
C150   C     0.03095   0.65276   0.48518   0.00000  Uiso   1.00
C151   C     0.99218   0.70843   0.34495   0.00000  Uiso   1.00
C152   C     0.10786   0.54658   0.29004   0.00000  Uiso   1.00
C153   C     0.10251   0.48487   0.38107   0.00000  Uiso   1.00
C154   C     0.10179   0.42916   0.29082   0.00000  Uiso   1.00
C155   C     0.09657   0.37792   0.39875   0.00000  Uiso   1.00
C156   C     0.13595   0.57471   0.38849   0.00000  Uiso   1.00
C157   C     0.16334   0.59457   0.30445   0.00000  Uiso   1.00
C158   C     0.18628   0.61897   0.41861   0.00000  Uiso   1.00
C159   C     0.07966   0.58567   0.34186   0.00000  Uiso   1.00
C160   C     0.05975   0.61474   0.21864   0.00000  Uiso   1.00
C161   C     0.03530   0.64838   0.29355   0.00000  Uiso   1.00
H162   H     0.09650   0.55803   0.79111   0.00000  Uiso   1.00
H163   H     0.08960   0.44147   0.82846   0.00000  Uiso   1.00
H164   H     0.15114   0.60685   0.84209   0.00000  Uiso   1.00
H165   H     0.04756   0.62702   0.75629   0.00000  Uiso   1.00
H166   H     0.08387   0.31031   0.78553   0.00000  Uiso   1.00
H167   H     0.21363   0.65905   0.81425   0.00000  Uiso   1.00
H168   H     0.99521   0.70158   0.63334   0.00000  Uiso   1.00
H169   H     0.11124   0.54317   0.14111   0.00000  Uiso   1.00
H170   H     0.10515   0.42579   0.14279   0.00000  Uiso   1.00
H171   H     0.16669   0.59118   0.15643   0.00000  Uiso   1.00
H172   H     0.06311   0.61134   0.07063   0.00000  Uiso   1.00
H173   H     0.09650   0.29759   0.22902   0.00000  Uiso   1.00
H174   H     0.22625   0.64633   0.25775   0.00000  Uiso   1.00
H175   H     0.00784   0.68885   0.07682   0.00000  Uiso   1.00
O176   O     0.08592   0.22700   0.52012   0.00000  Uiso   1.00
O177   O     0.25615   0.68454   0.55780   0.00000  Uiso   1.00
O178   O     0.96960   0.74033   0.32044   0.00000  Uiso   1.00
N179   N     0.08767   0.32343   0.65432   0.00000  Uiso   1.00
N180   N     0.20899   0.64947   0.68118   0.00000  Uiso   1.00
N181   N     0.00479   0.68924   0.51204   0.00000  Uiso   1.00
N182   N     0.09447   0.31658   0.35486   0.00000  Uiso   1.00
N183   N     0.21578   0.64262   0.38172   0.00000  Uiso   1.00
N184   N     0.01159   0.68239   0.21258   0.00000  Uiso   1.00
C185   C     0.61279   0.05553   0.86472   0.00000  Uiso   1.00
C186   C     0.60619   0.99178   0.93829   0.00000  Uiso   1.00
C187   C     0.60856   0.93814   0.83807   0.00000  Uiso   1.00
C188   C     0.60151   0.88448   0.93040   0.00000  Uiso   1.00
C189   C     0.59265   0.78548   0.01639   0.00000  Uiso   1.00
C190   C     0.63770   0.08256   0.99160   0.00000  Uiso   1.00
C191   C     0.66657   0.10526   0.93619   0.00000  Uiso   1.00
C192   C     0.68605   0.12803   0.07341   0.00000  Uiso   1.00
C193   C     0.72610   0.17001   0.24214   0.00000  Uiso   1.00
C194   C     0.58303   0.09230   0.89878   0.00000  Uiso   1.00
C195   C     0.56594   0.12320   0.76534   0.00000  Uiso   1.00
C196   C     0.53940   0.15418   0.82441   0.00000  Uiso   1.00
C197   C     0.49458   0.21128   0.84903   0.00000  Uiso   1.00
C198   C     0.59606   0.05561   0.20693   0.00000  Uiso   1.00
C199   C     0.59710   0.99182   0.12417   0.00000  Uiso   1.00
C200   C     0.59005   0.93823   0.21668   0.00000  Uiso   1.00
C201   C     0.59241   0.88452   0.11661   0.00000  Uiso   1.00
C202   C     0.62861   0.08261   0.17747   0.00000  Uiso   1.00
C203   C     0.64806   0.10535   0.31480   0.00000  Uiso   1.00
C204   C     0.67695   0.12807   0.25962   0.00000  Uiso   1.00
C205   C     0.57394   0.09234   0.08466   0.00000  Uiso   1.00
C206   C     0.54743   0.12328   0.14395   0.00000  Uiso   1.00
C207   C     0.53030   0.15422   0.01062   0.00000  Uiso   1.00
H208   H     0.61987   0.05550   0.72002   0.00000  Uiso   1.00
H209   H     0.61560   0.93813   0.69423   0.00000  Uiso   1.00
H210   H     0.67359   0.10523   0.79234   0.00000  Uiso   1.00
H211   H     0.57298   0.12316   0.62151   0.00000  Uiso   1.00
H212   H     0.60686   0.80802   0.74763   0.00000  Uiso   1.00
H213   H     0.72915   0.16037   0.95449   0.00000  Uiso   1.00
H214   H     0.51699   0.19819   0.59427   0.00000  Uiso   1.00
H215   H     0.58899   0.05564   0.35165   0.00000  Uiso   1.00
H216   H     0.58301   0.93828   0.36052   0.00000  Uiso   1.00
H217   H     0.64101   0.10538   0.45863   0.00000  Uiso   1.00
H218   H     0.54040   0.12331   0.28780   0.00000  Uiso   1.00
H219   H     0.58042   0.80814   0.28842   0.00000  Uiso   1.00
H220   H     0.70270   0.16050   0.49527   0.00000  Uiso   1.00
H221   H     0.49054   0.19831   0.13505   0.00000  Uiso   1.00
O222   O     0.59028   0.73086   0.01248   0.00000  Uiso   1.00
O223   O     0.75071   0.19315   0.28386   0.00000  Uiso   1.00
O224   O     0.47236   0.24276   0.81126   0.00000  Uiso   1.00
N225   N     0.60145   0.82415   0.87368   0.00000  Uiso   1.00
N226   N     0.71578   0.15358   0.06708   0.00000  Uiso   1.00
N227   N     0.51744   0.18894   0.73031   0.00000  Uiso   1.00
N228   N     0.58722   0.82422   0.16467   0.00000  Uiso   1.00
N229   N     0.70155   0.15364   0.35807   0.00000  Uiso   1.00
N230   N     0.50321   0.18901   0.02130   0.00000  Uiso   1.00
C231   C     0.40013   0.55462   0.14219   0.00000  Uiso   1.00
C232   C     0.40183   0.48923   0.07235   0.00000  Uiso   1.00
C233   C     0.40705   0.43807   0.18043   0.00000  Uiso   1.00
C234   C     0.40777   0.38230   0.09037   0.00000  Uiso   1.00
C235   C     0.41107   0.28143   0.01103   0.00000  Uiso   1.00
C236   C     0.36839   0.57908   0.07976   0.00000  Uiso   1.00
C237   C     0.34550   0.60347   0.19407   0.00000  Uiso   1.00
C238   C     0.31807   0.62335   0.11023   0.00000  Uiso   1.00
C239   C     0.26946   0.66201   0.04238   0.00000  Uiso   1.00
C240   C     0.42467   0.59004   0.03314   0.00000  Uiso   1.00
C241   C     0.44909   0.62365   0.10826   0.00000  Uiso   1.00
C242   C     0.46905   0.65276   0.98518   0.00000  Uiso   1.00
C243   C     0.50782   0.70843   0.84495   0.00000  Uiso   1.00
C244   C     0.39214   0.54658   0.79004   0.00000  Uiso   1.00
C245   C     0.39749   0.48487   0.88107   0.00000  Uiso   1.00
C246   C     0.39821   0.42916   0.79082   0.00000  Uiso   1.00
C247   C     0.40343   0.37792   0.89875   0.00000  Uiso   1.00
C248   C     0.36405   0.57471   0.88849   0.00000  Uiso   1.00
C249   C     0.33666   0.59457   0.80445   0.00000  Uiso   1.00
C250   C     0.31372   0.61897   0.91861   0.00000  Uiso   1.00
C251   C     0.42034   0.58567   0.84186   0.00000  Uiso   1.00
C252   C     0.44025   0.61474   0.71864   0.00000  Uiso   1.00
C253   C     0.46470   0.64838   0.79355   0.00000  Uiso   1.00
H254   H     0.40350   0.55803   0.29111   0.00000  Uiso   1.00
H255   H     0.41040   0.44147   0.32846   0.00000  Uiso   1.00
H256   H     0.34886   0.60685   0.34209   0.00000  Uiso   1.00
H257   H     0.45244   0.62702   0.25629   0.00000  Uiso   1.00
H258   H     0.41613   0.31031   0.28553   0.00000  Uiso   1.00
H259   H     0.28637   0.65905   0.31425   0.00000  Uiso   1.00
H260   H     0.50479   0.70158   0.13334   0.00000  Uiso   1.00
H261   H     0.38876   0.54317   0.64111   0.00000  Uiso   1.00
H262   H     0.39485   0.42579   0.64279   0.00000  Uiso   1.00
H263   H     0.33331   0.59118   0.65643   0.00000  Uiso   1.00
H264   H     0.43689   0.61134   0.57063   0.00000  Uiso   1.00
H265   H     0.40350   0.29759   0.72902   0.00000  Uiso   1.00
H266   H     0.27375   0.64633   0.75775   0.00000  Uiso   1.00
H267   H     0.49216   0.68885   0.57682   0.00000  Uiso   1.00
O268   O     0.41408   0.22700   0.02012   0.00000  Uiso   1.00
O269   O     0.24385   0.68454   0.05780   0.00000  Uiso   1.00
O270   O     0.53040   0.74033   0.82044   0.00000  Uiso   1.00
N271   N     0.41233   0.32343   0.15432   0.00000  Uiso   1.00
N272   N     0.29101   0.64947   0.18118   0.00000  Uiso   1.00
N273   N     0.49521   0.68924   0.01204   0.00000  Uiso   1.00
N274   N     0.40553   0.31658   0.85486   0.00000  Uiso   1.00
N275   N     0.28422   0.64262   0.88172   0.00000  Uiso   1.00
N276   N     0.48841   0.68239   0.71258   0.00000  Uiso   1.00
C277   C     0.38721   0.94447   0.36472   0.00000  Uiso   1.00
C278   C     0.39381   0.00822   0.43829   0.00000  Uiso   1.00
C279   C     0.39144   0.06186   0.33807   0.00000  Uiso   1.00
C280   C     0.39849   0.11552   0.43040   0.00000  Uiso   1.00
C281   C     0.40735   0.21452   0.51639   0.00000  Uiso   1.00
C282   C     0.36230   0.91744   0.49160   0.00000  Uiso   1.00
C283   C     0.33343   0.89474   0.43619   0.00000  Uiso   1.00
C284   C     0.31395   0.87197   0.57341   0.00000  Uiso   1.00
C285   C     0.27390   0.82999   0.74214   0.00000  Uiso   1.00
C286   C     0.41697   0.90770   0.39878   0.00000  Uiso   1.00
C287   C     0.43406   0.87680   0.26534   0.00000  Uiso   1.00
C288   C     0.46060   0.84582   0.32441   0.00000  Uiso   1.00
C289   C     0.50542   0.78872   0.34903   0.00000  Uiso   1.00
C290   C     0.40394   0.94439   0.70693   0.00000  Uiso   1.00
C291   C     0.40290   0.00818   0.62417   0.00000  Uiso   1.00
C292   C     0.40995   0.06177   0.71668   0.00000  Uiso   1.00
C293   C     0.40759   0.11548   0.61661   0.00000  Uiso   1.00
C294   C     0.37139   0.91739   0.67747   0.00000  Uiso   1.00
C295   C     0.35194   0.89465   0.81480   0.00000  Uiso   1.00
C296   C     0.32305   0.87193   0.75962   0.00000  Uiso   1.00
C297   C     0.42606   0.90766   0.58466   0.00000  Uiso   1.00
C298   C     0.45257   0.87672   0.64395   0.00000  Uiso   1.00
C299   C     0.46970   0.84578   0.51062   0.00000  Uiso   1.00
H300   H     0.38013   0.94450   0.22002   0.00000  Uiso   1.00
H301   H     0.38440   0.06187   0.19423   0.00000  Uiso   1.00
H302   H     0.32641   0.89477   0.29234   0.00000  Uiso   1.00
H303   H     0.42702   0.87684   0.12151   0.00000  Uiso   1.00
H304   H     0.39314   0.19198   0.24763   0.00000  Uiso   1.00
H305   H     0.27085   0.83963   0.45449   0.00000  Uiso   1.00
H306   H     0.48301   0.80181   0.09427   0.00000  Uiso   1.00
H307   H     0.41101   0.94436   0.85165   0.00000  Uiso   1.00
H308   H     0.41699   0.06172   0.86052   0.00000  Uiso   1.00
H309   H     0.35899   0.89462   0.95863   0.00000  Uiso   1.00
H310   H     0.45960   0.87669   0.78780   0.00000  Uiso   1.00
H311   H     0.41958   0.19186   0.78842   0.00000  Uiso   1.00
H312   H     0.29730   0.83950   0.99527   0.00000  Uiso   1.00
H313   H     0.50946   0.80169   0.63505   0.00000  Uiso   1.00
O314   O     0.40972   0.26914   0.51248   0.00000  Uiso   1.00
O315   O     0.24929   0.80685   0.78386   0.00000  Uiso   1.00
O316   O     0.52764   0.75724   0.31126   0.00000  Uiso   1.00
N317   N     0.39855   0.17585   0.37368   0.00000  Uiso   1.00
N318   N     0.28422   0.84642   0.56708   0.00000  Uiso   1.00
N319   N     0.48256   0.81106   0.23031   0.00000  Uiso   1.00
N320   N     0.41278   0.17578   0.66467   0.00000  Uiso   1.00
N321   N     0.29845   0.84636   0.85807   0.00000  Uiso   1.00
N322   N     0.49679   0.81099   0.52130   0.00000  Uiso   1.00
C323   C     0.59987   0.44538   0.64219   0.00000  Uiso   1.00
C324   C     0.59817   0.51077   0.57235   0.00000  Uiso   1.00
C325   C     0.59295   0.56193   0.68043   0.00000  Uiso   1.00
C326   C     0.59223   0.61770   0.59037   0.00000  Uiso   1.00
C327   C     0.58893   0.71857   0.51103   0.00000  Uiso   1.00
C328   C     0.63161   0.42092   0.57976   0.00000  Uiso   1.00
C329   C     0.65450   0.39653   0.69407   0.00000  Uiso   1.00
C330   C     0.68193   0.37665   0.61023   0.00000  Uiso   1.00
C331   C     0.73054   0.33799   0.54238   0.00000  Uiso   1.00
C332   C     0.57533   0.40996   0.53314   0.00000  Uiso   1.00
C333   C     0.55091   0.37635   0.60826   0.00000  Uiso   1.00
C334   C     0.53095   0.34724   0.48518   0.00000  Uiso   1.00
C335   C     0.49218   0.29157   0.34495   0.00000  Uiso   1.00
C336   C     0.60786   0.45342   0.29004   0.00000  Uiso   1.00
C337   C     0.60251   0.51513   0.38107   0.00000  Uiso   1.00
C338   C     0.60179   0.57084   0.29082   0.00000  Uiso   1.00
C339   C     0.59657   0.62208   0.39875   0.00000  Uiso   1.00
C340   C     0.63595   0.42529   0.38849   0.00000  Uiso   1.00
C341   C     0.66334   0.40543   0.30445   0.00000  Uiso   1.00
C342   C     0.68628   0.38103   0.41861   0.00000  Uiso   1.00
C343   C     0.57966   0.41433   0.34186   0.00000  Uiso   1.00
C344   C     0.55975   0.38526   0.21864   0.00000  Uiso   1.00
C345   C     0.53530   0.35162   0.29355   0.00000  Uiso   1.00
H346   H     0.59650   0.44197   0.79111   0.00000  Uiso   1.00
H347   H     0.58960   0.55853   0.82846   0.00000  Uiso   1.00
H348   H     0.65114   0.39315   0.84209   0.00000  Uiso   1.00
H349   H     0.54756   0.37298   0.75629   0.00000  Uiso   1.00
H350   H     0.58387   0.68969   0.78553   0.00000  Uiso   1.00
H351   H     0.71363   0.34095   0.81425   0.00000  Uiso   1.00
H352   H     0.49521   0.29842   0.63334   0.00000  Uiso   1.00
H353   H     0.61124   0.45683   0.14111   0.00000  Uiso   1.00
H354   H     0.60515   0.57421   0.14279   0.00000  Uiso   1.00
H355   H     0.66669   0.40882   0.15643   0.00000  Uiso   1.00
H356   H     0.56311   0.38866   0.07063   0.00000  Uiso   1.00
H357   H     0.59650   0.70241   0.22902   0.00000  Uiso   1.00
H358   H     0.72625   0.35367   0.25775   0.00000  Uiso   1.00
H359   H     0.50784   0.31115   0.07682   0.00000  Uiso   1.00
O360   O     0.58592   0.77300   0.52012   0.00000  Uiso   1.00
O361   O     0.75615   0.31546   0.55780   0.00000  Uiso   1.00
O362   O     0.46960   0.25967   0.32044   0.00000  Uiso   1.00
N363   N     0.58767   0.67657   0.65432   0.00000  Uiso   1.00
N364   N     0.70899   0.35053   0.68118   0.00000  Uiso   1.00
N365   N     0.50479   0.31076   0.51204   0.00000  Uiso   1.00
N366   N     0.59447   0.68342   0.35486   0.00000  Uiso   1.00
N367   N     0.71578   0.35738   0.38172   0.00000  Uiso   1.00
N368   N     0.51159   0.31761   0.21258   0.00000  Uiso   1.00
