data_job_06477
_audit_creation_date              2018-12-19
_audit_creation_method            'Materials Studio'
_symmetry_space_group_name_H-M    'P1'
_symmetry_Int_Tables_number       1
_symmetry_cell_setting            triclinic
loop_
_symmetry_equiv_pos_as_xyz
  x,y,z
_cell_length_a                    20.2959
_cell_length_b                    20.8942
_cell_length_c                    19.1046
_cell_angle_alpha                 108.8890
_cell_angle_beta                  97.9649
_cell_angle_gamma                 105.8450
loop_
_atom_site_label
_atom_site_type_symbol
_atom_site_fract_x
_atom_site_fract_y
_atom_site_fract_z
_atom_site_U_iso_or_equiv
_atom_site_adp_type
_atom_site_occupancy
C1     C     0.93742   0.88394   0.25565   0.00000  Uiso   1.00
C2     C     0.86269   0.86701   0.21008   0.00000  Uiso   1.00
C3     C     0.83825   0.83462   0.13117   0.00000  Uiso   1.00
C4     C     0.76813   0.82379   0.10042   0.00000  Uiso   1.00
C5     C     0.65879   0.79438   0.02258   0.00000  Uiso   1.00
C6     C     0.96472   0.96443   0.30340   0.00000  Uiso   1.00
C7     C     0.02607   0.01394   0.30295   0.00000  Uiso   1.00
C8     C     0.04185   0.08511   0.35077   0.00000  Uiso   1.00
C9     C     0.09095   0.20693   0.41786   0.00000  Uiso   1.00
C10    C     0.92932   0.84666   0.31220   0.00000  Uiso   1.00
C11    C     0.96092   0.79717   0.31917   0.00000  Uiso   1.00
C12    C     0.94691   0.76920   0.37441   0.00000  Uiso   1.00
C13    C     0.94103   0.70816   0.45516   0.00000  Uiso   1.00
C14    C     0.85637   0.92229   0.34137   0.00000  Uiso   1.00
C15    C     0.81866   0.88785   0.25665   0.00000  Uiso   1.00
C16    C     0.74857   0.87706   0.22601   0.00000  Uiso   1.00
C17    C     0.72403   0.84466   0.14706   0.00000  Uiso   1.00
C18    C     0.92070   0.98526   0.34996   0.00000  Uiso   1.00
C19    C     0.93639   0.05637   0.39780   0.00000  Uiso   1.00
C20    C     0.99775   0.10598   0.39742   0.00000  Uiso   1.00
C21    C     0.88529   0.86749   0.35876   0.00000  Uiso   1.00
C22    C     0.87123   0.83960   0.41401   0.00000  Uiso   1.00
C23    C     0.90280   0.79007   0.42106   0.00000  Uiso   1.00
H24    H     0.97170   0.86772   0.21940   0.00000  Uiso   1.00
H25    H     0.87234   0.81852   0.09515   0.00000  Uiso   1.00
H26    H     0.06013   0.99780   0.26692   0.00000  Uiso   1.00
H27    H     0.99498   0.78106   0.28312   0.00000  Uiso   1.00
H28    H     0.74276   0.77318   0.97793   0.00000  Uiso   1.00
H29    H     0.13876   0.15120   0.34014   0.00000  Uiso   1.00
H30    H     0.00138   0.69416   0.37431   0.00000  Uiso   1.00
H31    H     0.82209   0.93851   0.37763   0.00000  Uiso   1.00
H32    H     0.71451   0.89319   0.26206   0.00000  Uiso   1.00
H33    H     0.90231   0.07247   0.43383   0.00000  Uiso   1.00
H34    H     0.83716   0.85573   0.45003   0.00000  Uiso   1.00
H35    H     0.61467   0.83378   0.11340   0.00000  Uiso   1.00
H36    H     0.01067   0.21181   0.47561   0.00000  Uiso   1.00
H37    H     0.87328   0.75477   0.50978   0.00000  Uiso   1.00
O38    O     0.61065   0.77241   0.96679   0.00000  Uiso   1.00
O39    O     0.13019   0.26836   0.44200   0.00000  Uiso   1.00
O40    O     0.94995   0.66873   0.48683   0.00000  Uiso   1.00
N41    N     0.72737   0.79365   0.02567   0.00000  Uiso   1.00
N42    N     0.09760   0.14708   0.36431   0.00000  Uiso   1.00
N43    N     0.96918   0.71980   0.39627   0.00000  Uiso   1.00
N44    N     0.65845   0.82626   0.09857   0.00000  Uiso   1.00
N45    N     0.02868   0.17970   0.43720   0.00000  Uiso   1.00
N46    N     0.90025   0.75241   0.46917   0.00000  Uiso   1.00
C47    C     0.19651   0.03036   0.84490   0.00000  Uiso   1.00
C48    C     0.13845   0.95733   0.81831   0.00000  Uiso   1.00
C49    C     0.06736   0.94230   0.78739   0.00000  Uiso   1.00
C50    C     0.02265   0.87213   0.76662   0.00000  Uiso   1.00
C51    C     0.92861   0.76682   0.72387   0.00000  Uiso   1.00
C52    C     0.23134   0.04835   0.92812   0.00000  Uiso   1.00
C53    C     0.23835   0.10986   0.98954   0.00000  Uiso   1.00
C54    C     0.27185   0.11632   0.06121   0.00000  Uiso   1.00
C55    C     0.32207   0.15236   0.18895   0.00000  Uiso   1.00
C56    C     0.25198   0.01831   0.80067   0.00000  Uiso   1.00
C57    C     0.27636   0.05457   0.75493   0.00000  Uiso   1.00
C58    C     0.32724   0.03574   0.71931   0.00000  Uiso   1.00
C59    C     0.40949   0.02513   0.64915   0.00000  Uiso   1.00
C60    C     0.24355   0.93246   0.86298   0.00000  Uiso   1.00
C61    C     0.16400   0.90415   0.82813   0.00000  Uiso   1.00
C62    C     0.11939   0.83398   0.80740   0.00000  Uiso   1.00
C63    C     0.04824   0.81885   0.77646   0.00000  Uiso   1.00
C64    C     0.25689   0.99518   0.93795   0.00000  Uiso   1.00
C65    C     0.29039   0.00154   0.00955   0.00000  Uiso   1.00
C66    C     0.29745   0.06304   0.07105   0.00000  Uiso   1.00
C67    C     0.27752   0.96513   0.81049   0.00000  Uiso   1.00
C68    C     0.32839   0.94625   0.77494   0.00000  Uiso   1.00
C69    C     0.35283   0.98247   0.72915   0.00000  Uiso   1.00
H70    H     0.17663   0.07176   0.83726   0.00000  Uiso   1.00
H71    H     0.04761   0.98347   0.77981   0.00000  Uiso   1.00
H72    H     0.21859   0.15101   0.98192   0.00000  Uiso   1.00
H73    H     0.25657   0.09572   0.74734   0.00000  Uiso   1.00
H74    H     0.91582   0.86214   0.72047   0.00000  Uiso   1.00
H75    H     0.27636   0.21541   0.14663   0.00000  Uiso   1.00
H76    H     0.35647   0.09883   0.65199   0.00000  Uiso   1.00
H77    H     0.26344   0.89106   0.87063   0.00000  Uiso   1.00
H78    H     0.13918   0.79284   0.81501   0.00000  Uiso   1.00
H79    H     0.31016   0.96038   0.01712   0.00000  Uiso   1.00
H80    H     0.34815   0.90509   0.78255   0.00000  Uiso   1.00
H81    H     0.99015   0.70742   0.74905   0.00000  Uiso   1.00
H82    H     0.35069   0.06069   0.17521   0.00000  Uiso   1.00
H83    H     0.43080   0.94411   0.68056   0.00000  Uiso   1.00
O84    O     0.86967   0.72343   0.69759   0.00000  Uiso   1.00
O85    O     0.34270   0.18692   0.25669   0.00000  Uiso   1.00
O86    O     0.44780   0.03396   0.60773   0.00000  Uiso   1.00
N87    N     0.95037   0.83920   0.73481   0.00000  Uiso   1.00
N88    N     0.28744   0.16948   0.13325   0.00000  Uiso   1.00
N89    N     0.36235   0.06050   0.67082   0.00000  Uiso   1.00
N90    N     0.99036   0.75594   0.75019   0.00000  Uiso   1.00
N91    N     0.32744   0.08623   0.14863   0.00000  Uiso   1.00
N92    N     0.40235   0.97725   0.68619   0.00000  Uiso   1.00
C93    C     0.75559   0.18339   0.87162   0.00000  Uiso   1.00
C94    C     0.76503   0.15262   0.79109   0.00000  Uiso   1.00
C95    C     0.72789   0.08380   0.73747   0.00000  Uiso   1.00
C96    C     0.74430   0.06595   0.66704   0.00000  Uiso   1.00
C97    C     0.75112   0.01068   0.54446   0.00000  Uiso   1.00
C98    C     0.82837   0.20824   0.92551   0.00000  Uiso   1.00
C99    C     0.84449   0.18617   0.98492   0.00000  Uiso   1.00
C100   C     0.91422   0.21514   0.02765   0.00000  Uiso   1.00
C101   C     0.01937   0.24625   0.11381   0.00000  Uiso   1.00
C102   C     0.73859   0.25145   0.87788   0.00000  Uiso   1.00
C103   C     0.67923   0.26574   0.89725   0.00000  Uiso   1.00
C104   C     0.67338   0.33111   0.89990   0.00000  Uiso   1.00
C105   C     0.63913   0.42931   0.91210   0.00000  Uiso   1.00
C106   C     0.85076   0.27409   0.84188   0.00000  Uiso   1.00
C107   C     0.81672   0.20189   0.77494   0.00000  Uiso   1.00
C108   C     0.83319   0.18415   0.70457   0.00000  Uiso   1.00
C109   C     0.79608   0.11530   0.65085   0.00000  Uiso   1.00
C110   C     0.88007   0.25750   0.90936   0.00000  Uiso   1.00
C111   C     0.94979   0.28652   0.95202   0.00000  Uiso   1.00
C112   C     0.96601   0.26450   0.01147   0.00000  Uiso   1.00
C113   C     0.79028   0.30072   0.86172   0.00000  Uiso   1.00
C114   C     0.78452   0.36608   0.86434   0.00000  Uiso   1.00
C115   C     0.72516   0.38046   0.88372   0.00000  Uiso   1.00
H116   H     0.71535   0.14503   0.88420   0.00000  Uiso   1.00
H117   H     0.68790   0.04568   0.74999   0.00000  Uiso   1.00
H118   H     0.80448   0.14805   0.99741   0.00000  Uiso   1.00
H119   H     0.63924   0.22760   0.90975   0.00000  Uiso   1.00
H120   H     0.68028   0.95725   0.59409   0.00000  Uiso   1.00
H121   H     0.92609   0.17311   0.11580   0.00000  Uiso   1.00
H122   H     0.57765   0.34086   0.93096   0.00000  Uiso   1.00
H123   H     0.89101   0.31245   0.82930   0.00000  Uiso   1.00
H124   H     0.87319   0.22228   0.69208   0.00000  Uiso   1.00
H125   H     0.98977   0.32464   0.93950   0.00000  Uiso   1.00
H126   H     0.82454   0.40420   0.85184   0.00000  Uiso   1.00
H127   H     0.83067   0.10059   0.54709   0.00000  Uiso   1.00
H128   H     0.07648   0.31645   0.06880   0.00000  Uiso   1.00
H129   H     0.72805   0.48420   0.88395   0.00000  Uiso   1.00
O130   O     0.74060   0.96658   0.48132   0.00000  Uiso   1.00
O131   O     0.06309   0.24979   0.16580   0.00000  Uiso   1.00
O132   O     0.60595   0.46987   0.92327   0.00000  Uiso   1.00
N133   N     0.71811   0.00337   0.60186   0.00000  Uiso   1.00
N134   N     0.94793   0.20517   0.08962   0.00000  Uiso   1.00
N135   N     0.62218   0.36201   0.91682   0.00000  Uiso   1.00
N136   N     0.79903   0.08049   0.57656   0.00000  Uiso   1.00
N137   N     0.02885   0.28230   0.06433   0.00000  Uiso   1.00
N138   N     0.70310   0.43914   0.89153   0.00000  Uiso   1.00
C139   C     0.45205   0.71307   0.21226   0.00000  Uiso   1.00
C140   C     0.38090   0.65459   0.19449   0.00000  Uiso   1.00
C141   C     0.37001   0.58200   0.17655   0.00000  Uiso   1.00
C142   C     0.30095   0.53715   0.16217   0.00000  Uiso   1.00
C143   C     0.19902   0.44226   0.13409   0.00000  Uiso   1.00
C144   C     0.46080   0.76894   0.29083   0.00000  Uiso   1.00
C145   C     0.51710   0.79250   0.35388   0.00000  Uiso   1.00
C146   C     0.51530   0.84392   0.42059   0.00000  Uiso   1.00
C147   C     0.53745   0.92659   0.54206   0.00000  Uiso   1.00
C148   C     0.44365   0.74958   0.15583   0.00000  Uiso   1.00
C149   C     0.48553   0.75688   0.10539   0.00000  Uiso   1.00
C150   C     0.46930   0.79201   0.05845   0.00000  Uiso   1.00
C151   C     0.46481   0.84462   0.97032   0.00000  Uiso   1.00
C152   C     0.34876   0.76251   0.21863   0.00000  Uiso   1.00
C153   C     0.32480   0.68144   0.19796   0.00000  Uiso   1.00
C154   C     0.25574   0.63669   0.18360   0.00000  Uiso   1.00
C155   C     0.24475   0.56405   0.16563   0.00000  Uiso   1.00
C156   C     0.40471   0.79579   0.29429   0.00000  Uiso   1.00
C157   C     0.40283   0.84719   0.36093   0.00000  Uiso   1.00
C158   C     0.45910   0.87082   0.42406   0.00000  Uiso   1.00
C159   C     0.38755   0.77643   0.15929   0.00000  Uiso   1.00
C160   C     0.37125   0.81156   0.11243   0.00000  Uiso   1.00
C161   C     0.41310   0.81891   0.06192   0.00000  Uiso   1.00
H162   H     0.49572   0.69217   0.20957   0.00000  Uiso   1.00
H163   H     0.41344   0.56124   0.17388   0.00000  Uiso   1.00
H164   H     0.56051   0.77171   0.35118   0.00000  Uiso   1.00
H165   H     0.52894   0.73609   0.10273   0.00000  Uiso   1.00
H166   H     0.29748   0.42793   0.13587   0.00000  Uiso   1.00
H167   H     0.60759   0.87173   0.50970   0.00000  Uiso   1.00
H168   H     0.54103   0.79662   0.98579   0.00000  Uiso   1.00
H169   H     0.30508   0.78341   0.22133   0.00000  Uiso   1.00
H170   H     0.21234   0.65749   0.18628   0.00000  Uiso   1.00
H171   H     0.35940   0.86796   0.36358   0.00000  Uiso   1.00
H172   H     0.32784   0.83233   0.11512   0.00000  Uiso   1.00
H173   H     0.13426   0.50604   0.14593   0.00000  Uiso   1.00
H174   H     0.44437   0.94985   0.51977   0.00000  Uiso   1.00
H175   H     0.37780   0.87474   0.99585   0.00000  Uiso   1.00
O176   O     0.15830   0.38251   0.11766   0.00000  Uiso   1.00
O177   O     0.56516   0.96477   0.60811   0.00000  Uiso   1.00
O178   O     0.47782   0.86622   0.92075   0.00000  Uiso   1.00
N179   N     0.27179   0.46359   0.14303   0.00000  Uiso   1.00
N180   N     0.56172   0.87851   0.49255   0.00000  Uiso   1.00
N181   N     0.49950   0.80831   0.00275   0.00000  Uiso   1.00
N182   N     0.18396   0.50563   0.14845   0.00000  Uiso   1.00
N183   N     0.47389   0.92055   0.49796   0.00000  Uiso   1.00
N184   N     0.41167   0.85034   0.00816   0.00000  Uiso   1.00
C185   C     0.63464   0.33363   0.40206   0.00000  Uiso   1.00
C186   C     0.63464   0.33390   0.32233   0.00000  Uiso   1.00
C187   C     0.57878   0.29495   0.25783   0.00000  Uiso   1.00
C188   C     0.58924   0.30253   0.19024   0.00000  Uiso   1.00
C189   C     0.57948   0.29614   0.06689   0.00000  Uiso   1.00
C190   C     0.65262   0.41187   0.45472   0.00000  Uiso   1.00
C191   C     0.61188   0.43848   0.50152   0.00000  Uiso   1.00
C192   C     0.63749   0.51170   0.54538   0.00000  Uiso   1.00
C193   C     0.65567   0.62635   0.62760   0.00000  Uiso   1.00
C194   C     0.69747   0.31182   0.42548   0.00000  Uiso   1.00
C195   C     0.69445   0.25430   0.44773   0.00000  Uiso   1.00
C196   C     0.75782   0.24329   0.46699   0.00000  Uiso   1.00
C197   C     0.84564   0.20259   0.50382   0.00000  Uiso   1.00
C198   C     0.75255   0.41636   0.39673   0.00000  Uiso   1.00
C199   C     0.69868   0.37884   0.31944   0.00000  Uiso   1.00
C200   C     0.70924   0.38648   0.25193   0.00000  Uiso   1.00
C201   C     0.65340   0.34754   0.18734   0.00000  Uiso   1.00
C202   C     0.71666   0.45681   0.45182   0.00000  Uiso   1.00
C203   C     0.74234   0.53000   0.49563   0.00000  Uiso   1.00
C204   C     0.70165   0.55671   0.54248   0.00000  Uiso   1.00
C205   C     0.76152   0.35675   0.42259   0.00000  Uiso   1.00
C206   C     0.82490   0.34583   0.44183   0.00000  Uiso   1.00
C207   C     0.82198   0.28831   0.46409   0.00000  Uiso   1.00
H208   H     0.58478   0.29865   0.40432   0.00000  Uiso   1.00
H209   H     0.52922   0.26019   0.26009   0.00000  Uiso   1.00
H210   H     0.56233   0.40369   0.50375   0.00000  Uiso   1.00
H211   H     0.64488   0.21955   0.44996   0.00000  Uiso   1.00
H212   H     0.49586   0.23738   0.09892   0.00000  Uiso   1.00
H213   H     0.56567   0.53996   0.61271   0.00000  Uiso   1.00
H214   H     0.73975   0.15165   0.49928   0.00000  Uiso   1.00
H215   H     0.80242   0.45134   0.39448   0.00000  Uiso   1.00
H216   H     0.75880   0.42125   0.24971   0.00000  Uiso   1.00
H217   H     0.79191   0.56475   0.49338   0.00000  Uiso   1.00
H218   H     0.87446   0.38061   0.43958   0.00000  Uiso   1.00
H219   H     0.68220   0.36811   0.09050   0.00000  Uiso   1.00
H220   H     0.75201   0.67068   0.60430   0.00000  Uiso   1.00
H221   H     0.92609   0.28238   0.49086   0.00000  Uiso   1.00
O222   O     0.55640   0.28021   0.99966   0.00000  Uiso   1.00
O223   O     0.64800   0.67718   0.67375   0.00000  Uiso   1.00
O224   O     0.87638   0.16773   0.52492   0.00000  Uiso   1.00
N225   N     0.54571   0.27226   0.11680   0.00000  Uiso   1.00
N226   N     0.61097   0.55516   0.59716   0.00000  Uiso   1.00
N227   N     0.77372   0.19213   0.49113   0.00000  Uiso   1.00
N228   N     0.64597   0.34261   0.11227   0.00000  Uiso   1.00
N229   N     0.71124   0.62550   0.59263   0.00000  Uiso   1.00
N230   N     0.87398   0.26248   0.48660   0.00000  Uiso   1.00
C231   C     0.32558   0.47104   0.66156   0.00000  Uiso   1.00
C232   C     0.31420   0.39444   0.60850   0.00000  Uiso   1.00
C233   C     0.29468   0.36786   0.52928   0.00000  Uiso   1.00
C234   C     0.28698   0.29628   0.49110   0.00000  Uiso   1.00
C235   C     0.26760   0.18394   0.40268   0.00000  Uiso   1.00
C236   C     0.40057   0.49967   0.71197   0.00000  Uiso   1.00
C237   C     0.45366   0.56157   0.71974   0.00000  Uiso   1.00
C238   C     0.51867   0.57857   0.76867   0.00000  Uiso   1.00
C239   C     0.63337   0.62963   0.84093   0.00000  Uiso   1.00
C240   C     0.27639   0.46431   0.71429   0.00000  Uiso   1.00
C241   C     0.22509   0.49649   0.72404   0.00000  Uiso   1.00
C242   C     0.18555   0.48374   0.77494   0.00000  Uiso   1.00
C243   C     0.10745   0.47989   0.85080   0.00000  Uiso   1.00
C244   C     0.34661   0.39120   0.73465   0.00000  Uiso   1.00
C245   C     0.32563   0.35107   0.64821   0.00000  Uiso   1.00
C246   C     0.31795   0.27951   0.61014   0.00000  Uiso   1.00
C247   C     0.29842   0.25283   0.53087   0.00000  Uiso   1.00
C248   C     0.41200   0.45630   0.75167   0.00000  Uiso   1.00
C249   C     0.47693   0.47322   0.80061   0.00000  Uiso   1.00
C250   C     0.53011   0.53513   0.80845   0.00000  Uiso   1.00
C251   C     0.28781   0.42094   0.75400   0.00000  Uiso   1.00
C252   C     0.24835   0.40814   0.80490   0.00000  Uiso   1.00
C253   C     0.19700   0.44029   0.81471   0.00000  Uiso   1.00
H254   H     0.31669   0.50481   0.63066   0.00000  Uiso   1.00
H255   H     0.28585   0.40144   0.49857   0.00000  Uiso   1.00
H256   H     0.44481   0.59512   0.68902   0.00000  Uiso   1.00
H257   H     0.21626   0.53005   0.69330   0.00000  Uiso   1.00
H258   H     0.25672   0.26771   0.36964   0.00000  Uiso   1.00
H259   H     0.59188   0.67611   0.77122   0.00000  Uiso   1.00
H260   H     0.10995   0.53890   0.78027   0.00000  Uiso   1.00
H261   H     0.35551   0.35743   0.76556   0.00000  Uiso   1.00
H262   H     0.32679   0.24596   0.64088   0.00000  Uiso   1.00
H263   H     0.48575   0.43965   0.83133   0.00000  Uiso   1.00
H264   H     0.25721   0.37458   0.83561   0.00000  Uiso   1.00
H265   H     0.28996   0.14152   0.48514   0.00000  Uiso   1.00
H266   H     0.62511   0.54993   0.88673   0.00000  Uiso   1.00
H267   H     0.14319   0.41271   0.89577   0.00000  Uiso   1.00
O268   O     0.25377   0.13396   0.34294   0.00000  Uiso   1.00
O269   O     0.69348   0.66977   0.86981   0.00000  Uiso   1.00
O270   O     0.06120   0.48974   0.88167   0.00000  Uiso   1.00
N271   N     0.26847   0.25331   0.41394   0.00000  Uiso   1.00
N272   N     0.58183   0.63513   0.78938   0.00000  Uiso   1.00
N273   N     0.13128   0.50686   0.79785   0.00000  Uiso   1.00
N274   N     0.28635   0.18540   0.47609   0.00000  Uiso   1.00
N275   N     0.59971   0.56723   0.85153   0.00000  Uiso   1.00
N276   N     0.14916   0.43896   0.86000   0.00000  Uiso   1.00
C277   C     0.02845   0.21824   0.77911   0.00000  Uiso   1.00
C278   C     0.10002   0.23444   0.83112   0.00000  Uiso   1.00
C279   C     0.11828   0.26596   0.91030   0.00000  Uiso   1.00
C280   C     0.18639   0.27623   0.94744   0.00000  Uiso   1.00
C281   C     0.29019   0.30448   0.03438   0.00000  Uiso   1.00
C282   C     0.00236   0.13795   0.73065   0.00000  Uiso   1.00
C283   C     0.93851   0.08834   0.72535   0.00000  Uiso   1.00
C284   C     0.92441   0.01739   0.67790   0.00000  Uiso   1.00
C285   C     0.87658   0.89583   0.60882   0.00000  Uiso   1.00
C286   C     0.04360   0.25642   0.72426   0.00000  Uiso   1.00
C287   C     0.01440   0.30641   0.71358   0.00000  Uiso   1.00
C288   C     0.03500   0.33519   0.66074   0.00000  Uiso   1.00
C289   C     0.05119   0.39758   0.58175   0.00000  Uiso   1.00
C290   C     0.11692   0.18044   0.70425   0.00000  Uiso   1.00
C291   C     0.14807   0.21391   0.79045   0.00000  Uiso   1.00
C292   C     0.21616   0.22414   0.82748   0.00000  Uiso   1.00
C293   C     0.23453   0.25567   0.90671   0.00000  Uiso   1.00
C294   C     0.05041   0.11742   0.68999   0.00000  Uiso   1.00
C295   C     0.03639   0.04652   0.64253   0.00000  Uiso   1.00
C296   C     0.97255   0.99681   0.63717   0.00000  Uiso   1.00
C297   C     0.09165   0.23589   0.68360   0.00000  Uiso   1.00
C298   C     0.11229   0.26459   0.63076   0.00000  Uiso   1.00
C299   C     0.08314   0.31461   0.62001   0.00000  Uiso   1.00
H300   H     0.99104   0.23422   0.81076   0.00000  Uiso   1.00
H301   H     0.08108   0.28184   0.94174   0.00000  Uiso   1.00
H302   H     0.90134   0.10425   0.75681   0.00000  Uiso   1.00
H303   H     0.97722   0.32228   0.74505   0.00000  Uiso   1.00
H304   H     0.20209   0.32555   0.06904   0.00000  Uiso   1.00
H305   H     0.82308   0.95110   0.67909   0.00000  Uiso   1.00
H306   H     0.98309   0.41087   0.65427   0.00000  Uiso   1.00
H307   H     0.15433   0.16445   0.67259   0.00000  Uiso   1.00
H308   H     0.25334   0.20824   0.79601   0.00000  Uiso   1.00
H309   H     0.07359   0.03065   0.61108   0.00000  Uiso   1.00
H310   H     0.14948   0.24868   0.59931   0.00000  Uiso   1.00
H311   H     0.34190   0.26581   0.95075   0.00000  Uiso   1.00
H312   H     0.96289   0.89136   0.56080   0.00000  Uiso   1.00
H313   H     0.12291   0.35113   0.53599   0.00000  Uiso   1.00
O314   O     0.33417   0.32572   0.09357   0.00000  Uiso   1.00
O315   O     0.83692   0.83446   0.58196   0.00000  Uiso   1.00
O316   O     0.04686   0.43767   0.54941   0.00000  Uiso   1.00
N317   N     0.22141   0.30550   0.02426   0.00000  Uiso   1.00
N318   N     0.86707   0.95540   0.65969   0.00000  Uiso   1.00
N319   N     0.01665   0.38523   0.63648   0.00000  Uiso   1.00
N320   N     0.29664   0.27335   0.96062   0.00000  Uiso   1.00
N321   N     0.94230   0.92326   0.59604   0.00000  Uiso   1.00
N322   N     0.09188   0.35309   0.57283   0.00000  Uiso   1.00
C323   C     0.83873   0.08658   0.21279   0.00000  Uiso   1.00
C324   C     0.84877   0.16032   0.20900   0.00000  Uiso   1.00
C325   C     0.90578   0.22260   0.25159   0.00000  Uiso   1.00
C326   C     0.90513   0.28462   0.23981   0.00000  Uiso   1.00
C327   C     0.92921   0.39916   0.24189   0.00000  Uiso   1.00
C328   C     0.82963   0.03545   0.13150   0.00000  Uiso   1.00
C329   C     0.87054   0.99275   0.10895   0.00000  Uiso   1.00
C330   C     0.85377   0.94966   0.03193   0.00000  Uiso   1.00
C331   C     0.84810   0.87031   0.91370   0.00000  Uiso   1.00
C332   C     0.76753   0.06354   0.23160   0.00000  Uiso   1.00
C333   C     0.75623   0.04443   0.29320   0.00000  Uiso   1.00
C334   C     0.68718   0.02497   0.30045   0.00000  Uiso   1.00
C335   C     0.58509   0.98923   0.33765   0.00000  Uiso   1.00
C336   C     0.73619   0.08596   0.11611   0.00000  Uiso   1.00
C337   C     0.79307   0.15998   0.15648   0.00000  Uiso   1.00
C338   C     0.79233   0.22192   0.14463   0.00000  Uiso   1.00
C339   C     0.84934   0.28429   0.18721   0.00000  Uiso   1.00
C340   C     0.77394   0.03512   0.07899   0.00000  Uiso   1.00
C341   C     0.75710   0.99207   0.00198   0.00000  Uiso   1.00
C342   C     0.79798   0.94932   0.97932   0.00000  Uiso   1.00
C343   C     0.71184   0.06321   0.17909   0.00000  Uiso   1.00
C344   C     0.64279   0.04376   0.18624   0.00000  Uiso   1.00
C345   C     0.63138   0.02463   0.24784   0.00000  Uiso   1.00
H346   H     0.88209   0.08683   0.25366   0.00000  Uiso   1.00
H347   H     0.94888   0.22284   0.29222   0.00000  Uiso   1.00
H348   H     0.91364   0.99302   0.14960   0.00000  Uiso   1.00
H349   H     0.79935   0.04470   0.33383   0.00000  Uiso   1.00
H350   H     0.99837   0.37347   0.31179   0.00000  Uiso   1.00
H351   H     0.92405   0.88886   0.01107   0.00000  Uiso   1.00
H352   H     0.68304   0.99784   0.39955   0.00000  Uiso   1.00
H353   H     0.69283   0.08570   0.07522   0.00000  Uiso   1.00
H354   H     0.74923   0.22165   0.10399   0.00000  Uiso   1.00
H355   H     0.71399   0.99183   0.96136   0.00000  Uiso   1.00
H356   H     0.59970   0.04351   0.14559   0.00000  Uiso   1.00
H357   H     0.83633   0.37250   0.15901   0.00000  Uiso   1.00
H358   H     0.76201   0.88789   0.85829   0.00000  Uiso   1.00
H359   H     0.52100   0.99687   0.24677   0.00000  Uiso   1.00
O360   O     0.95788   0.46243   0.25753   0.00000  Uiso   1.00
O361   O     0.86036   0.82664   0.86299   0.00000  Uiso   1.00
O362   O     0.54417   0.96961   0.37268   0.00000  Uiso   1.00
N363   N     0.95249   0.35459   0.27190   0.00000  Uiso   1.00
N364   N     0.88301   0.90152   0.99074   0.00000  Uiso   1.00
N365   N     0.65769   0.00338   0.35393   0.00000  Uiso   1.00
N366   N     0.86529   0.35407   0.18969   0.00000  Uiso   1.00
N367   N     0.79582   0.90100   0.90853   0.00000  Uiso   1.00
N368   N     0.57049   0.00286   0.27172   0.00000  Uiso   1.00
C369   C     0.12846   0.78356   0.00163   0.00000  Uiso   1.00
C370   C     0.15153   0.81584   0.08868   0.00000  Uiso   1.00
C371   C     0.17033   0.88809   0.13432   0.00000  Uiso   1.00
C372   C     0.18986   0.90681   0.21277   0.00000  Uiso   1.00
C373   C     0.22555   0.96480   0.34313   0.00000  Uiso   1.00
C374   C     0.05603   0.72607   0.98063   0.00000  Uiso   1.00
C375   C     0.99453   0.72284   0.93541   0.00000  Uiso   1.00
C376   C     0.93365   0.66598   0.92291   0.00000  Uiso   1.00
C377   C     0.82108   0.58456   0.88548   0.00000  Uiso   1.00
C378   C     0.17867   0.74350   0.97544   0.00000  Uiso   1.00
C379   C     0.22028   0.75491   0.92584   0.00000  Uiso   1.00
C380   C     0.26265   0.71271   0.90894   0.00000  Uiso   1.00
C381   C     0.34049   0.65837   0.86345   0.00000  Uiso   1.00
C382   C     0.12971   0.68831   0.05980   0.00000  Uiso   1.00
C383   C     0.15221   0.76410   0.12027   0.00000  Uiso   1.00
C384   C     0.17171   0.78271   0.19868   0.00000  Uiso   1.00
C385   C     0.19054   0.85498   0.24442   0.00000  Uiso   1.00
C386   C     0.05670   0.67433   0.01222   0.00000  Uiso   1.00
C387   C     0.99590   0.61746   0.99977   0.00000  Uiso   1.00
C388   C     0.93433   0.61415   0.95456   0.00000  Uiso   1.00
C389   C     0.17935   0.69177   0.00703   0.00000  Uiso   1.00
C390   C     0.22166   0.64954   0.99020   0.00000  Uiso   1.00
C391   C     0.26333   0.66089   0.94059   0.00000  Uiso   1.00
H392   H     0.12793   0.82383   0.97703   0.00000  Uiso   1.00
H393   H     0.16980   0.92811   0.10984   0.00000  Uiso   1.00
H394   H     0.99402   0.76288   0.91097   0.00000  Uiso   1.00
H395   H     0.21974   0.79495   0.90140   0.00000  Uiso   1.00
H396   H     0.21649   0.02090   0.27103   0.00000  Uiso   1.00
H397   H     0.84586   0.67249   0.85167   0.00000  Uiso   1.00
H398   H     0.32183   0.74012   0.83148   0.00000  Uiso   1.00
H399   H     0.13023   0.64803   0.08440   0.00000  Uiso   1.00
H400   H     0.17223   0.74267   0.22311   0.00000  Uiso   1.00
H401   H     0.99645   0.57744   0.02423   0.00000  Uiso   1.00
H402   H     0.22217   0.60951   0.01466   0.00000  Uiso   1.00
H403   H     0.21846   0.87039   0.36296   0.00000  Uiso   1.00
H404   H     0.84783   0.52198   0.94359   0.00000  Uiso   1.00
H405   H     0.32380   0.58960   0.92342   0.00000  Uiso   1.00
O406   O     0.24504   0.01107   0.40631   0.00000  Uiso   1.00
O407   O     0.75879   0.55396   0.85611   0.00000  Uiso   1.00
O408   O     0.38325   0.64269   0.82963   0.00000  Uiso   1.00
N409   N     0.21120   0.97250   0.27363   0.00000  Uiso   1.00
N410   N     0.86469   0.64676   0.88156   0.00000  Uiso   1.00
N411   N     0.30966   0.70997   0.86267   0.00000  Uiso   1.00
N412   N     0.21226   0.89151   0.32310   0.00000  Uiso   1.00
N413   N     0.86575   0.56577   0.93103   0.00000  Uiso   1.00
N414   N     0.31072   0.62898   0.91214   0.00000  Uiso   1.00
C415   C     0.54438   0.29129   0.61428   0.00000  Uiso   1.00
C416   C     0.62464   0.31165   0.63119   0.00000  Uiso   1.00
C417   C     0.67208   0.37759   0.64054   0.00000  Uiso   1.00
C418   C     0.74341   0.38558   0.65567   0.00000  Uiso   1.00
C419   C     0.86453   0.42571   0.68104   0.00000  Uiso   1.00
C420   C     0.51508   0.22402   0.54107   0.00000  Uiso   1.00
C421   C     0.47041   0.21628   0.47466   0.00000  Uiso   1.00
C422   C     0.44950   0.15050   0.41393   0.00000  Uiso   1.00
C423   C     0.40050   0.05457   0.29941   0.00000  Uiso   1.00
C424   C     0.52239   0.26755   0.67759   0.00000  Uiso   1.00
C425   C     0.48385   0.29639   0.72596   0.00000  Uiso   1.00
C426   C     0.46909   0.26724   0.78017   0.00000  Uiso   1.00
C427   C     0.43144   0.23889   0.87762   0.00000  Uiso   1.00
C428   C     0.58666   0.18822   0.62452   0.00000  Uiso   1.00
C429   C     0.64760   0.25567   0.63674   0.00000  Uiso   1.00
C430   C     0.71887   0.26356   0.65187   0.00000  Uiso   1.00
C431   C     0.76642   0.32950   0.66124   0.00000  Uiso   1.00
C432   C     0.53805   0.16804   0.54663   0.00000  Uiso   1.00
C433   C     0.51719   0.10226   0.48599   0.00000  Uiso   1.00
C434   C     0.47251   0.09442   0.41950   0.00000  Uiso   1.00
C435   C     0.54536   0.21157   0.68316   0.00000  Uiso   1.00
C436   C     0.53064   0.18237   0.73729   0.00000  Uiso   1.00
C437   C     0.49210   0.21116   0.78574   0.00000  Uiso   1.00
H438   H     0.52649   0.33487   0.60994   0.00000  Uiso   1.00
H439   H     0.65429   0.42090   0.63622   0.00000  Uiso   1.00
H440   H     0.45264   0.25961   0.47037   0.00000  Uiso   1.00
H441   H     0.46609   0.33971   0.72164   0.00000  Uiso   1.00
H442   H     0.80610   0.49159   0.66778   0.00000  Uiso   1.00
H443   H     0.38090   0.15150   0.31809   0.00000  Uiso   1.00
H444   H     0.40925   0.32040   0.84793   0.00000  Uiso   1.00
H445   H     0.60454   0.14464   0.62885   0.00000  Uiso   1.00
H446   H     0.73663   0.22023   0.65617   0.00000  Uiso   1.00
H447   H     0.53498   0.05895   0.49031   0.00000  Uiso   1.00
H448   H     0.54843   0.13905   0.74158   0.00000  Uiso   1.00
H449   H     0.87293   0.32872   0.68397   0.00000  Uiso   1.00
H450   H     0.44772   0.98863   0.33427   0.00000  Uiso   1.00
H451   H     0.47608   0.15753   0.86411   0.00000  Uiso   1.00
O452   O     0.92500   0.46331   0.69348   0.00000  Uiso   1.00
O453   O     0.36713   0.01712   0.23470   0.00000  Uiso   1.00
O454   O     0.40434   0.23872   0.92984   0.00000  Uiso   1.00
N455   N     0.80370   0.44289   0.66786   0.00000  Uiso   1.00
N456   N     0.40617   0.12493   0.34091   0.00000  Uiso   1.00
N457   N     0.43266   0.28282   0.83625   0.00000  Uiso   1.00
N458   N     0.83966   0.35525   0.67657   0.00000  Uiso   1.00
N459   N     0.44213   0.03729   0.34962   0.00000  Uiso   1.00
N460   N     0.46862   0.19519   0.84496   0.00000  Uiso   1.00
C461   C     0.32284   0.75597   0.51115   0.00000  Uiso   1.00
C462   C     0.37880   0.77363   0.58309   0.00000  Uiso   1.00
C463   C     0.45102   0.79081   0.58960   0.00000  Uiso   1.00
C464   C     0.49341   0.80522   0.66028   0.00000  Uiso   1.00
C465   C     0.58470   0.83301   0.76256   0.00000  Uiso   1.00
C466   C     0.27013   0.68204   0.49516   0.00000  Uiso   1.00
C467   C     0.25098   0.62222   0.42773   0.00000  Uiso   1.00
C468   C     0.20189   0.55953   0.42438   0.00000  Uiso   1.00
C469   C     0.12443   0.44514   0.39012   0.00000  Uiso   1.00
C470   C     0.28317   0.80885   0.53328   0.00000  Uiso   1.00
C471   C     0.27495   0.85564   0.49791   0.00000  Uiso   1.00
C472   C     0.23682   0.89971   0.52665   0.00000  Uiso   1.00
C473   C     0.17960   0.98221   0.55159   0.00000  Uiso   1.00
C474   C     0.26971   0.75102   0.62509   0.00000  Uiso   1.00
C475   C     0.34994   0.77093   0.64498   0.00000  Uiso   1.00
C476   C     0.39224   0.78533   0.71567   0.00000  Uiso   1.00
C477   C     0.46451   0.80253   0.72228   0.00000  Uiso   1.00
C478   C     0.24128   0.67935   0.55704   0.00000  Uiso   1.00
C479   C     0.19220   0.61674   0.55379   0.00000  Uiso   1.00
C480   C     0.17298   0.55684   0.48638   0.00000  Uiso   1.00
C481   C     0.25431   0.80616   0.59518   0.00000  Uiso   1.00
C482   C     0.21618   0.85016   0.62398   0.00000  Uiso   1.00
C483   C     0.20791   0.89701   0.58865   0.00000  Uiso   1.00
H484   H     0.34530   0.75807   0.46296   0.00000  Uiso   1.00
H485   H     0.47333   0.79288   0.54169   0.00000  Uiso   1.00
H486   H     0.27331   0.62432   0.37984   0.00000  Uiso   1.00
H487   H     0.29729   0.85771   0.45001   0.00000  Uiso   1.00
H488   H     0.60254   0.83027   0.65625   0.00000  Uiso   1.00
H489   H     0.18079   0.47486   0.31498   0.00000  Uiso   1.00
H490   H     0.23134   0.96700   0.46295   0.00000  Uiso   1.00
H491   H     0.24724   0.74892   0.67328   0.00000  Uiso   1.00
H492   H     0.36989   0.78324   0.76355   0.00000  Uiso   1.00
H493   H     0.16988   0.61467   0.60170   0.00000  Uiso   1.00
H494   H     0.19385   0.84806   0.67187   0.00000  Uiso   1.00
H495   H     0.51859   0.82244   0.83632   0.00000  Uiso   1.00
H496   H     0.09683   0.46702   0.49505   0.00000  Uiso   1.00
H497   H     0.14739   0.95917   0.64302   0.00000  Uiso   1.00
O498   O     0.64302   0.84907   0.80187   0.00000  Uiso   1.00
O499   O     0.08968   0.38279   0.35413   0.00000  Uiso   1.00
O500   O     0.15601   0.02847   0.54826   0.00000  Uiso   1.00
N501   N     0.56595   0.82373   0.68625   0.00000  Uiso   1.00
N502   N     0.17164   0.49144   0.36719   0.00000  Uiso   1.00
N503   N     0.21889   0.95154   0.50551   0.00000  Uiso   1.00
N504   N     0.52078   0.81952   0.78314   0.00000  Uiso   1.00
N505   N     0.12647   0.48722   0.46408   0.00000  Uiso   1.00
N506   N     0.17372   0.94732   0.60240   0.00000  Uiso   1.00
C507   C     0.69747   0.56610   0.25160   0.00000  Uiso   1.00
C508   C     0.69587   0.63528   0.30994   0.00000  Uiso   1.00
C509   C     0.68748   0.64519   0.38315   0.00000  Uiso   1.00
C510   C     0.68743   0.71248   0.42772   0.00000  Uiso   1.00
C511   C     0.68367   0.81148   0.52250   0.00000  Uiso   1.00
C512   C     0.63946   0.54660   0.18071   0.00000  Uiso   1.00
C513   C     0.58366   0.48194   0.14527   0.00000  Uiso   1.00
C514   C     0.53613   0.47457   0.08105   0.00000  Uiso   1.00
C515   C     0.44484   0.43587   0.97517   0.00000  Uiso   1.00
C516   C     0.76725   0.58622   0.22919   0.00000  Uiso   1.00
C517   C     0.81888   0.55487   0.23449   0.00000  Uiso   1.00
C518   C     0.87895   0.58085   0.21108   0.00000  Uiso   1.00
C519   C     0.98606   0.60367   0.18047   0.00000  Uiso   1.00
C520   C     0.71231   0.66798   0.20057   0.00000  Uiso   1.00
C521   C     0.70392   0.69062   0.28221   0.00000  Uiso   1.00
C522   C     0.70389   0.75791   0.32669   0.00000  Uiso   1.00
C523   C     0.69551   0.76792   0.39995   0.00000  Uiso   1.00
C524   C     0.64752   0.60193   0.15299   0.00000  Uiso   1.00
C525   C     0.60007   0.59466   0.08881   0.00000  Uiso   1.00
C526   C     0.54421   0.53001   0.05328   0.00000  Uiso   1.00
C527   C     0.77531   0.64156   0.20148   0.00000  Uiso   1.00
C528   C     0.83530   0.66760   0.17804   0.00000  Uiso   1.00
C529   C     0.88702   0.63629   0.18331   0.00000  Uiso   1.00
H530   H     0.69119   0.52301   0.27318   0.00000  Uiso   1.00
H531   H     0.68123   0.60235   0.40457   0.00000  Uiso   1.00
H532   H     0.57744   0.43912   0.16673   0.00000  Uiso   1.00
H533   H     0.81263   0.51205   0.25594   0.00000  Uiso   1.00
H534   H     0.67372   0.71471   0.53802   0.00000  Uiso   1.00
H535   H     0.45487   0.37052   0.03649   0.00000  Uiso   1.00
H536   H     0.95082   0.52430   0.22461   0.00000  Uiso   1.00
H537   H     0.71859   0.71106   0.17899   0.00000  Uiso   1.00
H538   H     0.71013   0.80073   0.30522   0.00000  Uiso   1.00
H539   H     0.60633   0.63749   0.06738   0.00000  Uiso   1.00
H540   H     0.84152   0.71042   0.15659   0.00000  Uiso   1.00
H541   H     0.69717   0.87572   0.45738   0.00000  Uiso   1.00
H542   H     0.47832   0.53153   0.95585   0.00000  Uiso   1.00
H543   H     0.97427   0.68531   0.14398   0.00000  Uiso   1.00
O544   O     0.67936   0.85080   0.58243   0.00000  Uiso   1.00
O545   O     0.39225   0.39923   0.92443   0.00000  Uiso   1.00
O546   O     0.04292   0.60098   0.17126   0.00000  Uiso   1.00
N547   N     0.68041   0.74030   0.50172   0.00000  Uiso   1.00
N548   N     0.47579   0.41851   0.03283   0.00000  Uiso   1.00
N549   N     0.93946   0.56227   0.20869   0.00000  Uiso   1.00
N550   N     0.69303   0.82694   0.45833   0.00000  Uiso   1.00
N551   N     0.48841   0.50515   0.98944   0.00000  Uiso   1.00
N552   N     0.95208   0.64890   0.16530   0.00000  Uiso   1.00
