data_job_01175
_audit_creation_date              2018-12-19
_audit_creation_method            'Materials Studio'
_symmetry_space_group_name_H-M    'P1'
_symmetry_Int_Tables_number       1
_symmetry_cell_setting            triclinic
loop_
_symmetry_equiv_pos_as_xyz
  x,y,z
_cell_length_a                    11.0772
_cell_length_b                    16.0618
_cell_length_c                    16.0732
_cell_angle_alpha                 90.0000
_cell_angle_beta                  109.3890
_cell_angle_gamma                 90.0000
loop_
_atom_site_label
_atom_site_type_symbol
_atom_site_fract_x
_atom_site_fract_y
_atom_site_fract_z
_atom_site_U_iso_or_equiv
_atom_site_adp_type
_atom_site_occupancy
C1     C     0.97273   0.27548   0.28577   0.00000  Uiso   1.00
C2     C     0.94435   0.19095   0.31831   0.00000  Uiso   1.00
C3     C     0.96553   0.11413   0.28611   0.00000  Uiso   1.00
C4     C     0.93317   0.04404   0.32466   0.00000  Uiso   1.00
C5     C     0.89691   0.91177   0.36478   0.00000  Uiso   1.00
C6     C     0.84690   0.32356   0.25859   0.00000  Uiso   1.00
C7     C     0.78617   0.35825   0.17617   0.00000  Uiso   1.00
C8     C     0.67179   0.39979   0.16446   0.00000  Uiso   1.00
C9     C     0.48429   0.47346   0.11188   0.00000  Uiso   1.00
C10    C     0.06172   0.32025   0.36656   0.00000  Uiso   1.00
C11    C     0.18160   0.35218   0.37492   0.00000  Uiso   1.00
C12    C     0.24807   0.39097   0.45411   0.00000  Uiso   1.00
C13    C     0.39411   0.45950   0.56917   0.00000  Uiso   1.00
C14    C     0.87759   0.28760   0.41151   0.00000  Uiso   1.00
C15    C     0.89267   0.19753   0.38661   0.00000  Uiso   1.00
C16    C     0.86027   0.12753   0.42523   0.00000  Uiso   1.00
C17    C     0.88141   0.05062   0.39309   0.00000  Uiso   1.00
C18    C     0.79522   0.33014   0.32688   0.00000  Uiso   1.00
C19    C     0.68091   0.37165   0.31529   0.00000  Uiso   1.00
C20    C     0.62002   0.40638   0.23288   0.00000  Uiso   1.00
C21    C     0.01005   0.32683   0.43486   0.00000  Uiso   1.00
C22    C     0.07634   0.36558   0.51405   0.00000  Uiso   1.00
C23    C     0.19630   0.39756   0.52253   0.00000  Uiso   1.00
H24    H     0.01295   0.27037   0.23259   0.00000  Uiso   1.00
H25    H     0.00552   0.10907   0.23325   0.00000  Uiso   1.00
H26    H     0.82619   0.35315   0.12334   0.00000  Uiso   1.00
H27    H     0.22156   0.34708   0.32206   0.00000  Uiso   1.00
H28    H     0.97444   0.93314   0.26407   0.00000  Uiso   1.00
H29    H     0.59634   0.44783   0.03233   0.00000  Uiso   1.00
H30    H     0.43005   0.43504   0.45137   0.00000  Uiso   1.00
H31    H     0.83735   0.29272   0.46468   0.00000  Uiso   1.00
H32    H     0.82028   0.13264   0.47808   0.00000  Uiso   1.00
H33    H     0.64095   0.37673   0.36816   0.00000  Uiso   1.00
H34    H     0.03632   0.37066   0.56688   0.00000  Uiso   1.00
H35    H     0.82408   0.95227   0.46279   0.00000  Uiso   1.00
H36    H     0.44599   0.46697   0.23104   0.00000  Uiso   1.00
H37    H     0.27970   0.45417   0.65008   0.00000  Uiso   1.00
O38    O     0.89116   0.83700   0.36803   0.00000  Uiso   1.00
O39    O     0.39513   0.51227   0.06400   0.00000  Uiso   1.00
O40    O     0.48894   0.49547   0.61377   0.00000  Uiso   1.00
N41    N     0.94142   0.95961   0.30901   0.00000  Uiso   1.00
N42    N     0.58791   0.44080   0.09234   0.00000  Uiso   1.00
N43    N     0.36735   0.42886   0.48410   0.00000  Uiso   1.00
N44    N     0.86052   0.96990   0.41594   0.00000  Uiso   1.00
N45    N     0.50701   0.45110   0.19927   0.00000  Uiso   1.00
N46    N     0.28645   0.43916   0.59102   0.00000  Uiso   1.00
C47    C     0.02727   0.77548   0.21423   0.00000  Uiso   1.00
C48    C     0.05565   0.69095   0.18169   0.00000  Uiso   1.00
C49    C     0.03447   0.61413   0.21389   0.00000  Uiso   1.00
C50    C     0.06683   0.54404   0.17534   0.00000  Uiso   1.00
C51    C     0.10309   0.41177   0.13522   0.00000  Uiso   1.00
C52    C     0.15310   0.82356   0.24141   0.00000  Uiso   1.00
C53    C     0.21383   0.85825   0.32383   0.00000  Uiso   1.00
C54    C     0.32821   0.89979   0.33554   0.00000  Uiso   1.00
C55    C     0.51571   0.97346   0.38812   0.00000  Uiso   1.00
C56    C     0.93828   0.82025   0.13344   0.00000  Uiso   1.00
C57    C     0.81840   0.85218   0.12508   0.00000  Uiso   1.00
C58    C     0.75193   0.89097   0.04589   0.00000  Uiso   1.00
C59    C     0.60589   0.95950   0.93083   0.00000  Uiso   1.00
C60    C     0.12241   0.78760   0.08849   0.00000  Uiso   1.00
C61    C     0.10733   0.69753   0.11339   0.00000  Uiso   1.00
C62    C     0.13973   0.62753   0.07477   0.00000  Uiso   1.00
C63    C     0.11859   0.55062   0.10691   0.00000  Uiso   1.00
C64    C     0.20478   0.83014   0.17312   0.00000  Uiso   1.00
C65    C     0.31909   0.87165   0.18471   0.00000  Uiso   1.00
C66    C     0.37998   0.90638   0.26712   0.00000  Uiso   1.00
C67    C     0.98995   0.82683   0.06514   0.00000  Uiso   1.00
C68    C     0.92366   0.86558   0.98595   0.00000  Uiso   1.00
C69    C     0.80370   0.89756   0.97747   0.00000  Uiso   1.00
H70    H     0.98705   0.77037   0.26741   0.00000  Uiso   1.00
H71    H     0.99448   0.60907   0.26675   0.00000  Uiso   1.00
H72    H     0.17381   0.85315   0.37666   0.00000  Uiso   1.00
H73    H     0.77844   0.84708   0.17794   0.00000  Uiso   1.00
H74    H     0.02556   0.43314   0.23593   0.00000  Uiso   1.00
H75    H     0.40366   0.94783   0.46767   0.00000  Uiso   1.00
H76    H     0.56995   0.93504   0.04863   0.00000  Uiso   1.00
H77    H     0.16265   0.79272   0.03532   0.00000  Uiso   1.00
H78    H     0.17972   0.63264   0.02192   0.00000  Uiso   1.00
H79    H     0.35905   0.87673   0.13184   0.00000  Uiso   1.00
H80    H     0.96368   0.87066   0.93312   0.00000  Uiso   1.00
H81    H     0.17592   0.45227   0.03721   0.00000  Uiso   1.00
H82    H     0.55401   0.96697   0.26896   0.00000  Uiso   1.00
H83    H     0.72030   0.95417   0.84992   0.00000  Uiso   1.00
O84    O     0.10884   0.33700   0.13197   0.00000  Uiso   1.00
O85    O     0.60487   0.01227   0.43600   0.00000  Uiso   1.00
O86    O     0.51106   0.99547   0.88623   0.00000  Uiso   1.00
N87    N     0.05858   0.45961   0.19099   0.00000  Uiso   1.00
N88    N     0.41209   0.94080   0.40766   0.00000  Uiso   1.00
N89    N     0.63265   0.92886   0.01590   0.00000  Uiso   1.00
N90    N     0.13948   0.46990   0.08406   0.00000  Uiso   1.00
N91    N     0.49299   0.95110   0.30073   0.00000  Uiso   1.00
N92    N     0.71355   0.93916   0.90898   0.00000  Uiso   1.00
C93    C     0.02727   0.72452   0.71423   0.00000  Uiso   1.00
C94    C     0.05565   0.80905   0.68169   0.00000  Uiso   1.00
C95    C     0.03447   0.88587   0.71389   0.00000  Uiso   1.00
C96    C     0.06683   0.95596   0.67534   0.00000  Uiso   1.00
C97    C     0.10309   0.08823   0.63522   0.00000  Uiso   1.00
C98    C     0.15310   0.67644   0.74141   0.00000  Uiso   1.00
C99    C     0.21383   0.64175   0.82383   0.00000  Uiso   1.00
C100   C     0.32821   0.60021   0.83554   0.00000  Uiso   1.00
C101   C     0.51571   0.52654   0.88812   0.00000  Uiso   1.00
C102   C     0.93828   0.67975   0.63344   0.00000  Uiso   1.00
C103   C     0.81840   0.64782   0.62508   0.00000  Uiso   1.00
C104   C     0.75193   0.60903   0.54589   0.00000  Uiso   1.00
C105   C     0.60589   0.54050   0.43083   0.00000  Uiso   1.00
C106   C     0.12241   0.71240   0.58849   0.00000  Uiso   1.00
C107   C     0.10733   0.80247   0.61339   0.00000  Uiso   1.00
C108   C     0.13973   0.87247   0.57477   0.00000  Uiso   1.00
C109   C     0.11859   0.94938   0.60691   0.00000  Uiso   1.00
C110   C     0.20478   0.66986   0.67312   0.00000  Uiso   1.00
C111   C     0.31909   0.62835   0.68471   0.00000  Uiso   1.00
C112   C     0.37998   0.59362   0.76712   0.00000  Uiso   1.00
C113   C     0.98995   0.67317   0.56514   0.00000  Uiso   1.00
C114   C     0.92366   0.63442   0.48595   0.00000  Uiso   1.00
C115   C     0.80370   0.60244   0.47747   0.00000  Uiso   1.00
H116   H     0.98705   0.72963   0.76741   0.00000  Uiso   1.00
H117   H     0.99448   0.89093   0.76675   0.00000  Uiso   1.00
H118   H     0.17381   0.64685   0.87666   0.00000  Uiso   1.00
H119   H     0.77844   0.65292   0.67794   0.00000  Uiso   1.00
H120   H     0.02556   0.06686   0.73593   0.00000  Uiso   1.00
H121   H     0.40366   0.55217   0.96767   0.00000  Uiso   1.00
H122   H     0.56995   0.56496   0.54863   0.00000  Uiso   1.00
H123   H     0.16265   0.70728   0.53532   0.00000  Uiso   1.00
H124   H     0.17972   0.86736   0.52192   0.00000  Uiso   1.00
H125   H     0.35905   0.62327   0.63184   0.00000  Uiso   1.00
H126   H     0.96368   0.62934   0.43312   0.00000  Uiso   1.00
H127   H     0.17592   0.04773   0.53721   0.00000  Uiso   1.00
H128   H     0.55401   0.53303   0.76896   0.00000  Uiso   1.00
H129   H     0.72030   0.54583   0.34992   0.00000  Uiso   1.00
O130   O     0.10884   0.16300   0.63197   0.00000  Uiso   1.00
O131   O     0.60487   0.48773   0.93600   0.00000  Uiso   1.00
O132   O     0.51106   0.50453   0.38623   0.00000  Uiso   1.00
N133   N     0.05858   0.04039   0.69099   0.00000  Uiso   1.00
N134   N     0.41209   0.55920   0.90766   0.00000  Uiso   1.00
N135   N     0.63265   0.57114   0.51590   0.00000  Uiso   1.00
N136   N     0.13948   0.03010   0.58406   0.00000  Uiso   1.00
N137   N     0.49299   0.54890   0.80073   0.00000  Uiso   1.00
N138   N     0.71355   0.56084   0.40898   0.00000  Uiso   1.00
C139   C     0.97273   0.22452   0.78577   0.00000  Uiso   1.00
C140   C     0.94435   0.30905   0.81831   0.00000  Uiso   1.00
C141   C     0.96553   0.38587   0.78611   0.00000  Uiso   1.00
C142   C     0.93317   0.45596   0.82466   0.00000  Uiso   1.00
C143   C     0.89691   0.58823   0.86478   0.00000  Uiso   1.00
C144   C     0.84690   0.17644   0.75859   0.00000  Uiso   1.00
C145   C     0.78617   0.14175   0.67617   0.00000  Uiso   1.00
C146   C     0.67179   0.10021   0.66446   0.00000  Uiso   1.00
C147   C     0.48429   0.02654   0.61188   0.00000  Uiso   1.00
C148   C     0.06172   0.17975   0.86656   0.00000  Uiso   1.00
C149   C     0.18160   0.14782   0.87492   0.00000  Uiso   1.00
C150   C     0.24807   0.10903   0.95411   0.00000  Uiso   1.00
C151   C     0.39411   0.04050   0.06917   0.00000  Uiso   1.00
C152   C     0.87759   0.21240   0.91151   0.00000  Uiso   1.00
C153   C     0.89267   0.30247   0.88661   0.00000  Uiso   1.00
C154   C     0.86027   0.37247   0.92523   0.00000  Uiso   1.00
C155   C     0.88141   0.44938   0.89309   0.00000  Uiso   1.00
C156   C     0.79522   0.16986   0.82688   0.00000  Uiso   1.00
C157   C     0.68091   0.12835   0.81529   0.00000  Uiso   1.00
C158   C     0.62002   0.09362   0.73288   0.00000  Uiso   1.00
C159   C     0.01005   0.17317   0.93486   0.00000  Uiso   1.00
C160   C     0.07634   0.13442   0.01405   0.00000  Uiso   1.00
C161   C     0.19630   0.10244   0.02253   0.00000  Uiso   1.00
H162   H     0.01295   0.22963   0.73259   0.00000  Uiso   1.00
H163   H     0.00552   0.39093   0.73325   0.00000  Uiso   1.00
H164   H     0.82619   0.14685   0.62334   0.00000  Uiso   1.00
H165   H     0.22156   0.15292   0.82206   0.00000  Uiso   1.00
H166   H     0.97444   0.56686   0.76407   0.00000  Uiso   1.00
H167   H     0.59634   0.05217   0.53233   0.00000  Uiso   1.00
H168   H     0.43005   0.06496   0.95137   0.00000  Uiso   1.00
H169   H     0.83735   0.20728   0.96468   0.00000  Uiso   1.00
H170   H     0.82028   0.36736   0.97808   0.00000  Uiso   1.00
H171   H     0.64095   0.12327   0.86816   0.00000  Uiso   1.00
H172   H     0.03632   0.12934   0.06688   0.00000  Uiso   1.00
H173   H     0.82408   0.54773   0.96279   0.00000  Uiso   1.00
H174   H     0.44599   0.03303   0.73104   0.00000  Uiso   1.00
H175   H     0.27970   0.04583   0.15008   0.00000  Uiso   1.00
O176   O     0.89116   0.66300   0.86803   0.00000  Uiso   1.00
O177   O     0.39513   0.98773   0.56400   0.00000  Uiso   1.00
O178   O     0.48894   0.00453   0.11377   0.00000  Uiso   1.00
N179   N     0.94142   0.54039   0.80901   0.00000  Uiso   1.00
N180   N     0.58791   0.05920   0.59234   0.00000  Uiso   1.00
N181   N     0.36735   0.07114   0.98410   0.00000  Uiso   1.00
N182   N     0.86052   0.53010   0.91594   0.00000  Uiso   1.00
N183   N     0.50701   0.04890   0.69927   0.00000  Uiso   1.00
N184   N     0.28645   0.06084   0.09102   0.00000  Uiso   1.00
