data_job_04127
_audit_creation_date              2018-12-19
_audit_creation_method            'Materials Studio'
_symmetry_space_group_name_H-M    'P1'
_symmetry_Int_Tables_number       1
_symmetry_cell_setting            triclinic
loop_
_symmetry_equiv_pos_as_xyz
  x,y,z
_cell_length_a                    24.0110
_cell_length_b                    24.0110
_cell_length_c                    25.3728
_cell_angle_alpha                 90.0000
_cell_angle_beta                  90.0000
_cell_angle_gamma                 120.0000
loop_
_atom_site_label
_atom_site_type_symbol
_atom_site_fract_x
_atom_site_fract_y
_atom_site_fract_z
_atom_site_U_iso_or_equiv
_atom_site_adp_type
_atom_site_occupancy
C1     C     0.67747   0.98601   0.90226   0.00000  Uiso   1.00
C2     C     0.69745   0.05573   0.89004   0.00000  Uiso   1.00
C3     C     0.72557   0.10667   0.92528   0.00000  Uiso   1.00
C4     C     0.74026   0.16680   0.90646   0.00000  Uiso   1.00
C5     C     0.77323   0.27371   0.89543   0.00000  Uiso   1.00
C6     C     0.60620   0.94648   0.88860   0.00000  Uiso   1.00
C7     C     0.55759   0.90557   0.92263   0.00000  Uiso   1.00
C8     C     0.49546   0.87373   0.90260   0.00000  Uiso   1.00
C9     C     0.38677   0.81100   0.88933   0.00000  Uiso   1.00
C10    C     0.71238   0.96691   0.86230   0.00000  Uiso   1.00
C11    C     0.75303   0.94316   0.87421   0.00000  Uiso   1.00
C12    C     0.78029   0.92850   0.83203   0.00000  Uiso   1.00
C13    C     0.83645   0.89749   0.77791   0.00000  Uiso   1.00
C14    C     0.65357   0.00219   0.80617   0.00000  Uiso   1.00
C15    C     0.68447   0.06451   0.83785   0.00000  Uiso   1.00
C16    C     0.69912   0.12458   0.81897   0.00000  Uiso   1.00
C17    C     0.72725   0.17561   0.85417   0.00000  Uiso   1.00
C18    C     0.59321   0.95527   0.83641   0.00000  Uiso   1.00
C19    C     0.53114   0.92348   0.81632   0.00000  Uiso   1.00
C20    C     0.48245   0.88254   0.85031   0.00000  Uiso   1.00
C21    C     0.69939   0.97570   0.81011   0.00000  Uiso   1.00
C22    C     0.72659   0.96107   0.76790   0.00000  Uiso   1.00
C23    C     0.76728   0.93731   0.77974   0.00000  Uiso   1.00
H24    H     0.68758   0.97916   0.94290   0.00000  Uiso   1.00
H25    H     0.73560   0.09985   0.96567   0.00000  Uiso   1.00
H26    H     0.56766   0.89877   0.96302   0.00000  Uiso   1.00
H27    H     0.76307   0.93636   0.91460   0.00000  Uiso   1.00
H28    H     0.78310   0.23753   0.96790   0.00000  Uiso   1.00
H29    H     0.42898   0.81353   0.96231   0.00000  Uiso   1.00
H30    H     0.84104   0.89279   0.86022   0.00000  Uiso   1.00
H31    H     0.64346   0.00904   0.76554   0.00000  Uiso   1.00
H32    H     0.68907   0.13137   0.77858   0.00000  Uiso   1.00
H33    H     0.52111   0.93029   0.77593   0.00000  Uiso   1.00
H34    H     0.71653   0.96788   0.72751   0.00000  Uiso   1.00
H35    H     0.74533   0.26311   0.81605   0.00000  Uiso   1.00
H36    H     0.39120   0.83911   0.81047   0.00000  Uiso   1.00
H37    H     0.80327   0.91837   0.70837   0.00000  Uiso   1.00
O38    O     0.79499   0.33025   0.90376   0.00000  Uiso   1.00
O39    O     0.33040   0.77397   0.89643   0.00000  Uiso   1.00
O40    O     0.87102   0.87797   0.76248   0.00000  Uiso   1.00
N41    N     0.76796   0.22676   0.93037   0.00000  Uiso   1.00
N42    N     0.43688   0.83036   0.92515   0.00000  Uiso   1.00
N43    N     0.82211   0.90445   0.82970   0.00000  Uiso   1.00
N44    N     0.74764   0.24053   0.84866   0.00000  Uiso   1.00
N45    N     0.41655   0.84412   0.84344   0.00000  Uiso   1.00
N46    N     0.80178   0.91821   0.74799   0.00000  Uiso   1.00
C47    C     0.01399   0.69146   0.56893   0.00000  Uiso   1.00
C48    C     0.94427   0.64173   0.55671   0.00000  Uiso   1.00
C49    C     0.89333   0.61889   0.59195   0.00000  Uiso   1.00
C50    C     0.83320   0.57345   0.57313   0.00000  Uiso   1.00
C51    C     0.72629   0.49952   0.56209   0.00000  Uiso   1.00
C52    C     0.05352   0.65972   0.55527   0.00000  Uiso   1.00
C53    C     0.09443   0.65202   0.58930   0.00000  Uiso   1.00
C54    C     0.12627   0.62173   0.56927   0.00000  Uiso   1.00
C55    C     0.18900   0.57577   0.55599   0.00000  Uiso   1.00
C56    C     0.03309   0.74547   0.52897   0.00000  Uiso   1.00
C57    C     0.05684   0.80987   0.54088   0.00000  Uiso   1.00
C58    C     0.07150   0.85178   0.49870   0.00000  Uiso   1.00
C59    C     0.10251   0.93895   0.44458   0.00000  Uiso   1.00
C60    C     0.99781   0.65138   0.47284   0.00000  Uiso   1.00
C61    C     0.93549   0.61995   0.50452   0.00000  Uiso   1.00
C62    C     0.87542   0.57454   0.48563   0.00000  Uiso   1.00
C63    C     0.82439   0.55164   0.52084   0.00000  Uiso   1.00
C64    C     0.04473   0.63794   0.50308   0.00000  Uiso   1.00
C65    C     0.07652   0.60767   0.48299   0.00000  Uiso   1.00
C66    C     0.11746   0.59992   0.51698   0.00000  Uiso   1.00
C67    C     0.02430   0.72369   0.47677   0.00000  Uiso   1.00
C68    C     0.03893   0.76551   0.43457   0.00000  Uiso   1.00
C69    C     0.06269   0.82997   0.44641   0.00000  Uiso   1.00
H70    H     0.02084   0.70842   0.60956   0.00000  Uiso   1.00
H71    H     0.90015   0.63575   0.63234   0.00000  Uiso   1.00
H72    H     0.10123   0.66888   0.62969   0.00000  Uiso   1.00
H73    H     0.06364   0.82670   0.58127   0.00000  Uiso   1.00
H74    H     0.76247   0.54557   0.63457   0.00000  Uiso   1.00
H75    H     0.18647   0.61544   0.62898   0.00000  Uiso   1.00
H76    H     0.10721   0.94825   0.52689   0.00000  Uiso   1.00
H77    H     0.99096   0.63442   0.43221   0.00000  Uiso   1.00
H78    H     0.86863   0.55770   0.44524   0.00000  Uiso   1.00
H79    H     0.06971   0.59082   0.44260   0.00000  Uiso   1.00
H80    H     0.03212   0.74865   0.39418   0.00000  Uiso   1.00
H81    H     0.73689   0.48222   0.48272   0.00000  Uiso   1.00
H82    H     0.16089   0.55209   0.47713   0.00000  Uiso   1.00
H83    H     0.08163   0.88489   0.37504   0.00000  Uiso   1.00
O84    O     0.66975   0.46474   0.57043   0.00000  Uiso   1.00
O85    O     0.22603   0.55642   0.56309   0.00000  Uiso   1.00
O86    O     0.12203   0.99305   0.42915   0.00000  Uiso   1.00
N87    N     0.77324   0.54120   0.59704   0.00000  Uiso   1.00
N88    N     0.16964   0.60652   0.59182   0.00000  Uiso   1.00
N89    N     0.09555   0.91766   0.49637   0.00000  Uiso   1.00
N90    N     0.75947   0.50711   0.51533   0.00000  Uiso   1.00
N91    N     0.15588   0.57243   0.51011   0.00000  Uiso   1.00
N92    N     0.08179   0.88357   0.41466   0.00000  Uiso   1.00
C93    C     0.30854   0.32253   0.23560   0.00000  Uiso   1.00
C94    C     0.35827   0.30255   0.22337   0.00000  Uiso   1.00
C95    C     0.38111   0.27443   0.25861   0.00000  Uiso   1.00
C96    C     0.42655   0.25974   0.23979   0.00000  Uiso   1.00
C97    C     0.50048   0.22677   0.22876   0.00000  Uiso   1.00
C98    C     0.34028   0.39380   0.22194   0.00000  Uiso   1.00
C99    C     0.34798   0.44241   0.25597   0.00000  Uiso   1.00
C100   C     0.37827   0.50454   0.23593   0.00000  Uiso   1.00
C101   C     0.42423   0.61323   0.22266   0.00000  Uiso   1.00
C102   C     0.25453   0.28762   0.19563   0.00000  Uiso   1.00
C103   C     0.19013   0.24697   0.20754   0.00000  Uiso   1.00
C104   C     0.14822   0.21971   0.16536   0.00000  Uiso   1.00
C105   C     0.06105   0.16355   0.11125   0.00000  Uiso   1.00
C106   C     0.34862   0.34643   0.13951   0.00000  Uiso   1.00
C107   C     0.38005   0.31553   0.17118   0.00000  Uiso   1.00
C108   C     0.42546   0.30088   0.15230   0.00000  Uiso   1.00
C109   C     0.44836   0.27275   0.18751   0.00000  Uiso   1.00
C110   C     0.36206   0.40679   0.16975   0.00000  Uiso   1.00
C111   C     0.39233   0.46886   0.14966   0.00000  Uiso   1.00
C112   C     0.40008   0.51755   0.18365   0.00000  Uiso   1.00
C113   C     0.27631   0.30061   0.14344   0.00000  Uiso   1.00
C114   C     0.23449   0.27341   0.10123   0.00000  Uiso   1.00
C115   C     0.17003   0.23272   0.11308   0.00000  Uiso   1.00
H116   H     0.29158   0.31242   0.27623   0.00000  Uiso   1.00
H117   H     0.36425   0.26440   0.29900   0.00000  Uiso   1.00
H118   H     0.33112   0.43234   0.29635   0.00000  Uiso   1.00
H119   H     0.17330   0.23693   0.24794   0.00000  Uiso   1.00
H120   H     0.45443   0.21690   0.30124   0.00000  Uiso   1.00
H121   H     0.38456   0.57102   0.29565   0.00000  Uiso   1.00
H122   H     0.05175   0.15896   0.19355   0.00000  Uiso   1.00
H123   H     0.36558   0.35654   0.09887   0.00000  Uiso   1.00
H124   H     0.44230   0.31093   0.11191   0.00000  Uiso   1.00
H125   H     0.40918   0.47889   0.10926   0.00000  Uiso   1.00
H126   H     0.25135   0.28347   0.06085   0.00000  Uiso   1.00
H127   H     0.51778   0.25467   0.14939   0.00000  Uiso   1.00
H128   H     0.44791   0.60880   0.14380   0.00000  Uiso   1.00
H129   H     0.11511   0.19673   0.04170   0.00000  Uiso   1.00
O130   O     0.53526   0.20501   0.23710   0.00000  Uiso   1.00
O131   O     0.44358   0.66960   0.22976   0.00000  Uiso   1.00
O132   O     0.00695   0.12898   0.09581   0.00000  Uiso   1.00
N133   N     0.45880   0.23204   0.26371   0.00000  Uiso   1.00
N134   N     0.39348   0.56312   0.25848   0.00000  Uiso   1.00
N135   N     0.08234   0.17789   0.16303   0.00000  Uiso   1.00
N136   N     0.49289   0.25236   0.18200   0.00000  Uiso   1.00
N137   N     0.42757   0.58345   0.17677   0.00000  Uiso   1.00
N138   N     0.11643   0.19822   0.08133   0.00000  Uiso   1.00
C139   C     0.32253   0.01399   0.40226   0.00000  Uiso   1.00
C140   C     0.30255   0.94427   0.39004   0.00000  Uiso   1.00
C141   C     0.27443   0.89333   0.42528   0.00000  Uiso   1.00
C142   C     0.25974   0.83320   0.40646   0.00000  Uiso   1.00
C143   C     0.22677   0.72629   0.39543   0.00000  Uiso   1.00
C144   C     0.39380   0.05352   0.38860   0.00000  Uiso   1.00
C145   C     0.44241   0.09443   0.42263   0.00000  Uiso   1.00
C146   C     0.50454   0.12627   0.40260   0.00000  Uiso   1.00
C147   C     0.61323   0.18900   0.38933   0.00000  Uiso   1.00
C148   C     0.28762   0.03309   0.36230   0.00000  Uiso   1.00
C149   C     0.24697   0.05684   0.37421   0.00000  Uiso   1.00
C150   C     0.21971   0.07150   0.33203   0.00000  Uiso   1.00
C151   C     0.16355   0.10251   0.27791   0.00000  Uiso   1.00
C152   C     0.34643   0.99781   0.30617   0.00000  Uiso   1.00
C153   C     0.31553   0.93549   0.33785   0.00000  Uiso   1.00
C154   C     0.30088   0.87542   0.31897   0.00000  Uiso   1.00
C155   C     0.27275   0.82439   0.35417   0.00000  Uiso   1.00
C156   C     0.40679   0.04473   0.33641   0.00000  Uiso   1.00
C157   C     0.46886   0.07652   0.31632   0.00000  Uiso   1.00
C158   C     0.51755   0.11746   0.35031   0.00000  Uiso   1.00
C159   C     0.30061   0.02430   0.31011   0.00000  Uiso   1.00
C160   C     0.27341   0.03893   0.26790   0.00000  Uiso   1.00
C161   C     0.23272   0.06269   0.27974   0.00000  Uiso   1.00
H162   H     0.31242   0.02084   0.44290   0.00000  Uiso   1.00
H163   H     0.26440   0.90015   0.46567   0.00000  Uiso   1.00
H164   H     0.43234   0.10123   0.46302   0.00000  Uiso   1.00
H165   H     0.23693   0.06364   0.41460   0.00000  Uiso   1.00
H166   H     0.21690   0.76247   0.46790   0.00000  Uiso   1.00
H167   H     0.57102   0.18647   0.46231   0.00000  Uiso   1.00
H168   H     0.15896   0.10721   0.36022   0.00000  Uiso   1.00
H169   H     0.35654   0.99096   0.26554   0.00000  Uiso   1.00
H170   H     0.31093   0.86863   0.27858   0.00000  Uiso   1.00
H171   H     0.47889   0.06971   0.27593   0.00000  Uiso   1.00
H172   H     0.28347   0.03212   0.22751   0.00000  Uiso   1.00
H173   H     0.25467   0.73689   0.31605   0.00000  Uiso   1.00
H174   H     0.60880   0.16089   0.31047   0.00000  Uiso   1.00
H175   H     0.19673   0.08163   0.20837   0.00000  Uiso   1.00
O176   O     0.20501   0.66975   0.40376   0.00000  Uiso   1.00
O177   O     0.66960   0.22603   0.39643   0.00000  Uiso   1.00
O178   O     0.12898   0.12203   0.26248   0.00000  Uiso   1.00
N179   N     0.23204   0.77324   0.43037   0.00000  Uiso   1.00
N180   N     0.56312   0.16964   0.42515   0.00000  Uiso   1.00
N181   N     0.17789   0.09555   0.32970   0.00000  Uiso   1.00
N182   N     0.25236   0.75947   0.34866   0.00000  Uiso   1.00
N183   N     0.58345   0.15588   0.34344   0.00000  Uiso   1.00
N184   N     0.19822   0.08179   0.24799   0.00000  Uiso   1.00
C185   C     0.98601   0.30854   0.06893   0.00000  Uiso   1.00
C186   C     0.05573   0.35827   0.05671   0.00000  Uiso   1.00
C187   C     0.10667   0.38111   0.09195   0.00000  Uiso   1.00
C188   C     0.16680   0.42655   0.07313   0.00000  Uiso   1.00
C189   C     0.27371   0.50048   0.06209   0.00000  Uiso   1.00
C190   C     0.94648   0.34028   0.05527   0.00000  Uiso   1.00
C191   C     0.90557   0.34798   0.08930   0.00000  Uiso   1.00
C192   C     0.87373   0.37827   0.06927   0.00000  Uiso   1.00
C193   C     0.81100   0.42423   0.05599   0.00000  Uiso   1.00
C194   C     0.96691   0.25453   0.02897   0.00000  Uiso   1.00
C195   C     0.94316   0.19013   0.04088   0.00000  Uiso   1.00
C196   C     0.92850   0.14822   0.99870   0.00000  Uiso   1.00
C197   C     0.89749   0.06105   0.94458   0.00000  Uiso   1.00
C198   C     0.00219   0.34862   0.97284   0.00000  Uiso   1.00
C199   C     0.06451   0.38005   0.00452   0.00000  Uiso   1.00
C200   C     0.12458   0.42546   0.98563   0.00000  Uiso   1.00
C201   C     0.17561   0.44836   0.02084   0.00000  Uiso   1.00
C202   C     0.95527   0.36206   0.00308   0.00000  Uiso   1.00
C203   C     0.92348   0.39233   0.98299   0.00000  Uiso   1.00
C204   C     0.88254   0.40008   0.01698   0.00000  Uiso   1.00
C205   C     0.97570   0.27631   0.97677   0.00000  Uiso   1.00
C206   C     0.96107   0.23449   0.93457   0.00000  Uiso   1.00
C207   C     0.93731   0.17003   0.94641   0.00000  Uiso   1.00
H208   H     0.97916   0.29158   0.10956   0.00000  Uiso   1.00
H209   H     0.09985   0.36425   0.13234   0.00000  Uiso   1.00
H210   H     0.89877   0.33112   0.12969   0.00000  Uiso   1.00
H211   H     0.93636   0.17330   0.08127   0.00000  Uiso   1.00
H212   H     0.23753   0.45443   0.13457   0.00000  Uiso   1.00
H213   H     0.81353   0.38456   0.12898   0.00000  Uiso   1.00
H214   H     0.89279   0.05175   0.02689   0.00000  Uiso   1.00
H215   H     0.00904   0.36558   0.93221   0.00000  Uiso   1.00
H216   H     0.13137   0.44230   0.94524   0.00000  Uiso   1.00
H217   H     0.93029   0.40918   0.94260   0.00000  Uiso   1.00
H218   H     0.96788   0.25135   0.89418   0.00000  Uiso   1.00
H219   H     0.26311   0.51778   0.98272   0.00000  Uiso   1.00
H220   H     0.83911   0.44791   0.97713   0.00000  Uiso   1.00
H221   H     0.91837   0.11511   0.87504   0.00000  Uiso   1.00
O222   O     0.33025   0.53526   0.07043   0.00000  Uiso   1.00
O223   O     0.77397   0.44358   0.06309   0.00000  Uiso   1.00
O224   O     0.87797   0.00695   0.92915   0.00000  Uiso   1.00
N225   N     0.22676   0.45880   0.09704   0.00000  Uiso   1.00
N226   N     0.83036   0.39348   0.09182   0.00000  Uiso   1.00
N227   N     0.90445   0.08234   0.99637   0.00000  Uiso   1.00
N228   N     0.24053   0.49289   0.01533   0.00000  Uiso   1.00
N229   N     0.84412   0.42757   0.01011   0.00000  Uiso   1.00
N230   N     0.91821   0.11643   0.91466   0.00000  Uiso   1.00
C231   C     0.69146   0.67747   0.73560   0.00000  Uiso   1.00
C232   C     0.64173   0.69745   0.72337   0.00000  Uiso   1.00
C233   C     0.61889   0.72557   0.75861   0.00000  Uiso   1.00
C234   C     0.57345   0.74026   0.73979   0.00000  Uiso   1.00
C235   C     0.49952   0.77323   0.72876   0.00000  Uiso   1.00
C236   C     0.65972   0.60620   0.72194   0.00000  Uiso   1.00
C237   C     0.65202   0.55759   0.75597   0.00000  Uiso   1.00
C238   C     0.62173   0.49546   0.73593   0.00000  Uiso   1.00
C239   C     0.57577   0.38677   0.72266   0.00000  Uiso   1.00
C240   C     0.74547   0.71238   0.69563   0.00000  Uiso   1.00
C241   C     0.80987   0.75303   0.70754   0.00000  Uiso   1.00
C242   C     0.85178   0.78029   0.66536   0.00000  Uiso   1.00
C243   C     0.93895   0.83645   0.61125   0.00000  Uiso   1.00
C244   C     0.65138   0.65357   0.63951   0.00000  Uiso   1.00
C245   C     0.61995   0.68447   0.67118   0.00000  Uiso   1.00
C246   C     0.57454   0.69912   0.65230   0.00000  Uiso   1.00
C247   C     0.55164   0.72725   0.68751   0.00000  Uiso   1.00
C248   C     0.63794   0.59321   0.66975   0.00000  Uiso   1.00
C249   C     0.60767   0.53114   0.64966   0.00000  Uiso   1.00
C250   C     0.59992   0.48245   0.68365   0.00000  Uiso   1.00
C251   C     0.72369   0.69939   0.64344   0.00000  Uiso   1.00
C252   C     0.76551   0.72659   0.60123   0.00000  Uiso   1.00
C253   C     0.82997   0.76728   0.61308   0.00000  Uiso   1.00
H254   H     0.70842   0.68758   0.77623   0.00000  Uiso   1.00
H255   H     0.63575   0.73560   0.79900   0.00000  Uiso   1.00
H256   H     0.66888   0.56766   0.79635   0.00000  Uiso   1.00
H257   H     0.82670   0.76307   0.74794   0.00000  Uiso   1.00
H258   H     0.54557   0.78310   0.80124   0.00000  Uiso   1.00
H259   H     0.61544   0.42898   0.79565   0.00000  Uiso   1.00
H260   H     0.94825   0.84104   0.69355   0.00000  Uiso   1.00
H261   H     0.63442   0.64346   0.59887   0.00000  Uiso   1.00
H262   H     0.55770   0.68907   0.61191   0.00000  Uiso   1.00
H263   H     0.59082   0.52111   0.60926   0.00000  Uiso   1.00
H264   H     0.74865   0.71653   0.56085   0.00000  Uiso   1.00
H265   H     0.48222   0.74533   0.64939   0.00000  Uiso   1.00
H266   H     0.55209   0.39120   0.64380   0.00000  Uiso   1.00
H267   H     0.88489   0.80327   0.54170   0.00000  Uiso   1.00
O268   O     0.46474   0.79499   0.73710   0.00000  Uiso   1.00
O269   O     0.55642   0.33040   0.72976   0.00000  Uiso   1.00
O270   O     0.99305   0.87102   0.59581   0.00000  Uiso   1.00
N271   N     0.54120   0.76796   0.76371   0.00000  Uiso   1.00
N272   N     0.60652   0.43688   0.75848   0.00000  Uiso   1.00
N273   N     0.91766   0.82211   0.66303   0.00000  Uiso   1.00
N274   N     0.50711   0.74764   0.68200   0.00000  Uiso   1.00
N275   N     0.57243   0.41655   0.67677   0.00000  Uiso   1.00
N276   N     0.88357   0.80178   0.58133   0.00000  Uiso   1.00
C277   C     0.98601   0.67747   0.76440   0.00000  Uiso   1.00
C278   C     0.05573   0.69745   0.77663   0.00000  Uiso   1.00
C279   C     0.10667   0.72557   0.74139   0.00000  Uiso   1.00
C280   C     0.16680   0.74026   0.76021   0.00000  Uiso   1.00
C281   C     0.27371   0.77323   0.77124   0.00000  Uiso   1.00
C282   C     0.94648   0.60620   0.77806   0.00000  Uiso   1.00
C283   C     0.90557   0.55759   0.74403   0.00000  Uiso   1.00
C284   C     0.87373   0.49546   0.76407   0.00000  Uiso   1.00
C285   C     0.81100   0.38677   0.77734   0.00000  Uiso   1.00
C286   C     0.96691   0.71238   0.80437   0.00000  Uiso   1.00
C287   C     0.94316   0.75303   0.79246   0.00000  Uiso   1.00
C288   C     0.92850   0.78029   0.83464   0.00000  Uiso   1.00
C289   C     0.89749   0.83645   0.88875   0.00000  Uiso   1.00
C290   C     0.00219   0.65357   0.86049   0.00000  Uiso   1.00
C291   C     0.06451   0.68447   0.82882   0.00000  Uiso   1.00
C292   C     0.12458   0.69912   0.84770   0.00000  Uiso   1.00
C293   C     0.17561   0.72725   0.81249   0.00000  Uiso   1.00
C294   C     0.95527   0.59321   0.83025   0.00000  Uiso   1.00
C295   C     0.92348   0.53114   0.85034   0.00000  Uiso   1.00
C296   C     0.88254   0.48245   0.81635   0.00000  Uiso   1.00
C297   C     0.97570   0.69939   0.85656   0.00000  Uiso   1.00
C298   C     0.96107   0.72659   0.89877   0.00000  Uiso   1.00
C299   C     0.93731   0.76728   0.88692   0.00000  Uiso   1.00
H300   H     0.97916   0.68758   0.72377   0.00000  Uiso   1.00
H301   H     0.09985   0.73560   0.70100   0.00000  Uiso   1.00
H302   H     0.89877   0.56766   0.70365   0.00000  Uiso   1.00
H303   H     0.93636   0.76307   0.75206   0.00000  Uiso   1.00
H304   H     0.23753   0.78310   0.69876   0.00000  Uiso   1.00
H305   H     0.81353   0.42898   0.70435   0.00000  Uiso   1.00
H306   H     0.89279   0.84104   0.80645   0.00000  Uiso   1.00
H307   H     0.00904   0.64346   0.90113   0.00000  Uiso   1.00
H308   H     0.13137   0.68907   0.88809   0.00000  Uiso   1.00
H309   H     0.93029   0.52111   0.89074   0.00000  Uiso   1.00
H310   H     0.96788   0.71653   0.93915   0.00000  Uiso   1.00
H311   H     0.26311   0.74533   0.85061   0.00000  Uiso   1.00
H312   H     0.83911   0.39120   0.85620   0.00000  Uiso   1.00
H313   H     0.91837   0.80327   0.95830   0.00000  Uiso   1.00
O314   O     0.33025   0.79499   0.76290   0.00000  Uiso   1.00
O315   O     0.77397   0.33040   0.77024   0.00000  Uiso   1.00
O316   O     0.87797   0.87102   0.90419   0.00000  Uiso   1.00
N317   N     0.22676   0.76796   0.73629   0.00000  Uiso   1.00
N318   N     0.83036   0.43688   0.74152   0.00000  Uiso   1.00
N319   N     0.90445   0.82211   0.83697   0.00000  Uiso   1.00
N320   N     0.24053   0.74764   0.81800   0.00000  Uiso   1.00
N321   N     0.84412   0.41655   0.82323   0.00000  Uiso   1.00
N322   N     0.91821   0.80178   0.91867   0.00000  Uiso   1.00
C323   C     0.69146   0.01399   0.09774   0.00000  Uiso   1.00
C324   C     0.64173   0.94427   0.10996   0.00000  Uiso   1.00
C325   C     0.61889   0.89333   0.07472   0.00000  Uiso   1.00
C326   C     0.57345   0.83320   0.09354   0.00000  Uiso   1.00
C327   C     0.49952   0.72629   0.10457   0.00000  Uiso   1.00
C328   C     0.65972   0.05352   0.11140   0.00000  Uiso   1.00
C329   C     0.65202   0.09443   0.07737   0.00000  Uiso   1.00
C330   C     0.62173   0.12627   0.09740   0.00000  Uiso   1.00
C331   C     0.57577   0.18900   0.11067   0.00000  Uiso   1.00
C332   C     0.74547   0.03309   0.13770   0.00000  Uiso   1.00
C333   C     0.80987   0.05684   0.12579   0.00000  Uiso   1.00
C334   C     0.85178   0.07150   0.16797   0.00000  Uiso   1.00
C335   C     0.93895   0.10251   0.22209   0.00000  Uiso   1.00
C336   C     0.65138   0.99781   0.19383   0.00000  Uiso   1.00
C337   C     0.61995   0.93549   0.16215   0.00000  Uiso   1.00
C338   C     0.57454   0.87542   0.18103   0.00000  Uiso   1.00
C339   C     0.55164   0.82439   0.14583   0.00000  Uiso   1.00
C340   C     0.63794   0.04473   0.16359   0.00000  Uiso   1.00
C341   C     0.60767   0.07652   0.18368   0.00000  Uiso   1.00
C342   C     0.59992   0.11746   0.14969   0.00000  Uiso   1.00
C343   C     0.72369   0.02430   0.18989   0.00000  Uiso   1.00
C344   C     0.76551   0.03893   0.23210   0.00000  Uiso   1.00
C345   C     0.82997   0.06269   0.22026   0.00000  Uiso   1.00
H346   H     0.70842   0.02084   0.05710   0.00000  Uiso   1.00
H347   H     0.63575   0.90015   0.03433   0.00000  Uiso   1.00
H348   H     0.66888   0.10123   0.03698   0.00000  Uiso   1.00
H349   H     0.82670   0.06364   0.08540   0.00000  Uiso   1.00
H350   H     0.54557   0.76247   0.03210   0.00000  Uiso   1.00
H351   H     0.61544   0.18647   0.03769   0.00000  Uiso   1.00
H352   H     0.94825   0.10721   0.13978   0.00000  Uiso   1.00
H353   H     0.63442   0.99096   0.23446   0.00000  Uiso   1.00
H354   H     0.55770   0.86863   0.22142   0.00000  Uiso   1.00
H355   H     0.59082   0.06971   0.22407   0.00000  Uiso   1.00
H356   H     0.74865   0.03212   0.27249   0.00000  Uiso   1.00
H357   H     0.48222   0.73689   0.18395   0.00000  Uiso   1.00
H358   H     0.55209   0.16089   0.18953   0.00000  Uiso   1.00
H359   H     0.88489   0.08163   0.29163   0.00000  Uiso   1.00
O360   O     0.46474   0.66975   0.09624   0.00000  Uiso   1.00
O361   O     0.55642   0.22603   0.10357   0.00000  Uiso   1.00
O362   O     0.99305   0.12203   0.23752   0.00000  Uiso   1.00
N363   N     0.54120   0.77324   0.06963   0.00000  Uiso   1.00
N364   N     0.60652   0.16964   0.07485   0.00000  Uiso   1.00
N365   N     0.91766   0.09555   0.17030   0.00000  Uiso   1.00
N366   N     0.50711   0.75947   0.15134   0.00000  Uiso   1.00
N367   N     0.57243   0.15588   0.15656   0.00000  Uiso   1.00
N368   N     0.88357   0.08179   0.25201   0.00000  Uiso   1.00
C369   C     0.32253   0.30854   0.43107   0.00000  Uiso   1.00
C370   C     0.30255   0.35827   0.44329   0.00000  Uiso   1.00
C371   C     0.27443   0.38111   0.40805   0.00000  Uiso   1.00
C372   C     0.25974   0.42655   0.42687   0.00000  Uiso   1.00
C373   C     0.22677   0.50048   0.43791   0.00000  Uiso   1.00
C374   C     0.39380   0.34028   0.44473   0.00000  Uiso   1.00
C375   C     0.44241   0.34798   0.41070   0.00000  Uiso   1.00
C376   C     0.50454   0.37827   0.43073   0.00000  Uiso   1.00
C377   C     0.61323   0.42423   0.44401   0.00000  Uiso   1.00
C378   C     0.28762   0.25453   0.47103   0.00000  Uiso   1.00
C379   C     0.24697   0.19013   0.45912   0.00000  Uiso   1.00
C380   C     0.21971   0.14822   0.50130   0.00000  Uiso   1.00
C381   C     0.16355   0.06105   0.55542   0.00000  Uiso   1.00
C382   C     0.34643   0.34862   0.52716   0.00000  Uiso   1.00
C383   C     0.31553   0.38005   0.49548   0.00000  Uiso   1.00
C384   C     0.30088   0.42546   0.51437   0.00000  Uiso   1.00
C385   C     0.27275   0.44836   0.47916   0.00000  Uiso   1.00
C386   C     0.40679   0.36206   0.49692   0.00000  Uiso   1.00
C387   C     0.46886   0.39233   0.51701   0.00000  Uiso   1.00
C388   C     0.51755   0.40008   0.48302   0.00000  Uiso   1.00
C389   C     0.30061   0.27631   0.52323   0.00000  Uiso   1.00
C390   C     0.27341   0.23449   0.56543   0.00000  Uiso   1.00
C391   C     0.23272   0.17003   0.55359   0.00000  Uiso   1.00
H392   H     0.31242   0.29158   0.39044   0.00000  Uiso   1.00
H393   H     0.26440   0.36425   0.36766   0.00000  Uiso   1.00
H394   H     0.43234   0.33112   0.37031   0.00000  Uiso   1.00
H395   H     0.23693   0.17330   0.41873   0.00000  Uiso   1.00
H396   H     0.21690   0.45443   0.36543   0.00000  Uiso   1.00
H397   H     0.57102   0.38456   0.37102   0.00000  Uiso   1.00
H398   H     0.15896   0.05175   0.47311   0.00000  Uiso   1.00
H399   H     0.35654   0.36558   0.56779   0.00000  Uiso   1.00
H400   H     0.31093   0.44230   0.55476   0.00000  Uiso   1.00
H401   H     0.47889   0.40918   0.55740   0.00000  Uiso   1.00
H402   H     0.28347   0.25135   0.60582   0.00000  Uiso   1.00
H403   H     0.25467   0.51778   0.51728   0.00000  Uiso   1.00
H404   H     0.60880   0.44791   0.52287   0.00000  Uiso   1.00
H405   H     0.19673   0.11511   0.62496   0.00000  Uiso   1.00
O406   O     0.20501   0.53526   0.42957   0.00000  Uiso   1.00
O407   O     0.66960   0.44358   0.43691   0.00000  Uiso   1.00
O408   O     0.12898   0.00695   0.57085   0.00000  Uiso   1.00
N409   N     0.23204   0.45880   0.40296   0.00000  Uiso   1.00
N410   N     0.56312   0.39348   0.40818   0.00000  Uiso   1.00
N411   N     0.17789   0.08234   0.50363   0.00000  Uiso   1.00
N412   N     0.25236   0.49289   0.48467   0.00000  Uiso   1.00
N413   N     0.58345   0.42757   0.48989   0.00000  Uiso   1.00
N414   N     0.19822   0.11643   0.58534   0.00000  Uiso   1.00
C415   C     0.01399   0.32253   0.26440   0.00000  Uiso   1.00
C416   C     0.94427   0.30255   0.27663   0.00000  Uiso   1.00
C417   C     0.89333   0.27443   0.24139   0.00000  Uiso   1.00
C418   C     0.83320   0.25974   0.26021   0.00000  Uiso   1.00
C419   C     0.72629   0.22677   0.27124   0.00000  Uiso   1.00
C420   C     0.05352   0.39380   0.27806   0.00000  Uiso   1.00
C421   C     0.09443   0.44241   0.24403   0.00000  Uiso   1.00
C422   C     0.12627   0.50454   0.26407   0.00000  Uiso   1.00
C423   C     0.18900   0.61323   0.27734   0.00000  Uiso   1.00
C424   C     0.03309   0.28762   0.30437   0.00000  Uiso   1.00
C425   C     0.05684   0.24697   0.29246   0.00000  Uiso   1.00
C426   C     0.07150   0.21971   0.33464   0.00000  Uiso   1.00
C427   C     0.10251   0.16355   0.38875   0.00000  Uiso   1.00
C428   C     0.99781   0.34643   0.36049   0.00000  Uiso   1.00
C429   C     0.93549   0.31553   0.32882   0.00000  Uiso   1.00
C430   C     0.87542   0.30088   0.34770   0.00000  Uiso   1.00
C431   C     0.82439   0.27275   0.31249   0.00000  Uiso   1.00
C432   C     0.04473   0.40679   0.33025   0.00000  Uiso   1.00
C433   C     0.07652   0.46886   0.35034   0.00000  Uiso   1.00
C434   C     0.11746   0.51755   0.31635   0.00000  Uiso   1.00
C435   C     0.02430   0.30061   0.35656   0.00000  Uiso   1.00
C436   C     0.03893   0.27341   0.39877   0.00000  Uiso   1.00
C437   C     0.06269   0.23272   0.38692   0.00000  Uiso   1.00
H438   H     0.02084   0.31242   0.22377   0.00000  Uiso   1.00
H439   H     0.90015   0.26440   0.20100   0.00000  Uiso   1.00
H440   H     0.10123   0.43234   0.20365   0.00000  Uiso   1.00
H441   H     0.06364   0.23693   0.25206   0.00000  Uiso   1.00
H442   H     0.76247   0.21690   0.19876   0.00000  Uiso   1.00
H443   H     0.18647   0.57102   0.20435   0.00000  Uiso   1.00
H444   H     0.10721   0.15896   0.30645   0.00000  Uiso   1.00
H445   H     0.99096   0.35654   0.40113   0.00000  Uiso   1.00
H446   H     0.86863   0.31093   0.38809   0.00000  Uiso   1.00
H447   H     0.06971   0.47889   0.39074   0.00000  Uiso   1.00
H448   H     0.03212   0.28347   0.43915   0.00000  Uiso   1.00
H449   H     0.73689   0.25467   0.35061   0.00000  Uiso   1.00
H450   H     0.16089   0.60880   0.35620   0.00000  Uiso   1.00
H451   H     0.08163   0.19673   0.45830   0.00000  Uiso   1.00
O452   O     0.66975   0.20501   0.26290   0.00000  Uiso   1.00
O453   O     0.22603   0.66960   0.27024   0.00000  Uiso   1.00
O454   O     0.12203   0.12898   0.40419   0.00000  Uiso   1.00
N455   N     0.77324   0.23204   0.23629   0.00000  Uiso   1.00
N456   N     0.16964   0.56312   0.24152   0.00000  Uiso   1.00
N457   N     0.09555   0.17789   0.33697   0.00000  Uiso   1.00
N458   N     0.75947   0.25236   0.31800   0.00000  Uiso   1.00
N459   N     0.15588   0.58345   0.32323   0.00000  Uiso   1.00
N460   N     0.08179   0.19822   0.41867   0.00000  Uiso   1.00
C461   C     0.30854   0.98601   0.59774   0.00000  Uiso   1.00
C462   C     0.35827   0.05573   0.60996   0.00000  Uiso   1.00
C463   C     0.38111   0.10667   0.57472   0.00000  Uiso   1.00
C464   C     0.42655   0.16680   0.59354   0.00000  Uiso   1.00
C465   C     0.50048   0.27371   0.60457   0.00000  Uiso   1.00
C466   C     0.34028   0.94648   0.61140   0.00000  Uiso   1.00
C467   C     0.34798   0.90557   0.57737   0.00000  Uiso   1.00
C468   C     0.37827   0.87373   0.59740   0.00000  Uiso   1.00
C469   C     0.42423   0.81100   0.61067   0.00000  Uiso   1.00
C470   C     0.25453   0.96691   0.63770   0.00000  Uiso   1.00
C471   C     0.19013   0.94316   0.62579   0.00000  Uiso   1.00
C472   C     0.14822   0.92850   0.66797   0.00000  Uiso   1.00
C473   C     0.06105   0.89749   0.72209   0.00000  Uiso   1.00
C474   C     0.34862   0.00219   0.69383   0.00000  Uiso   1.00
C475   C     0.38005   0.06451   0.66215   0.00000  Uiso   1.00
C476   C     0.42546   0.12458   0.68103   0.00000  Uiso   1.00
C477   C     0.44836   0.17561   0.64583   0.00000  Uiso   1.00
C478   C     0.36206   0.95527   0.66359   0.00000  Uiso   1.00
C479   C     0.39233   0.92348   0.68368   0.00000  Uiso   1.00
C480   C     0.40008   0.88254   0.64969   0.00000  Uiso   1.00
C481   C     0.27631   0.97570   0.68989   0.00000  Uiso   1.00
C482   C     0.23449   0.96107   0.73210   0.00000  Uiso   1.00
C483   C     0.17003   0.93731   0.72026   0.00000  Uiso   1.00
H484   H     0.29158   0.97916   0.55710   0.00000  Uiso   1.00
H485   H     0.36425   0.09985   0.53433   0.00000  Uiso   1.00
H486   H     0.33112   0.89877   0.53698   0.00000  Uiso   1.00
H487   H     0.17330   0.93636   0.58540   0.00000  Uiso   1.00
H488   H     0.45443   0.23753   0.53210   0.00000  Uiso   1.00
H489   H     0.38456   0.81353   0.53769   0.00000  Uiso   1.00
H490   H     0.05175   0.89279   0.63978   0.00000  Uiso   1.00
H491   H     0.36558   0.00904   0.73446   0.00000  Uiso   1.00
H492   H     0.44230   0.13137   0.72142   0.00000  Uiso   1.00
H493   H     0.40918   0.93029   0.72407   0.00000  Uiso   1.00
H494   H     0.25135   0.96788   0.77249   0.00000  Uiso   1.00
H495   H     0.51778   0.26311   0.68395   0.00000  Uiso   1.00
H496   H     0.44791   0.83911   0.68953   0.00000  Uiso   1.00
H497   H     0.11511   0.91837   0.79163   0.00000  Uiso   1.00
O498   O     0.53526   0.33025   0.59624   0.00000  Uiso   1.00
O499   O     0.44358   0.77397   0.60357   0.00000  Uiso   1.00
O500   O     0.00695   0.87797   0.73752   0.00000  Uiso   1.00
N501   N     0.45880   0.22676   0.56963   0.00000  Uiso   1.00
N502   N     0.39348   0.83036   0.57485   0.00000  Uiso   1.00
N503   N     0.08234   0.90445   0.67030   0.00000  Uiso   1.00
N504   N     0.49289   0.24053   0.65134   0.00000  Uiso   1.00
N505   N     0.42757   0.84412   0.65656   0.00000  Uiso   1.00
N506   N     0.11643   0.91821   0.75201   0.00000  Uiso   1.00
C507   C     0.67747   0.69146   0.93107   0.00000  Uiso   1.00
C508   C     0.69745   0.64173   0.94329   0.00000  Uiso   1.00
C509   C     0.72557   0.61889   0.90805   0.00000  Uiso   1.00
C510   C     0.74026   0.57345   0.92687   0.00000  Uiso   1.00
C511   C     0.77323   0.49952   0.93791   0.00000  Uiso   1.00
C512   C     0.60620   0.65972   0.94473   0.00000  Uiso   1.00
C513   C     0.55759   0.65202   0.91070   0.00000  Uiso   1.00
C514   C     0.49546   0.62173   0.93073   0.00000  Uiso   1.00
C515   C     0.38677   0.57577   0.94401   0.00000  Uiso   1.00
C516   C     0.71238   0.74547   0.97103   0.00000  Uiso   1.00
C517   C     0.75303   0.80987   0.95912   0.00000  Uiso   1.00
C518   C     0.78029   0.85178   0.00130   0.00000  Uiso   1.00
C519   C     0.83645   0.93895   0.05542   0.00000  Uiso   1.00
C520   C     0.65357   0.65138   0.02716   0.00000  Uiso   1.00
C521   C     0.68447   0.61995   0.99548   0.00000  Uiso   1.00
C522   C     0.69912   0.57454   0.01437   0.00000  Uiso   1.00
C523   C     0.72725   0.55164   0.97916   0.00000  Uiso   1.00
C524   C     0.59321   0.63794   0.99692   0.00000  Uiso   1.00
C525   C     0.53114   0.60767   0.01701   0.00000  Uiso   1.00
C526   C     0.48245   0.59992   0.98302   0.00000  Uiso   1.00
C527   C     0.69939   0.72369   0.02323   0.00000  Uiso   1.00
C528   C     0.72659   0.76551   0.06543   0.00000  Uiso   1.00
C529   C     0.76728   0.82997   0.05359   0.00000  Uiso   1.00
H530   H     0.68758   0.70842   0.89044   0.00000  Uiso   1.00
H531   H     0.73560   0.63575   0.86766   0.00000  Uiso   1.00
H532   H     0.56766   0.66888   0.87031   0.00000  Uiso   1.00
H533   H     0.76307   0.82670   0.91873   0.00000  Uiso   1.00
H534   H     0.78310   0.54557   0.86543   0.00000  Uiso   1.00
H535   H     0.42898   0.61544   0.87102   0.00000  Uiso   1.00
H536   H     0.84104   0.94825   0.97311   0.00000  Uiso   1.00
H537   H     0.64346   0.63442   0.06779   0.00000  Uiso   1.00
H538   H     0.68907   0.55770   0.05476   0.00000  Uiso   1.00
H539   H     0.52111   0.59082   0.05740   0.00000  Uiso   1.00
H540   H     0.71653   0.74865   0.10582   0.00000  Uiso   1.00
H541   H     0.74533   0.48222   0.01728   0.00000  Uiso   1.00
H542   H     0.39120   0.55209   0.02287   0.00000  Uiso   1.00
H543   H     0.80327   0.88489   0.12496   0.00000  Uiso   1.00
O544   O     0.79499   0.46474   0.92957   0.00000  Uiso   1.00
O545   O     0.33040   0.55642   0.93691   0.00000  Uiso   1.00
O546   O     0.87102   0.99305   0.07085   0.00000  Uiso   1.00
N547   N     0.76796   0.54120   0.90296   0.00000  Uiso   1.00
N548   N     0.43688   0.60652   0.90818   0.00000  Uiso   1.00
N549   N     0.82211   0.91766   0.00363   0.00000  Uiso   1.00
N550   N     0.74764   0.50711   0.98467   0.00000  Uiso   1.00
N551   N     0.41655   0.57243   0.98989   0.00000  Uiso   1.00
N552   N     0.80178   0.88357   0.08534   0.00000  Uiso   1.00
