data_job_06553
_audit_creation_date              2018-12-19
_audit_creation_method            'Materials Studio'
_symmetry_space_group_name_H-M    'P1'
_symmetry_Int_Tables_number       1
_symmetry_cell_setting            triclinic
loop_
_symmetry_equiv_pos_as_xyz
  x,y,z
_cell_length_a                    18.4051
_cell_length_b                    21.7823
_cell_length_c                    24.3851
_cell_angle_alpha                 64.4701
_cell_angle_beta                  90.5479
_cell_angle_gamma                 70.3606
loop_
_atom_site_label
_atom_site_type_symbol
_atom_site_fract_x
_atom_site_fract_y
_atom_site_fract_z
_atom_site_U_iso_or_equiv
_atom_site_adp_type
_atom_site_occupancy
C1     C     0.06518   0.48276   0.61848   0.00000  Uiso   1.00
C2     C     0.06250   0.51315   0.66459   0.00000  Uiso   1.00
C3     C     0.09478   0.56333   0.66181   0.00000  Uiso   1.00
C4     C     0.08607   0.58428   0.70842   0.00000  Uiso   1.00
C5     C     0.08797   0.63574   0.77279   0.00000  Uiso   1.00
C6     C     0.10298   0.39941   0.65618   0.00000  Uiso   1.00
C7     C     0.16929   0.35396   0.64632   0.00000  Uiso   1.00
C8     C     0.19464   0.27917   0.68585   0.00000  Uiso   1.00
C9     C     0.25935   0.15404   0.73712   0.00000  Uiso   1.00
C10    C     0.98011   0.50007   0.59480   0.00000  Uiso   1.00
C11    C     0.94312   0.53924   0.53333   0.00000  Uiso   1.00
C12    C     0.86502   0.54918   0.52118   0.00000  Uiso   1.00
C13    C     0.73896   0.58033   0.47716   0.00000  Uiso   1.00
C14    C     0.99228   0.43074   0.70621   0.00000  Uiso   1.00
C15    C     0.02291   0.48489   0.71224   0.00000  Uiso   1.00
C16    C     0.01413   0.50578   0.75887   0.00000  Uiso   1.00
C17    C     0.04640   0.55598   0.75616   0.00000  Uiso   1.00
C18    C     0.06339   0.37116   0.70383   0.00000  Uiso   1.00
C19    C     0.08864   0.29641   0.74338   0.00000  Uiso   1.00
C20    C     0.15498   0.25087   0.73358   0.00000  Uiso   1.00
C21    C     0.94051   0.47182   0.64245   0.00000  Uiso   1.00
C22    C     0.86247   0.48169   0.63040   0.00000  Uiso   1.00
C23    C     0.82536   0.52087   0.56892   0.00000  Uiso   1.00
H24    H     0.09601   0.50475   0.58139   0.00000  Uiso   1.00
H25    H     0.12543   0.58518   0.62493   0.00000  Uiso   1.00
H26    H     0.19992   0.37584   0.60944   0.00000  Uiso   1.00
H27    H     0.97378   0.56109   0.49647   0.00000  Uiso   1.00
H28    H     0.14061   0.66186   0.69423   0.00000  Uiso   1.00
H29    H     0.29766   0.22047   0.66155   0.00000  Uiso   1.00
H30    H     0.82080   0.61110   0.42334   0.00000  Uiso   1.00
H31    H     0.96146   0.40874   0.74331   0.00000  Uiso   1.00
H32    H     0.98349   0.48391   0.79574   0.00000  Uiso   1.00
H33    H     0.05799   0.27457   0.78025   0.00000  Uiso   1.00
H34    H     0.83185   0.45982   0.66728   0.00000  Uiso   1.00
H35    H     0.02542   0.57966   0.83287   0.00000  Uiso   1.00
H36    H     0.18246   0.13827   0.80018   0.00000  Uiso   1.00
H37    H     0.70560   0.52890   0.56198   0.00000  Uiso   1.00
O38    O     0.09996   0.67192   0.79513   0.00000  Uiso   1.00
O39    O     0.30599   0.09283   0.75224   0.00000  Uiso   1.00
O40    O     0.68036   0.60533   0.43972   0.00000  Uiso   1.00
N41    N     0.11046   0.63221   0.71966   0.00000  Uiso   1.00
N42    N     0.25730   0.21954   0.68911   0.00000  Uiso   1.00
N43    N     0.81148   0.58473   0.46640   0.00000  Uiso   1.00
N44    N     0.04847   0.58798   0.79426   0.00000  Uiso   1.00
N45    N     0.19531   0.17531   0.76371   0.00000  Uiso   1.00
N46    N     0.74949   0.54050   0.54100   0.00000  Uiso   1.00
C47    C     0.60557   0.02454   0.96172   0.00000  Uiso   1.00
C48    C     0.61448   0.09089   0.90914   0.00000  Uiso   1.00
C49    C     0.59862   0.11132   0.84664   0.00000  Uiso   1.00
C50    C     0.61051   0.17379   0.80580   0.00000  Uiso   1.00
C51    C     0.62030   0.27062   0.72096   0.00000  Uiso   1.00
C52    C     0.68555   0.97937   0.00417   0.00000  Uiso   1.00
C53    C     0.72943   0.90603   0.02156   0.00000  Uiso   1.00
C54    C     0.80114   0.87463   0.06072   0.00000  Uiso   1.00
C55    C     0.92124   0.79831   0.12345   0.00000  Uiso   1.00
C56    C     0.55050   0.05450   0.99833   0.00000  Uiso   1.00
C57    C     0.48084   0.04432   0.01084   0.00000  Uiso   1.00
C58    C     0.43886   0.07616   0.04511   0.00000  Uiso   1.00
C59    C     0.34927   0.11650   0.09878   0.00000  Uiso   1.00
C60    C     0.65489   0.09916   0.00035   0.00000  Uiso   1.00
C61    C     0.64127   0.13141   0.93012   0.00000  Uiso   1.00
C62    C     0.65318   0.19387   0.88937   0.00000  Uiso   1.00
C63    C     0.63734   0.21439   0.82681   0.00000  Uiso   1.00
C64    C     0.71234   0.01989   0.02514   0.00000  Uiso   1.00
C65    C     0.78400   0.98859   0.06429   0.00000  Uiso   1.00
C66    C     0.82798   0.91523   0.08174   0.00000  Uiso   1.00
C67    C     0.57728   0.09503   0.01931   0.00000  Uiso   1.00
C68    C     0.53540   0.12689   0.05357   0.00000  Uiso   1.00
C69    C     0.46569   0.11676   0.06613   0.00000  Uiso   1.00
H70    H     0.58472   0.99298   0.94539   0.00000  Uiso   1.00
H71    H     0.57790   0.07993   0.83042   0.00000  Uiso   1.00
H72    H     0.70869   0.87468   0.00532   0.00000  Uiso   1.00
H73    H     0.46013   0.01296   0.99460   0.00000  Uiso   1.00
H74    H     0.58217   0.19419   0.71220   0.00000  Uiso   1.00
H75    H     0.85793   0.76140   0.08101   0.00000  Uiso   1.00
H76    H     0.33381   0.05298   0.05841   0.00000  Uiso   1.00
H77    H     0.67575   0.13071   0.01668   0.00000  Uiso   1.00
H78    H     0.67391   0.22523   0.90562   0.00000  Uiso   1.00
H79    H     0.80470   0.01997   0.08052   0.00000  Uiso   1.00
H80    H     0.55615   0.15825   0.06980   0.00000  Uiso   1.00
H81    H     0.66010   0.31211   0.77323   0.00000  Uiso   1.00
H82    H     0.93586   0.87932   0.14205   0.00000  Uiso   1.00
H83    H     0.41174   0.17090   0.11944   0.00000  Uiso   1.00
O84    O     0.61831   0.31283   0.66837   0.00000  Uiso   1.00
O85    O     0.98009   0.74502   0.15224   0.00000  Uiso   1.00
O86    O     0.29245   0.12756   0.12258   0.00000  Uiso   1.00
N87    N     0.60074   0.20898   0.74181   0.00000  Uiso   1.00
N88    N     0.85857   0.80435   0.08662   0.00000  Uiso   1.00
N89    N     0.36857   0.07693   0.06550   0.00000  Uiso   1.00
N90    N     0.64268   0.27244   0.77465   0.00000  Uiso   1.00
N91    N     0.90051   0.86780   0.11946   0.00000  Uiso   1.00
N92    N     0.41051   0.14039   0.09834   0.00000  Uiso   1.00
C93    C     0.01097   0.78344   0.43632   0.00000  Uiso   1.00
C94    C     0.95154   0.75603   0.47221   0.00000  Uiso   1.00
C95    C     0.95517   0.72856   0.53560   0.00000  Uiso   1.00
C96    C     0.89511   0.70630   0.55960   0.00000  Uiso   1.00
C97    C     0.81221   0.66293   0.62113   0.00000  Uiso   1.00
C98    C     0.03939   0.73867   0.40149   0.00000  Uiso   1.00
C99    C     0.11688   0.69661   0.40542   0.00000  Uiso   1.00
C100   C     0.13075   0.65974   0.36987   0.00000  Uiso   1.00
C101   C     0.18424   0.58947   0.32157   0.00000  Uiso   1.00
C102   C     0.96445   0.86201   0.38720   0.00000  Uiso   1.00
C103   C     0.97894   0.92366   0.37910   0.00000  Uiso   1.00
C104   C     0.92973   0.99064   0.33151   0.00000  Uiso   1.00
C105   C     0.86686   0.11187   0.26103   0.00000  Uiso   1.00
C106   C     0.89784   0.79278   0.36620   0.00000  Uiso   1.00
C107   C     0.89010   0.76111   0.43413   0.00000  Uiso   1.00
C108   C     0.83001   0.73889   0.45803   0.00000  Uiso   1.00
C109   C     0.83355   0.71138   0.52144   0.00000  Uiso   1.00
C110   C     0.97794   0.74374   0.36341   0.00000  Uiso   1.00
C111   C     0.99171   0.70694   0.32784   0.00000  Uiso   1.00
C112   C     0.06920   0.66482   0.33172   0.00000  Uiso   1.00
C113   C     0.90300   0.86709   0.34912   0.00000  Uiso   1.00
C114   C     0.85377   0.93399   0.30153   0.00000  Uiso   1.00
C115   C     0.86817   0.99572   0.29336   0.00000  Uiso   1.00
H116   H     0.05881   0.77949   0.46597   0.00000  Uiso   1.00
H117   H     0.00274   0.72463   0.56506   0.00000  Uiso   1.00
H118   H     0.16441   0.69270   0.43489   0.00000  Uiso   1.00
H119   H     0.02649   0.91971   0.40858   0.00000  Uiso   1.00
H120   H     0.91350   0.66602   0.65814   0.00000  Uiso   1.00
H121   H     0.25440   0.59870   0.38364   0.00000  Uiso   1.00
H122   H     0.96356   0.07741   0.32817   0.00000  Uiso   1.00
H123   H     0.85000   0.79673   0.33655   0.00000  Uiso   1.00
H124   H     0.78246   0.74282   0.42854   0.00000  Uiso   1.00
H125   H     0.94414   0.71088   0.29837   0.00000  Uiso   1.00
H126   H     0.80622   0.93789   0.27206   0.00000  Uiso   1.00
H127   H     0.73471   0.68078   0.54733   0.00000  Uiso   1.00
H128   H     0.07562   0.61346   0.27284   0.00000  Uiso   1.00
H129   H     0.78478   0.09216   0.21736   0.00000  Uiso   1.00
O130   O     0.78346   0.63760   0.66559   0.00000  Uiso   1.00
O131   O     0.23072   0.54930   0.30546   0.00000  Uiso   1.00
O132   O     0.84915   0.17734   0.23268   0.00000  Uiso   1.00
N133   N     0.88068   0.67691   0.61943   0.00000  Uiso   1.00
N134   N     0.19940   0.61396   0.36281   0.00000  Uiso   1.00
N135   N     0.92751   0.06150   0.31093   0.00000  Uiso   1.00
N136   N     0.78448   0.68485   0.55981   0.00000  Uiso   1.00
N137   N     0.10320   0.62190   0.30318   0.00000  Uiso   1.00
N138   N     0.83131   0.06945   0.25131   0.00000  Uiso   1.00
C139   C     0.43971   0.83698   0.68286   0.00000  Uiso   1.00
C140   C     0.35550   0.84836   0.66280   0.00000  Uiso   1.00
C141   C     0.31388   0.88849   0.60264   0.00000  Uiso   1.00
C142   C     0.23752   0.89233   0.59387   0.00000  Uiso   1.00
C143   C     0.11187   0.91530   0.55517   0.00000  Uiso   1.00
C144   C     0.48459   0.75408   0.71727   0.00000  Uiso   1.00
C145   C     0.55151   0.71494   0.70292   0.00000  Uiso   1.00
C146   C     0.58382   0.63941   0.74001   0.00000  Uiso   1.00
C147   C     0.65862   0.51601   0.78591   0.00000  Uiso   1.00
C148   C     0.43682   0.86427   0.73113   0.00000  Uiso   1.00
C149   C     0.46360   0.91777   0.72845   0.00000  Uiso   1.00
C150   C     0.45572   0.93501   0.77722   0.00000  Uiso   1.00
C151   C     0.45635   0.98270   0.84463   0.00000  Uiso   1.00
C152   C     0.37811   0.77245   0.77426   0.00000  Uiso   1.00
C153   C     0.32204   0.81331   0.71245   0.00000  Uiso   1.00
C154   C     0.24573   0.81709   0.70376   0.00000  Uiso   1.00
C155   C     0.20400   0.85722   0.64361   0.00000  Uiso   1.00
C156   C     0.45113   0.71902   0.76692   0.00000  Uiso   1.00
C157   C     0.48336   0.64354   0.80404   0.00000  Uiso   1.00
C158   C     0.55031   0.60429   0.78974   0.00000  Uiso   1.00
C159   C     0.40336   0.82922   0.78078   0.00000  Uiso   1.00
C160   C     0.39545   0.84637   0.82956   0.00000  Uiso   1.00
C161   C     0.42220   0.89989   0.82695   0.00000  Uiso   1.00
H162   H     0.46576   0.86426   0.64421   0.00000  Uiso   1.00
H163   H     0.33980   0.91560   0.56424   0.00000  Uiso   1.00
H164   H     0.57739   0.74208   0.66450   0.00000  Uiso   1.00
H165   H     0.48949   0.94488   0.69002   0.00000  Uiso   1.00
H166   H     0.18540   0.95703   0.49746   0.00000  Uiso   1.00
H167   H     0.68640   0.59116   0.70889   0.00000  Uiso   1.00
H168   H     0.50105   0.01881   0.76270   0.00000  Uiso   1.00
H169   H     0.35206   0.74515   0.81291   0.00000  Uiso   1.00
H170   H     0.21985   0.78996   0.74219   0.00000  Uiso   1.00
H171   H     0.45745   0.61643   0.84245   0.00000  Uiso   1.00
H172   H     0.36955   0.81924   0.86797   0.00000  Uiso   1.00
H173   H     0.08805   0.85506   0.64190   0.00000  Uiso   1.00
H174   H     0.58906   0.48918   0.85332   0.00000  Uiso   1.00
H175   H     0.40370   0.91683   0.90714   0.00000  Uiso   1.00
O176   O     0.05181   0.93765   0.52011   0.00000  Uiso   1.00
O177   O     0.70912   0.45763   0.79750   0.00000  Uiso   1.00
O178   O     0.46594   0.01870   0.86810   0.00000  Uiso   1.00
N179   N     0.18062   0.92690   0.54116   0.00000  Uiso   1.00
N180   N     0.64903   0.58482   0.73883   0.00000  Uiso   1.00
N181   N     0.47576   0.98462   0.78915   0.00000  Uiso   1.00
N182   N     0.12824   0.87202   0.61888   0.00000  Uiso   1.00
N183   N     0.59664   0.52995   0.81654   0.00000  Uiso   1.00
N184   N     0.42337   0.92975   0.86686   0.00000  Uiso   1.00
C185   C     0.54067   0.38755   0.48496   0.00000  Uiso   1.00
C186   C     0.55674   0.43459   0.42247   0.00000  Uiso   1.00
C187   C     0.58938   0.48694   0.41076   0.00000  Uiso   1.00
C188   C     0.59933   0.52412   0.35050   0.00000  Uiso   1.00
C189   C     0.62765   0.59936   0.26060   0.00000  Uiso   1.00
C190   C     0.58410   0.30797   0.49840   0.00000  Uiso   1.00
C191   C     0.63974   0.25386   0.55053   0.00000  Uiso   1.00
C192   C     0.67272   0.18445   0.55419   0.00000  Uiso   1.00
C193   C     0.74348   0.06310   0.58219   0.00000  Uiso   1.00
C194   C     0.45351   0.40156   0.47494   0.00000  Uiso   1.00
C195   C     0.39936   0.42613   0.50736   0.00000  Uiso   1.00
C196   C     0.32239   0.43551   0.49129   0.00000  Uiso   1.00
C197   C     0.19039   0.45948   0.48287   0.00000  Uiso   1.00
C198   C     0.50029   0.36050   0.39878   0.00000  Uiso   1.00
C199   C     0.53481   0.41989   0.37566   0.00000  Uiso   1.00
C200   C     0.54471   0.45701   0.31541   0.00000  Uiso   1.00
C201   C     0.57736   0.50940   0.30361   0.00000  Uiso   1.00
C202   C     0.56217   0.29327   0.45159   0.00000  Uiso   1.00
C203   C     0.59507   0.22393   0.45518   0.00000  Uiso   1.00
C204   C     0.65075   0.16973   0.50730   0.00000  Uiso   1.00
C205   C     0.43158   0.38687   0.42813   0.00000  Uiso   1.00
C206   C     0.35469   0.39620   0.41201   0.00000  Uiso   1.00
C207   C     0.30042   0.42079   0.44439   0.00000  Uiso   1.00
H208   H     0.55775   0.39899   0.52140   0.00000  Uiso   1.00
H209   H     0.60635   0.49829   0.44700   0.00000  Uiso   1.00
H210   H     0.65670   0.26524   0.58675   0.00000  Uiso   1.00
H211   H     0.41635   0.43749   0.54358   0.00000  Uiso   1.00
H212   H     0.65059   0.60188   0.34386   0.00000  Uiso   1.00
H213   H     0.75673   0.11049   0.63855   0.00000  Uiso   1.00
H214   H     0.24991   0.47371   0.54753   0.00000  Uiso   1.00
H215   H     0.48322   0.34906   0.36233   0.00000  Uiso   1.00
H216   H     0.52773   0.44562   0.27919   0.00000  Uiso   1.00
H217   H     0.57808   0.21258   0.41895   0.00000  Uiso   1.00
H218   H     0.33773   0.38483   0.37578   0.00000  Uiso   1.00
H219   H     0.58679   0.55913   0.20767   0.00000  Uiso   1.00
H220   H     0.69292   0.06774   0.50236   0.00000  Uiso   1.00
H221   H     0.18610   0.43096   0.41134   0.00000  Uiso   1.00
O222   O     0.64934   0.64491   0.22395   0.00000  Uiso   1.00
O223   O     0.78858   0.00023   0.61057   0.00000  Uiso   1.00
O224   O     0.12364   0.47676   0.49116   0.00000  Uiso   1.00
N225   N     0.62945   0.57858   0.32322   0.00000  Uiso   1.00
N226   N     0.72869   0.11916   0.59873   0.00000  Uiso   1.00
N227   N     0.25486   0.45872   0.51365   0.00000  Uiso   1.00
N228   N     0.59512   0.55558   0.24993   0.00000  Uiso   1.00
N229   N     0.69436   0.09616   0.52544   0.00000  Uiso   1.00
N230   N     0.22053   0.43572   0.44036   0.00000  Uiso   1.00
C231   C     0.16500   0.32512   0.13794   0.00000  Uiso   1.00
C232   C     0.18067   0.26712   0.20513   0.00000  Uiso   1.00
C233   C     0.15984   0.20627   0.22646   0.00000  Uiso   1.00
C234   C     0.17942   0.15970   0.28961   0.00000  Uiso   1.00
C235   C     0.19786   0.06751   0.38780   0.00000  Uiso   1.00
C236   C     0.24466   0.32713   0.12292   0.00000  Uiso   1.00
C237   C     0.27762   0.31673   0.07512   0.00000  Uiso   1.00
C238   C     0.35107   0.32069   0.06907   0.00000  Uiso   1.00
C239   C     0.46883   0.32171   0.03960   0.00000  Uiso   1.00
C240   C     0.11889   0.39860   0.13663   0.00000  Uiso   1.00
C241   C     0.04611   0.44831   0.10036   0.00000  Uiso   1.00
C242   C     0.01368   0.51244   0.10585   0.00000  Uiso   1.00
C243   C     0.93616   0.62443   0.09767   0.00000  Uiso   1.00
C244   C     0.23683   0.35064   0.21216   0.00000  Uiso   1.00
C245   C     0.21969   0.28098   0.24544   0.00000  Uiso   1.00
C246   C     0.23931   0.23449   0.30858   0.00000  Uiso   1.00
C247   C     0.21851   0.17358   0.33000   0.00000  Uiso   1.00
C248   C     0.28368   0.34098   0.16323   0.00000  Uiso   1.00
C249   C     0.35709   0.34496   0.15725   0.00000  Uiso   1.00
C250   C     0.39016   0.33457   0.10946   0.00000  Uiso   1.00
C251   C     0.15791   0.41246   0.17695   0.00000  Uiso   1.00
C252   C     0.12558   0.47653   0.18249   0.00000  Uiso   1.00
C253   C     0.05276   0.52632   0.14623   0.00000  Uiso   1.00
H254   H     0.13463   0.31434   0.10655   0.00000  Uiso   1.00
H255   H     0.12965   0.19556   0.19524   0.00000  Uiso   1.00
H256   H     0.24741   0.30602   0.04393   0.00000  Uiso   1.00
H257   H     0.01594   0.43757   0.06917   0.00000  Uiso   1.00
H258   H     0.14137   0.06997   0.31135   0.00000  Uiso   1.00
H259   H     0.38966   0.30290   0.99229   0.00000  Uiso   1.00
H260   H     0.90155   0.58030   0.04550   0.00000  Uiso   1.00
H261   H     0.26721   0.36142   0.24355   0.00000  Uiso   1.00
H262   H     0.26950   0.24523   0.33977   0.00000  Uiso   1.00
H263   H     0.38727   0.35569   0.18845   0.00000  Uiso   1.00
H264   H     0.15579   0.48723   0.21369   0.00000  Uiso   1.00
H265   H     0.25488   0.11029   0.42865   0.00000  Uiso   1.00
H266   H     0.50317   0.34322   0.10959   0.00000  Uiso   1.00
H267   H     0.01506   0.62061   0.16281   0.00000  Uiso   1.00
O268   O     0.19726   0.01283   0.43082   0.00000  Uiso   1.00
O269   O     0.52301   0.31844   0.01222   0.00000  Uiso   1.00
O270   O     0.88262   0.68237   0.08204   0.00000  Uiso   1.00
N271   N     0.16775   0.09542   0.32576   0.00000  Uiso   1.00
N272   N     0.39990   0.31318   0.02746   0.00000  Uiso   1.00
N273   N     0.94356   0.57253   0.07720   0.00000  Uiso   1.00
N274   N     0.22883   0.11711   0.38888   0.00000  Uiso   1.00
N275   N     0.46098   0.33487   0.09058   0.00000  Uiso   1.00
N276   N     0.00464   0.59422   0.14032   0.00000  Uiso   1.00
C277   C     0.88587   0.39569   0.41346   0.00000  Uiso   1.00
C278   C     0.86387   0.35058   0.38756   0.00000  Uiso   1.00
C279   C     0.81118   0.31611   0.40766   0.00000  Uiso   1.00
C280   C     0.79907   0.27751   0.37799   0.00000  Uiso   1.00
C281   C     0.75893   0.20810   0.34505   0.00000  Uiso   1.00
C282   C     0.86836   0.47098   0.35871   0.00000  Uiso   1.00
C283   C     0.81946   0.53773   0.35455   0.00000  Uiso   1.00
C284   C     0.81113   0.60047   0.30060   0.00000  Uiso   1.00
C285   C     0.77800   0.71798   0.22289   0.00000  Uiso   1.00
C286   C     0.97482   0.36053   0.43352   0.00000  Uiso   1.00
C287   C     0.01543   0.33443   0.49227   0.00000  Uiso   1.00
C288   C     0.09674   0.30420   0.50130   0.00000  Uiso   1.00
C289   C     0.22890   0.25023   0.53975   0.00000  Uiso   1.00
C290   C     0.95805   0.38843   0.32503   0.00000  Uiso   1.00
C291   C     0.90308   0.34665   0.33953   0.00000  Uiso   1.00
C292   C     0.89105   0.30808   0.30982   0.00000  Uiso   1.00
C293   C     0.83835   0.27355   0.32987   0.00000  Uiso   1.00
C294   C     0.90757   0.46704   0.31068   0.00000  Uiso   1.00
C295   C     0.89932   0.52969   0.25672   0.00000  Uiso   1.00
C296   C     0.85041   0.59652   0.25248   0.00000  Uiso   1.00
C297   C     0.01403   0.35659   0.38549   0.00000  Uiso   1.00
C298   C     0.09529   0.32640   0.39443   0.00000  Uiso   1.00
C299   C     0.13601   0.30026   0.45319   0.00000  Uiso   1.00
H300   H     0.85534   0.39876   0.45086   0.00000  Uiso   1.00
H301   H     0.78085   0.31918   0.44483   0.00000  Uiso   1.00
H302   H     0.78913   0.54076   0.39173   0.00000  Uiso   1.00
H303   H     0.98507   0.33750   0.52943   0.00000  Uiso   1.00
H304   H     0.71553   0.22923   0.41695   0.00000  Uiso   1.00
H305   H     0.73301   0.69645   0.30500   0.00000  Uiso   1.00
H306   H     0.14619   0.26783   0.59536   0.00000  Uiso   1.00
H307   H     0.98858   0.38536   0.28764   0.00000  Uiso   1.00
H308   H     0.92140   0.30504   0.27265   0.00000  Uiso   1.00
H309   H     0.92967   0.52662   0.21956   0.00000  Uiso   1.00
H310   H     0.12561   0.32336   0.35725   0.00000  Uiso   1.00
H311   H     0.82960   0.21776   0.27720   0.00000  Uiso   1.00
H312   H     0.84708   0.68498   0.16526   0.00000  Uiso   1.00
H313   H     0.26026   0.25635   0.45562   0.00000  Uiso   1.00
O314   O     0.72595   0.17092   0.34014   0.00000  Uiso   1.00
O315   O     0.74889   0.78389   0.19329   0.00000  Uiso   1.00
O316   O     0.29097   0.22154   0.57423   0.00000  Uiso   1.00
N317   N     0.75161   0.23754   0.38612   0.00000  Uiso   1.00
N318   N     0.76794   0.67436   0.28146   0.00000  Uiso   1.00
N319   N     0.15423   0.27365   0.55292   0.00000  Uiso   1.00
N320   N     0.81299   0.23137   0.31092   0.00000  Uiso   1.00
N321   N     0.82932   0.66819   0.20626   0.00000  Uiso   1.00
N322   N     0.21561   0.26748   0.47772   0.00000  Uiso   1.00
C323   C     0.47262   0.78341   0.10454   0.00000  Uiso   1.00
C324   C     0.44320   0.73486   0.15810   0.00000  Uiso   1.00
C325   C     0.44553   0.73094   0.21646   0.00000  Uiso   1.00
C326   C     0.41567   0.68315   0.25904   0.00000  Uiso   1.00
C327   C     0.37468   0.61422   0.34452   0.00000  Uiso   1.00
C328   C     0.40312   0.83012   0.05098   0.00000  Uiso   1.00
C329   C     0.37175   0.90629   0.01926   0.00000  Uiso   1.00
C330   C     0.30816   0.93869   0.97167   0.00000  Uiso   1.00
C331   C     0.20497   0.01765   0.89081   0.00000  Uiso   1.00
C332   C     0.53237   0.73188   0.08526   0.00000  Uiso   1.00
C333   C     0.60968   0.72548   0.08236   0.00000  Uiso   1.00
C334   C     0.65491   0.67519   0.06361   0.00000  Uiso   1.00
C335   C     0.75240   0.60163   0.03598   0.00000  Uiso   1.00
C336   C     0.41546   0.70550   0.07640   0.00000  Uiso   1.00
C337   C     0.41215   0.69254   0.14281   0.00000  Uiso   1.00
C338   C     0.38229   0.64474   0.18532   0.00000  Uiso   1.00
C339   C     0.38457   0.64075   0.24373   0.00000  Uiso   1.00
C340   C     0.37207   0.78780   0.03569   0.00000  Uiso   1.00
C341   C     0.30851   0.82010   0.98813   0.00000  Uiso   1.00
C342   C     0.27705   0.89630   0.95636   0.00000  Uiso   1.00
C343   C     0.50133   0.68957   0.06998   0.00000  Uiso   1.00
C344   C     0.54644   0.63928   0.05123   0.00000  Uiso   1.00
C345   C     0.62380   0.63280   0.04830   0.00000  Uiso   1.00
H346   H     0.49679   0.81636   0.11644   0.00000  Uiso   1.00
H347   H     0.46956   0.76370   0.22827   0.00000  Uiso   1.00
H348   H     0.39580   0.93902   0.03110   0.00000  Uiso   1.00
H349   H     0.63369   0.75824   0.09419   0.00000  Uiso   1.00
H350   H     0.42564   0.68668   0.34550   0.00000  Uiso   1.00
H351   H     0.27013   0.05635   0.92975   0.00000  Uiso   1.00
H352   H     0.77177   0.67513   0.06278   0.00000  Uiso   1.00
H353   H     0.39129   0.67256   0.06450   0.00000  Uiso   1.00
H354   H     0.35827   0.61200   0.17348   0.00000  Uiso   1.00
H355   H     0.28451   0.78733   0.97631   0.00000  Uiso   1.00
H356   H     0.52240   0.60654   0.03940   0.00000  Uiso   1.00
H357   H     0.33531   0.56355   0.30103   0.00000  Uiso   1.00
H358   H     0.17980   0.93324   0.88528   0.00000  Uiso   1.00
H359   H     0.68144   0.55201   0.01832   0.00000  Uiso   1.00
O360   O     0.36063   0.58789   0.39589   0.00000  Uiso   1.00
O361   O     0.15662   0.07290   0.85043   0.00000  Uiso   1.00
O362   O     0.81476   0.57274   0.02497   0.00000  Uiso   1.00
N363   N     0.40893   0.66600   0.32008   0.00000  Uiso   1.00
N364   N     0.26353   0.01163   0.93139   0.00000  Uiso   1.00
N365   N     0.73251   0.65523   0.05575   0.00000  Uiso   1.00
N366   N     0.36032   0.59975   0.29616   0.00000  Uiso   1.00
N367   N     0.21492   0.94538   0.90746   0.00000  Uiso   1.00
N368   N     0.68391   0.58898   0.03182   0.00000  Uiso   1.00
C369   C     0.95509   0.06450   0.66331   0.00000  Uiso   1.00
C370   C     0.03390   0.06475   0.64472   0.00000  Uiso   1.00
C371   C     0.05213   0.07834   0.58656   0.00000  Uiso   1.00
C372   C     0.12748   0.07605   0.57888   0.00000  Uiso   1.00
C373   C     0.24148   0.07880   0.54260   0.00000  Uiso   1.00
C374   C     0.92834   0.12001   0.68846   0.00000  Uiso   1.00
C375   C     0.85780   0.18007   0.66706   0.00000  Uiso   1.00
C376   C     0.84429   0.22430   0.69621   0.00000  Uiso   1.00
C377   C     0.79437   0.31282   0.72785   0.00000  Uiso   1.00
C378   C     0.97252   0.98940   0.71829   0.00000  Uiso   1.00
C379   C     0.93911   0.93963   0.72198   0.00000  Uiso   1.00
C380   C     0.96278   0.87389   0.77626   0.00000  Uiso   1.00
C381   C     0.98145   0.75961   0.85421   0.00000  Uiso   1.00
C382   C     0.05651   0.03626   0.75312   0.00000  Uiso   1.00
C383   C     0.08899   0.04941   0.69351   0.00000  Uiso   1.00
C384   C     0.16434   0.04709   0.68592   0.00000  Uiso   1.00
C385   C     0.18268   0.06068   0.62775   0.00000  Uiso   1.00
C386   C     0.98343   0.10467   0.73723   0.00000  Uiso   1.00
C387   C     0.97002   0.14882   0.76643   0.00000  Uiso   1.00
C388   C     0.89948   0.20893   0.74508   0.00000  Uiso   1.00
C389   C     0.02761   0.97405   0.76707   0.00000  Uiso   1.00
C390   C     0.05133   0.90838   0.82135   0.00000  Uiso   1.00
C391   C     0.01797   0.85852   0.82513   0.00000  Uiso   1.00
H392   H     0.91220   0.07645   0.62533   0.00000  Uiso   1.00
H393   H     0.00948   0.09022   0.54881   0.00000  Uiso   1.00
H394   H     0.81518   0.19192   0.62931   0.00000  Uiso   1.00
H395   H     0.89648   0.95152   0.68423   0.00000  Uiso   1.00
H396   H     0.14162   0.09875   0.48549   0.00000  Uiso   1.00
H397   H     0.73192   0.31319   0.65524   0.00000  Uiso   1.00
H398   H     0.90335   0.80625   0.77103   0.00000  Uiso   1.00
H399   H     0.09940   0.02431   0.79110   0.00000  Uiso   1.00
H400   H     0.20696   0.03522   0.72368   0.00000  Uiso   1.00
H401   H     0.01266   0.13693   0.80418   0.00000  Uiso   1.00
H402   H     0.09396   0.89652   0.85909   0.00000  Uiso   1.00
H403   H     0.30190   0.05411   0.62741   0.00000  Uiso   1.00
H404   H     0.89220   0.26855   0.79717   0.00000  Uiso   1.00
H405   H     0.06364   0.76161   0.91296   0.00000  Uiso   1.00
O406   O     0.28913   0.08457   0.50910   0.00000  Uiso   1.00
O407   O     0.75162   0.36589   0.73182   0.00000  Uiso   1.00
O408   O     0.97653   0.70081   0.88373   0.00000  Uiso   1.00
N409   N     0.16458   0.08673   0.52815   0.00000  Uiso   1.00
N410   N     0.78155   0.28722   0.68685   0.00000  Uiso   1.00
N411   N     0.94181   0.81329   0.79511   0.00000  Uiso   1.00
N412   N     0.25083   0.06271   0.60452   0.00000  Uiso   1.00
N413   N     0.86779   0.26320   0.76322   0.00000  Uiso   1.00
N414   N     0.02805   0.78927   0.87148   0.00000  Uiso   1.00
C415   C     0.62795   0.90054   0.50427   0.00000  Uiso   1.00
C416   C     0.71029   0.89553   0.52167   0.00000  Uiso   1.00
C417   C     0.75606   0.85415   0.58038   0.00000  Uiso   1.00
C418   C     0.82978   0.85691   0.58676   0.00000  Uiso   1.00
C419   C     0.95353   0.84268   0.62147   0.00000  Uiso   1.00
C420   C     0.57591   0.98198   0.47443   0.00000  Uiso   1.00
C421   C     0.50868   0.01327   0.49341   0.00000  Uiso   1.00
C422   C     0.46927   0.08880   0.46002   0.00000  Uiso   1.00
C423   C     0.38435   0.20876   0.42135   0.00000  Uiso   1.00
C424   C     0.63159   0.87791   0.45294   0.00000  Uiso   1.00
C425   C     0.61115   0.82172   0.45386   0.00000  Uiso   1.00
C426   C     0.61860   0.80965   0.40237   0.00000  Uiso   1.00
C427   C     0.62014   0.76804   0.33036   0.00000  Uiso   1.00
C428   C     0.67749   0.97903   0.41120   0.00000  Uiso   1.00
C429   C     0.73720   0.93817   0.47112   0.00000  Uiso   1.00
C430   C     0.81087   0.94099   0.47741   0.00000  Uiso   1.00
C431   C     0.85673   0.89962   0.53612   0.00000  Uiso   1.00
C432   C     0.60281   0.02461   0.42388   0.00000  Uiso   1.00
C433   C     0.56349   0.10011   0.39045   0.00000  Uiso   1.00
C434   C     0.49622   0.13151   0.40938   0.00000  Uiso   1.00
C435   C     0.65850   0.92054   0.40239   0.00000  Uiso   1.00
C436   C     0.66597   0.90856   0.35089   0.00000  Uiso   1.00
C437   C     0.64556   0.85236   0.35173   0.00000  Uiso   1.00
H438   H     0.60700   0.86735   0.54362   0.00000  Uiso   1.00
H439   H     0.73521   0.82117   0.61949   0.00000  Uiso   1.00
H440   H     0.48787   0.98026   0.53253   0.00000  Uiso   1.00
H441   H     0.59034   0.78874   0.49298   0.00000  Uiso   1.00
H442   H     0.88921   0.78879   0.68131   0.00000  Uiso   1.00
H443   H     0.36766   0.12424   0.49794   0.00000  Uiso   1.00
H444   H     0.58373   0.72038   0.41455   0.00000  Uiso   1.00
H445   H     0.69844   0.01222   0.37185   0.00000  Uiso   1.00
H446   H     0.83167   0.97399   0.43829   0.00000  Uiso   1.00
H447   H     0.58433   0.13308   0.35133   0.00000  Uiso   1.00
H448   H     0.68680   0.94156   0.31178   0.00000  Uiso   1.00
H449   H     0.96751   0.91282   0.53424   0.00000  Uiso   1.00
H450   H     0.44595   0.24828   0.35087   0.00000  Uiso   1.00
H451   H     0.66202   0.84442   0.26748   0.00000  Uiso   1.00
O452   O     0.01435   0.82306   0.65458   0.00000  Uiso   1.00
O453   O     0.33008   0.26315   0.41400   0.00000  Uiso   1.00
O454   O     0.61357   0.73330   0.30460   0.00000  Uiso   1.00
N455   N     0.88936   0.82321   0.63758   0.00000  Uiso   1.00
N456   N     0.40175   0.13685   0.46614   0.00000  Uiso   1.00
N457   N     0.60374   0.75928   0.38817   0.00000  Uiso   1.00
N458   N     0.93149   0.88995   0.55844   0.00000  Uiso   1.00
N459   N     0.44388   0.20359   0.38700   0.00000  Uiso   1.00
N460   N     0.64586   0.82603   0.30904   0.00000  Uiso   1.00
C461   C     0.32737   0.49620   0.77201   0.00000  Uiso   1.00
C462   C     0.33043   0.41780   0.80691   0.00000  Uiso   1.00
C463   C     0.27290   0.39335   0.79803   0.00000  Uiso   1.00
C464   C     0.28674   0.31958   0.83459   0.00000  Uiso   1.00
C465   C     0.28099   0.20508   0.88214   0.00000  Uiso   1.00
C466   C     0.33755   0.51985   0.82110   0.00000  Uiso   1.00
C467   C     0.28600   0.58120   0.82414   0.00000  Uiso   1.00
C468   C     0.30583   0.59334   0.87263   0.00000  Uiso   1.00
C469   C     0.31116   0.63731   0.94218   0.00000  Uiso   1.00
C470   C     0.40109   0.49096   0.74334   0.00000  Uiso   1.00
C471   C     0.40297   0.52804   0.68100   0.00000  Uiso   1.00
C472   C     0.47630   0.51587   0.66403   0.00000  Uiso   1.00
C473   C     0.58027   0.51499   0.61284   0.00000  Uiso   1.00
C474   C     0.45426   0.40866   0.85273   0.00000  Uiso   1.00
C475   C     0.39935   0.37026   0.85076   0.00000  Uiso   1.00
C476   C     0.41328   0.29650   0.88734   0.00000  Uiso   1.00
C477   C     0.35578   0.27194   0.87851   0.00000  Uiso   1.00
C478   C     0.40646   0.47230   0.86494   0.00000  Uiso   1.00
C479   C     0.42638   0.48435   0.91344   0.00000  Uiso   1.00
C480   C     0.37488   0.54571   0.91656   0.00000  Uiso   1.00
C481   C     0.47000   0.44341   0.78718   0.00000  Uiso   1.00
C482   C     0.54335   0.43119   0.77031   0.00000  Uiso   1.00
C483   C     0.54534   0.46824   0.70795   0.00000  Uiso   1.00
H484   H     0.27372   0.53322   0.73788   0.00000  Uiso   1.00
H485   H     0.21957   0.43016   0.76410   0.00000  Uiso   1.00
H486   H     0.23268   0.61799   0.79020   0.00000  Uiso   1.00
H487   H     0.34962   0.56483   0.64708   0.00000  Uiso   1.00
H488   H     0.18992   0.29495   0.81252   0.00000  Uiso   1.00
H489   H     0.21756   0.69101   0.86754   0.00000  Uiso   1.00
H490   H     0.46417   0.57892   0.56575   0.00000  Uiso   1.00
H491   H     0.50791   0.37164   0.88687   0.00000  Uiso   1.00
H492   H     0.46662   0.25972   0.92127   0.00000  Uiso   1.00
H493   H     0.47972   0.44755   0.94736   0.00000  Uiso   1.00
H494   H     0.59667   0.39439   0.80425   0.00000  Uiso   1.00
H495   H     0.39044   0.15661   0.94009   0.00000  Uiso   1.00
H496   H     0.41807   0.55267   0.99510   0.00000  Uiso   1.00
H497   H     0.66468   0.44058   0.69332   0.00000  Uiso   1.00
O498   O     0.25878   0.15507   0.89626   0.00000  Uiso   1.00
O499   O     0.29505   0.67469   0.96843   0.00000  Uiso   1.00
O500   O     0.61859   0.52763   0.57249   0.00000  Uiso   1.00
N501   N     0.24279   0.27774   0.83782   0.00000  Uiso   1.00
N502   N     0.26862   0.64803   0.88926   0.00000  Uiso   1.00
N503   N     0.49918   0.54325   0.60712   0.00000  Uiso   1.00
N504   N     0.35068   0.20331   0.90646   0.00000  Uiso   1.00
N505   N     0.37652   0.57359   0.95790   0.00000  Uiso   1.00
N506   N     0.60707   0.46881   0.67576   0.00000  Uiso   1.00
C507   C     0.92564   0.38514   0.01296   0.00000  Uiso   1.00
C508   C     0.90443   0.45173   0.94948   0.00000  Uiso   1.00
C509   C     0.91845   0.51508   0.93577   0.00000  Uiso   1.00
C510   C     0.89460   0.56977   0.87489   0.00000  Uiso   1.00
C511   C     0.86719   0.67448   0.78324   0.00000  Uiso   1.00
C512   C     0.84938   0.37362   0.02731   0.00000  Uiso   1.00
C513   C     0.81713   0.37128   0.07905   0.00000  Uiso   1.00
C514   C     0.74696   0.36020   0.08369   0.00000  Uiso   1.00
C515   C     0.63413   0.34357   0.11289   0.00000  Uiso   1.00
C516   C     0.97699   0.31943   0.00471   0.00000  Uiso   1.00
C517   C     0.05203   0.27151   0.03746   0.00000  Uiso   1.00
C518   C     0.08929   0.21480   0.02308   0.00000  Uiso   1.00
C519   C     0.17458   0.11404   0.01719   0.00000  Uiso   1.00
C520   C     0.85836   0.36961   0.92920   0.00000  Uiso   1.00
C521   C     0.86788   0.44330   0.90398   0.00000  Uiso   1.00
C522   C     0.84402   0.49791   0.84310   0.00000  Uiso   1.00
C523   C     0.85800   0.56133   0.82931   0.00000  Uiso   1.00
C524   C     0.81284   0.36519   0.98181   0.00000  Uiso   1.00
C525   C     0.74271   0.35410   0.98638   0.00000  Uiso   1.00
C526   C     0.71035   0.35175   0.03811   0.00000  Uiso   1.00
C527   C     0.94045   0.31100   0.95921   0.00000  Uiso   1.00
C528   C     0.97760   0.25434   0.94478   0.00000  Uiso   1.00
C529   C     0.05268   0.20635   0.97750   0.00000  Uiso   1.00
H530   H     0.95408   0.39170   0.04839   0.00000  Uiso   1.00
H531   H     0.94672   0.52159   0.97100   0.00000  Uiso   1.00
H532   H     0.84543   0.37779   0.11425   0.00000  Uiso   1.00
H533   H     0.08029   0.27805   0.07266   0.00000  Uiso   1.00
H534   H     0.92242   0.66188   0.86514   0.00000  Uiso   1.00
H535   H     0.70885   0.35867   0.16721   0.00000  Uiso   1.00
H536   H     0.20410   0.14834   0.07951   0.00000  Uiso   1.00
H537   H     0.82992   0.36305   0.89378   0.00000  Uiso   1.00
H538   H     0.81574   0.49137   0.80790   0.00000  Uiso   1.00
H539   H     0.71445   0.34758   0.95116   0.00000  Uiso   1.00
H540   H     0.94931   0.24784   0.90957   0.00000  Uiso   1.00
H541   H     0.81611   0.63736   0.73277   0.00000  Uiso   1.00
H542   H     0.60254   0.33414   0.03484   0.00000  Uiso   1.00
H543   H     0.09779   0.12381   0.94714   0.00000  Uiso   1.00
O544   O     0.86215   0.73456   0.74526   0.00000  Uiso   1.00
O545   O     0.58198   0.33674   0.14157   0.00000  Uiso   1.00
O546   O     0.23173   0.06079   0.02650   0.00000  Uiso   1.00
N547   N     0.89936   0.63850   0.84577   0.00000  Uiso   1.00
N548   N     0.69968   0.35502   0.12818   0.00000  Uiso   1.00
N549   N     0.16269   0.15837   0.04620   0.00000  Uiso   1.00
N550   N     0.84215   0.62530   0.77454   0.00000  Uiso   1.00
N551   N     0.64248   0.34182   0.05695   0.00000  Uiso   1.00
N552   N     0.10548   0.14517   0.97497   0.00000  Uiso   1.00
