data_job_00311
_audit_creation_date              2018-12-19
_audit_creation_method            'Materials Studio'
_symmetry_space_group_name_H-M    'P1'
_symmetry_Int_Tables_number       1
_symmetry_cell_setting            triclinic
loop_
_symmetry_equiv_pos_as_xyz
  x,y,z
_cell_length_a                    10.8838
_cell_length_b                    20.0140
_cell_length_c                    14.0952
_cell_angle_alpha                 90.0000
_cell_angle_beta                  129.1502
_cell_angle_gamma                 90.0000
loop_
_atom_site_label
_atom_site_type_symbol
_atom_site_fract_x
_atom_site_fract_y
_atom_site_fract_z
_atom_site_U_iso_or_equiv
_atom_site_adp_type
_atom_site_occupancy
C1     C     0.76723   0.66130   0.83022   0.00000  Uiso   1.00
C2     C     0.78946   0.73618   0.82611   0.00000  Uiso   1.00
C3     C     0.77893   0.78486   0.89080   0.00000  Uiso   1.00
C4     C     0.80309   0.85058   0.87455   0.00000  Uiso   1.00
C5     C     0.83243   0.96436   0.88000   0.00000  Uiso   1.00
C6     C     0.63606   0.64008   0.69825   0.00000  Uiso   1.00
C7     C     0.49656   0.60795   0.65546   0.00000  Uiso   1.00
C8     C     0.39160   0.59276   0.53157   0.00000  Uiso   1.00
C9     C     0.18283   0.55729   0.33855   0.00000  Uiso   1.00
C10    C     0.91841   0.62831   0.86767   0.00000  Uiso   1.00
C11    C     0.01629   0.58627   0.96731   0.00000  Uiso   1.00
C12    C     0.14903   0.56115   0.98604   0.00000  Uiso   1.00
C13    C     0.37866   0.50741   0.05606   0.00000  Uiso   1.00
C14    C     0.82888   0.69145   0.68631   0.00000  Uiso   1.00
C15    C     0.82294   0.75255   0.74794   0.00000  Uiso   1.00
C16    C     0.84713   0.81821   0.73158   0.00000  Uiso   1.00
C17    C     0.83664   0.86698   0.79624   0.00000  Uiso   1.00
C18    C     0.66954   0.65645   0.62009   0.00000  Uiso   1.00
C19    C     0.56476   0.64130   0.49624   0.00000  Uiso   1.00
C20    C     0.42514   0.60916   0.45326   0.00000  Uiso   1.00
C21    C     0.95190   0.64468   0.78951   0.00000  Uiso   1.00
C22    C     0.08450   0.61962   0.80808   0.00000  Uiso   1.00
C23    C     0.18257   0.57755   0.90773   0.00000  Uiso   1.00
H24    H     0.74116   0.64856   0.89107   0.00000  Uiso   1.00
H25    H     0.75300   0.77217   0.95128   0.00000  Uiso   1.00
H26    H     0.47069   0.59528   0.71598   0.00000  Uiso   1.00
H27    H     0.99034   0.57361   0.02777   0.00000  Uiso   1.00
H28    H     0.78084   0.91644   0.98352   0.00000  Uiso   1.00
H29    H     0.18559   0.54344   0.48738   0.00000  Uiso   1.00
H30    H     0.28139   0.49773   0.14487   0.00000  Uiso   1.00
H31    H     0.85495   0.70419   0.62545   0.00000  Uiso   1.00
H32    H     0.87304   0.83087   0.67108   0.00000  Uiso   1.00
H33    H     0.59072   0.65397   0.43577   0.00000  Uiso   1.00
H34    H     0.11037   0.63230   0.74757   0.00000  Uiso   1.00
H35    H     0.87826   0.96408   0.75610   0.00000  Uiso   1.00
H36    H     0.28301   0.59107   0.25995   0.00000  Uiso   1.00
H37    H     0.37881   0.54537   0.91744   0.00000  Uiso   1.00
O38    O     0.83934   0.02259   0.90459   0.00000  Uiso   1.00
O39    O     0.05842   0.53321   0.25368   0.00000  Uiso   1.00
O40    O     0.49608   0.47325   0.11629   0.00000  Uiso   1.00
N41    N     0.80132   0.91027   0.92376   0.00000  Uiso   1.00
N42    N     0.24478   0.56154   0.45989   0.00000  Uiso   1.00
N43    N     0.26923   0.51880   0.07456   0.00000  Uiso   1.00
N44    N     0.85374   0.93591   0.80138   0.00000  Uiso   1.00
N45    N     0.29720   0.58718   0.33751   0.00000  Uiso   1.00
N46    N     0.32166   0.54443   0.95219   0.00000  Uiso   1.00
C47    C     0.23277   0.16130   0.66978   0.00000  Uiso   1.00
C48    C     0.21054   0.23618   0.67389   0.00000  Uiso   1.00
C49    C     0.22107   0.28486   0.60920   0.00000  Uiso   1.00
C50    C     0.19691   0.35058   0.62545   0.00000  Uiso   1.00
C51    C     0.16757   0.46436   0.62000   0.00000  Uiso   1.00
C52    C     0.36394   0.14008   0.80175   0.00000  Uiso   1.00
C53    C     0.50344   0.10795   0.84454   0.00000  Uiso   1.00
C54    C     0.60840   0.09276   0.96843   0.00000  Uiso   1.00
C55    C     0.81717   0.05729   0.16145   0.00000  Uiso   1.00
C56    C     0.08159   0.12831   0.63233   0.00000  Uiso   1.00
C57    C     0.98371   0.08627   0.53269   0.00000  Uiso   1.00
C58    C     0.85097   0.06115   0.51396   0.00000  Uiso   1.00
C59    C     0.62134   0.00741   0.44394   0.00000  Uiso   1.00
C60    C     0.17112   0.19145   0.81369   0.00000  Uiso   1.00
C61    C     0.17706   0.25255   0.75206   0.00000  Uiso   1.00
C62    C     0.15287   0.31821   0.76842   0.00000  Uiso   1.00
C63    C     0.16336   0.36698   0.70376   0.00000  Uiso   1.00
C64    C     0.33046   0.15645   0.87991   0.00000  Uiso   1.00
C65    C     0.43524   0.14130   0.00376   0.00000  Uiso   1.00
C66    C     0.57486   0.10916   0.04674   0.00000  Uiso   1.00
C67    C     0.04810   0.14468   0.71049   0.00000  Uiso   1.00
C68    C     0.91550   0.11962   0.69192   0.00000  Uiso   1.00
C69    C     0.81743   0.07755   0.59227   0.00000  Uiso   1.00
H70    H     0.25884   0.14856   0.60893   0.00000  Uiso   1.00
H71    H     0.24700   0.27217   0.54872   0.00000  Uiso   1.00
H72    H     0.52931   0.09528   0.78402   0.00000  Uiso   1.00
H73    H     0.00966   0.07361   0.47223   0.00000  Uiso   1.00
H74    H     0.21916   0.41644   0.51648   0.00000  Uiso   1.00
H75    H     0.81441   0.04344   0.01262   0.00000  Uiso   1.00
H76    H     0.71861   0.99773   0.35513   0.00000  Uiso   1.00
H77    H     0.14505   0.20419   0.87455   0.00000  Uiso   1.00
H78    H     0.12696   0.33087   0.82892   0.00000  Uiso   1.00
H79    H     0.40928   0.15397   0.06423   0.00000  Uiso   1.00
H80    H     0.88963   0.13230   0.75243   0.00000  Uiso   1.00
H81    H     0.12174   0.46408   0.74390   0.00000  Uiso   1.00
H82    H     0.71699   0.09107   0.24005   0.00000  Uiso   1.00
H83    H     0.62119   0.04537   0.58256   0.00000  Uiso   1.00
O84    O     0.16066   0.52259   0.59541   0.00000  Uiso   1.00
O85    O     0.94158   0.03321   0.24632   0.00000  Uiso   1.00
O86    O     0.50392   0.97325   0.38371   0.00000  Uiso   1.00
N87    N     0.19868   0.41027   0.57624   0.00000  Uiso   1.00
N88    N     0.75522   0.06154   0.04011   0.00000  Uiso   1.00
N89    N     0.73077   0.01880   0.42544   0.00000  Uiso   1.00
N90    N     0.14626   0.43591   0.69862   0.00000  Uiso   1.00
N91    N     0.70280   0.08718   0.16249   0.00000  Uiso   1.00
N92    N     0.67834   0.04443   0.54781   0.00000  Uiso   1.00
C93    C     0.23277   0.33870   0.16978   0.00000  Uiso   1.00
C94    C     0.21054   0.26382   0.17389   0.00000  Uiso   1.00
C95    C     0.22107   0.21514   0.10920   0.00000  Uiso   1.00
C96    C     0.19691   0.14942   0.12545   0.00000  Uiso   1.00
C97    C     0.16757   0.03564   0.12000   0.00000  Uiso   1.00
C98    C     0.36394   0.35992   0.30175   0.00000  Uiso   1.00
C99    C     0.50344   0.39205   0.34454   0.00000  Uiso   1.00
C100   C     0.60840   0.40724   0.46843   0.00000  Uiso   1.00
C101   C     0.81717   0.44271   0.66145   0.00000  Uiso   1.00
C102   C     0.08159   0.37169   0.13233   0.00000  Uiso   1.00
C103   C     0.98371   0.41373   0.03269   0.00000  Uiso   1.00
C104   C     0.85097   0.43885   0.01396   0.00000  Uiso   1.00
C105   C     0.62134   0.49259   0.94394   0.00000  Uiso   1.00
C106   C     0.17112   0.30855   0.31369   0.00000  Uiso   1.00
C107   C     0.17706   0.24745   0.25206   0.00000  Uiso   1.00
C108   C     0.15287   0.18179   0.26842   0.00000  Uiso   1.00
C109   C     0.16336   0.13302   0.20376   0.00000  Uiso   1.00
C110   C     0.33046   0.34355   0.37991   0.00000  Uiso   1.00
C111   C     0.43524   0.35870   0.50376   0.00000  Uiso   1.00
C112   C     0.57486   0.39084   0.54674   0.00000  Uiso   1.00
C113   C     0.04810   0.35532   0.21049   0.00000  Uiso   1.00
C114   C     0.91550   0.38038   0.19192   0.00000  Uiso   1.00
C115   C     0.81743   0.42245   0.09227   0.00000  Uiso   1.00
H116   H     0.25884   0.35144   0.10893   0.00000  Uiso   1.00
H117   H     0.24700   0.22783   0.04872   0.00000  Uiso   1.00
H118   H     0.52931   0.40472   0.28402   0.00000  Uiso   1.00
H119   H     0.00966   0.42639   0.97223   0.00000  Uiso   1.00
H120   H     0.21916   0.08356   0.01648   0.00000  Uiso   1.00
H121   H     0.81441   0.45656   0.51262   0.00000  Uiso   1.00
H122   H     0.71861   0.50227   0.85513   0.00000  Uiso   1.00
H123   H     0.14505   0.29581   0.37455   0.00000  Uiso   1.00
H124   H     0.12696   0.16913   0.32892   0.00000  Uiso   1.00
H125   H     0.40928   0.34603   0.56423   0.00000  Uiso   1.00
H126   H     0.88963   0.36770   0.25243   0.00000  Uiso   1.00
H127   H     0.12174   0.03592   0.24390   0.00000  Uiso   1.00
H128   H     0.71699   0.40893   0.74005   0.00000  Uiso   1.00
H129   H     0.62119   0.45463   0.08256   0.00000  Uiso   1.00
O130   O     0.16066   0.97741   0.09541   0.00000  Uiso   1.00
O131   O     0.94158   0.46679   0.74632   0.00000  Uiso   1.00
O132   O     0.50392   0.52675   0.88371   0.00000  Uiso   1.00
N133   N     0.19868   0.08973   0.07624   0.00000  Uiso   1.00
N134   N     0.75522   0.43846   0.54011   0.00000  Uiso   1.00
N135   N     0.73077   0.48120   0.92544   0.00000  Uiso   1.00
N136   N     0.14626   0.06409   0.19862   0.00000  Uiso   1.00
N137   N     0.70280   0.41282   0.66249   0.00000  Uiso   1.00
N138   N     0.67834   0.45557   0.04781   0.00000  Uiso   1.00
C139   C     0.76723   0.83870   0.33022   0.00000  Uiso   1.00
C140   C     0.78946   0.76382   0.32611   0.00000  Uiso   1.00
C141   C     0.77893   0.71514   0.39080   0.00000  Uiso   1.00
C142   C     0.80309   0.64942   0.37455   0.00000  Uiso   1.00
C143   C     0.83243   0.53564   0.38000   0.00000  Uiso   1.00
C144   C     0.63606   0.85992   0.19825   0.00000  Uiso   1.00
C145   C     0.49656   0.89205   0.15546   0.00000  Uiso   1.00
C146   C     0.39160   0.90724   0.03157   0.00000  Uiso   1.00
C147   C     0.18283   0.94271   0.83855   0.00000  Uiso   1.00
C148   C     0.91841   0.87169   0.36767   0.00000  Uiso   1.00
C149   C     0.01629   0.91373   0.46731   0.00000  Uiso   1.00
C150   C     0.14903   0.93885   0.48604   0.00000  Uiso   1.00
C151   C     0.37866   0.99259   0.55606   0.00000  Uiso   1.00
C152   C     0.82888   0.80855   0.18631   0.00000  Uiso   1.00
C153   C     0.82294   0.74745   0.24794   0.00000  Uiso   1.00
C154   C     0.84713   0.68179   0.23158   0.00000  Uiso   1.00
C155   C     0.83664   0.63302   0.29624   0.00000  Uiso   1.00
C156   C     0.66954   0.84355   0.12009   0.00000  Uiso   1.00
C157   C     0.56476   0.85870   0.99624   0.00000  Uiso   1.00
C158   C     0.42514   0.89084   0.95326   0.00000  Uiso   1.00
C159   C     0.95190   0.85532   0.28951   0.00000  Uiso   1.00
C160   C     0.08450   0.88038   0.30808   0.00000  Uiso   1.00
C161   C     0.18257   0.92245   0.40773   0.00000  Uiso   1.00
H162   H     0.74116   0.85144   0.39107   0.00000  Uiso   1.00
H163   H     0.75300   0.72783   0.45128   0.00000  Uiso   1.00
H164   H     0.47069   0.90472   0.21598   0.00000  Uiso   1.00
H165   H     0.99034   0.92639   0.52777   0.00000  Uiso   1.00
H166   H     0.78084   0.58356   0.48352   0.00000  Uiso   1.00
H167   H     0.18559   0.95656   0.98738   0.00000  Uiso   1.00
H168   H     0.28139   0.00227   0.64487   0.00000  Uiso   1.00
H169   H     0.85495   0.79581   0.12545   0.00000  Uiso   1.00
H170   H     0.87304   0.66913   0.17108   0.00000  Uiso   1.00
H171   H     0.59072   0.84603   0.93577   0.00000  Uiso   1.00
H172   H     0.11037   0.86770   0.24757   0.00000  Uiso   1.00
H173   H     0.87826   0.53592   0.25610   0.00000  Uiso   1.00
H174   H     0.28301   0.90893   0.75995   0.00000  Uiso   1.00
H175   H     0.37881   0.95463   0.41744   0.00000  Uiso   1.00
O176   O     0.83934   0.47741   0.40459   0.00000  Uiso   1.00
O177   O     0.05842   0.96679   0.75368   0.00000  Uiso   1.00
O178   O     0.49608   0.02675   0.61629   0.00000  Uiso   1.00
N179   N     0.80132   0.58973   0.42376   0.00000  Uiso   1.00
N180   N     0.24478   0.93846   0.95989   0.00000  Uiso   1.00
N181   N     0.26923   0.98120   0.57456   0.00000  Uiso   1.00
N182   N     0.85374   0.56409   0.30138   0.00000  Uiso   1.00
N183   N     0.29720   0.91282   0.83751   0.00000  Uiso   1.00
N184   N     0.32166   0.95557   0.45219   0.00000  Uiso   1.00
