data_job_07040
_audit_creation_date              2018-12-19
_audit_creation_method            'Materials Studio'
_symmetry_space_group_name_H-M    'P1'
_symmetry_Int_Tables_number       1
_symmetry_cell_setting            triclinic
loop_
_symmetry_equiv_pos_as_xyz
  x,y,z
_cell_length_a                    22.8514
_cell_length_b                    23.4502
_cell_length_c                    21.0386
_cell_angle_alpha                 96.6763
_cell_angle_beta                  106.6430
_cell_angle_gamma                 104.0460
loop_
_atom_site_label
_atom_site_type_symbol
_atom_site_fract_x
_atom_site_fract_y
_atom_site_fract_z
_atom_site_U_iso_or_equiv
_atom_site_adp_type
_atom_site_occupancy
C1     C     0.96066   0.19251   0.72985   0.00000  Uiso   1.00
C2     C     0.95065   0.23695   0.78176   0.00000  Uiso   1.00
C3     C     0.89604   0.25523   0.77389   0.00000  Uiso   1.00
C4     C     0.89627   0.29623   0.82724   0.00000  Uiso   1.00
C5     C     0.87268   0.36193   0.89885   0.00000  Uiso   1.00
C6     C     0.02089   0.22525   0.71636   0.00000  Uiso   1.00
C7     C     0.02533   0.23368   0.65350   0.00000  Uiso   1.00
C8     C     0.08470   0.26483   0.65181   0.00000  Uiso   1.00
C9     C     0.17015   0.31232   0.62187   0.00000  Uiso   1.00
C10    C     0.97729   0.14296   0.76595   0.00000  Uiso   1.00
C11    C     0.94509   0.08220   0.74478   0.00000  Uiso   1.00
C12    C     0.96775   0.04406   0.78483   0.00000  Uiso   1.00
C13    C     0.98551   0.96379   0.83188   0.00000  Uiso   1.00
C14    C     0.05818   0.23283   0.83859   0.00000  Uiso   1.00
C15    C     0.00362   0.25885   0.84082   0.00000  Uiso   1.00
C16    C     0.00393   0.29984   0.89420   0.00000  Uiso   1.00
C17    C     0.94933   0.31817   0.88642   0.00000  Uiso   1.00
C18    C     0.07385   0.24715   0.77542   0.00000  Uiso   1.00
C19    C     0.13322   0.27829   0.77382   0.00000  Uiso   1.00
C20    C     0.13776   0.28677   0.71098   0.00000  Uiso   1.00
C21    C     0.03025   0.16486   0.82502   0.00000  Uiso   1.00
C22    C     0.05297   0.12681   0.86510   0.00000  Uiso   1.00
C23    C     0.02081   0.06600   0.84400   0.00000  Uiso   1.00
H24    H     0.91943   0.17546   0.68387   0.00000  Uiso   1.00
H25    H     0.85506   0.23827   0.72817   0.00000  Uiso   1.00
H26    H     0.98434   0.21672   0.60781   0.00000  Uiso   1.00
H27    H     0.90410   0.06527   0.69907   0.00000  Uiso   1.00
H28    H     0.80707   0.31758   0.80333   0.00000  Uiso   1.00
H29    H     0.07965   0.27213   0.54953   0.00000  Uiso   1.00
H30    H     0.91046   0.95275   0.74198   0.00000  Uiso   1.00
H31    H     0.09942   0.24988   0.88458   0.00000  Uiso   1.00
H32    H     0.04493   0.31678   0.93990   0.00000  Uiso   1.00
H33    H     0.17420   0.29523   0.81953   0.00000  Uiso   1.00
H34    H     0.09396   0.14378   0.91080   0.00000  Uiso   1.00
H35    H     0.96117   0.38131   0.97518   0.00000  Uiso   1.00
H36    H     0.23376   0.33585   0.72137   0.00000  Uiso   1.00
H37    H     0.06456   0.01647   0.91383   0.00000  Uiso   1.00
O38    O     0.84504   0.39212   0.92202   0.00000  Uiso   1.00
O39    O     0.20266   0.33247   0.58903   0.00000  Uiso   1.00
O40    O     0.98067   0.91347   0.84153   0.00000  Uiso   1.00
N41    N     0.85081   0.32339   0.83619   0.00000  Uiso   1.00
N42    N     0.10566   0.28090   0.59890   0.00000  Uiso   1.00
N43    N     0.94749   0.98231   0.77882   0.00000  Uiso   1.00
N44    N     0.93373   0.35768   0.92866   0.00000  Uiso   1.00
N45    N     0.18858   0.31519   0.69137   0.00000  Uiso   1.00
N46    N     0.03041   0.01660   0.87129   0.00000  Uiso   1.00
C47    C     0.27930   0.78149   0.68773   0.00000  Uiso   1.00
C48    C     0.34877   0.80207   0.69046   0.00000  Uiso   1.00
C49    C     0.39830   0.78365   0.72932   0.00000  Uiso   1.00
C50    C     0.45845   0.80768   0.72477   0.00000  Uiso   1.00
C51    C     0.56477   0.83342   0.73541   0.00000  Uiso   1.00
C52    C     0.26170   0.83838   0.70642   0.00000  Uiso   1.00
C53    C     0.23802   0.85049   0.75871   0.00000  Uiso   1.00
C54    C     0.22486   0.90508   0.76759   0.00000  Uiso   1.00
C55    C     0.19596   0.98718   0.80299   0.00000  Uiso   1.00
C56    C     0.24027   0.75572   0.61341   0.00000  Uiso   1.00
C57    C     0.19857   0.69833   0.58749   0.00000  Uiso   1.00
C58    C     0.16736   0.68333   0.51806   0.00000  Uiso   1.00
C59    C     0.10519   0.63708   0.40904   0.00000  Uiso   1.00
C60    C     0.29802   0.85692   0.61053   0.00000  Uiso   1.00
C61    C     0.35893   0.84304   0.64853   0.00000  Uiso   1.00
C62    C     0.41902   0.86710   0.64392   0.00000  Uiso   1.00
C63    C     0.46864   0.84872   0.68277   0.00000  Uiso   1.00
C64    C     0.27186   0.87935   0.66450   0.00000  Uiso   1.00
C65    C     0.25873   0.93394   0.67330   0.00000  Uiso   1.00
C66    C     0.23505   0.94613   0.72559   0.00000  Uiso   1.00
C67    C     0.25044   0.79669   0.57148   0.00000  Uiso   1.00
C68    C     0.21929   0.78178   0.50208   0.00000  Uiso   1.00
C69    C     0.17755   0.72437   0.47606   0.00000  Uiso   1.00
H70    H     0.27138   0.74960   0.72037   0.00000  Uiso   1.00
H71    H     0.39042   0.75195   0.76177   0.00000  Uiso   1.00
H72    H     0.23015   0.81877   0.79114   0.00000  Uiso   1.00
H73    H     0.19071   0.66664   0.61995   0.00000  Uiso   1.00
H74    H     0.52688   0.77264   0.78919   0.00000  Uiso   1.00
H75    H     0.18893   0.91353   0.85111   0.00000  Uiso   1.00
H76    H     0.10575   0.59272   0.49012   0.00000  Uiso   1.00
H77    H     0.30594   0.88882   0.57789   0.00000  Uiso   1.00
H78    H     0.42687   0.89880   0.61146   0.00000  Uiso   1.00
H79    H     0.26661   0.96563   0.64084   0.00000  Uiso   1.00
H80    H     0.22717   0.81349   0.46965   0.00000  Uiso   1.00
H81    H     0.55647   0.89183   0.66720   0.00000  Uiso   1.00
H82    H     0.21851   0.03273   0.72912   0.00000  Uiso   1.00
H83    H     0.13534   0.71191   0.36813   0.00000  Uiso   1.00
O84    O     0.62061   0.83631   0.75287   0.00000  Uiso   1.00
O85    O     0.17722   0.02115   0.83410   0.00000  Uiso   1.00
O86    O     0.06810   0.60025   0.36049   0.00000  Uiso   1.00
N87    N     0.51724   0.79931   0.75586   0.00000  Uiso   1.00
N88    N     0.20129   0.93104   0.81376   0.00000  Uiso   1.00
N89    N     0.12352   0.63112   0.47627   0.00000  Uiso   1.00
N90    N     0.53316   0.86345   0.69022   0.00000  Uiso   1.00
N91    N     0.21721   0.99518   0.74812   0.00000  Uiso   1.00
N92    N     0.13944   0.69525   0.41062   0.00000  Uiso   1.00
C93    C     0.30368   0.18796   0.36213   0.00000  Uiso   1.00
C94    C     0.34520   0.25287   0.38839   0.00000  Uiso   1.00
C95    C     0.37896   0.28713   0.35383   0.00000  Uiso   1.00
C96    C     0.41414   0.34558   0.38655   0.00000  Uiso   1.00
C97    C     0.47843   0.44282   0.41745   0.00000  Uiso   1.00
C98    C     0.32980   0.15294   0.41471   0.00000  Uiso   1.00
C99    C     0.35061   0.10317   0.40228   0.00000  Uiso   1.00
C100   C     0.37281   0.07750   0.45717   0.00000  Uiso   1.00
C101   C     0.41315   0.01956   0.52893   0.00000  Uiso   1.00
C102   C     0.23771   0.18746   0.36525   0.00000  Uiso   1.00
C103   C     0.18108   0.16671   0.31123   0.00000  Uiso   1.00
C104   C     0.12575   0.17008   0.32447   0.00000  Uiso   1.00
C105   C     0.02310   0.16574   0.31943   0.00000  Uiso   1.00
C106   C     0.30610   0.23084   0.48171   0.00000  Uiso   1.00
C107   C     0.34651   0.27616   0.45334   0.00000  Uiso   1.00
C108   C     0.38164   0.33458   0.48612   0.00000  Uiso   1.00
C109   C     0.41546   0.36892   0.45161   0.00000  Uiso   1.00
C110   C     0.33111   0.17623   0.47966   0.00000  Uiso   1.00
C111   C     0.35329   0.15062   0.53457   0.00000  Uiso   1.00
C112   C     0.37413   0.10083   0.52223   0.00000  Uiso   1.00
C113   C     0.23902   0.21075   0.43019   0.00000  Uiso   1.00
C114   C     0.18376   0.21415   0.44352   0.00000  Uiso   1.00
C115   C     0.12707   0.19341   0.38954   0.00000  Uiso   1.00
H116   H     0.30266   0.16983   0.31157   0.00000  Uiso   1.00
H117   H     0.37794   0.26909   0.30357   0.00000  Uiso   1.00
H118   H     0.34958   0.08516   0.35202   0.00000  Uiso   1.00
H119   H     0.18008   0.14869   0.26098   0.00000  Uiso   1.00
H120   H     0.46200   0.38941   0.32335   0.00000  Uiso   1.00
H121   H     0.40218   0.00156   0.42550   0.00000  Uiso   1.00
H122   H     0.04477   0.13552   0.23352   0.00000  Uiso   1.00
H123   H     0.30712   0.24897   0.53227   0.00000  Uiso   1.00
H124   H     0.38265   0.35259   0.53638   0.00000  Uiso   1.00
H125   H     0.35429   0.16865   0.58483   0.00000  Uiso   1.00
H126   H     0.18480   0.23218   0.49379   0.00000  Uiso   1.00
H127   H     0.46583   0.45717   0.51231   0.00000  Uiso   1.00
H128   H     0.40601   0.06932   0.61445   0.00000  Uiso   1.00
H129   H     0.04859   0.20328   0.42248   0.00000  Uiso   1.00
O130   O     0.51354   0.49001   0.41656   0.00000  Uiso   1.00
O131   O     0.43505   0.98117   0.55057   0.00000  Uiso   1.00
O132   O     0.96613   0.15692   0.29870   0.00000  Uiso   1.00
N133   N     0.45253   0.39114   0.36725   0.00000  Uiso   1.00
N134   N     0.39661   0.02853   0.46275   0.00000  Uiso   1.00
N135   N     0.06245   0.15376   0.28328   0.00000  Uiso   1.00
N136   N     0.45459   0.42761   0.46893   0.00000  Uiso   1.00
N137   N     0.39867   0.06500   0.56443   0.00000  Uiso   1.00
N138   N     0.06451   0.19022   0.38496   0.00000  Uiso   1.00
C139   C     0.45918   0.70139   0.18159   0.00000  Uiso   1.00
C140   C     0.45848   0.76064   0.21943   0.00000  Uiso   1.00
C141   C     0.40674   0.77174   0.23504   0.00000  Uiso   1.00
C142   C     0.41574   0.82887   0.26994   0.00000  Uiso   1.00
C143   C     0.40573   0.91411   0.32590   0.00000  Uiso   1.00
C144   C     0.51367   0.68363   0.22794   0.00000  Uiso   1.00
C145   C     0.50833   0.62998   0.25070   0.00000  Uiso   1.00
C146   C     0.56380   0.62228   0.29276   0.00000  Uiso   1.00
C147   C     0.63949   0.58794   0.36189   0.00000  Uiso   1.00
C148   C     0.47941   0.71590   0.12085   0.00000  Uiso   1.00
C149   C     0.44527   0.68938   0.05358   0.00000  Uiso   1.00
C150   C     0.47190   0.70885   0.00548   0.00000  Uiso   1.00
C151   C     0.49439   0.72462   0.90835   0.00000  Uiso   1.00
C152   C     0.56718   0.78311   0.21580   0.00000  Uiso   1.00
C153   C     0.51714   0.80503   0.23801   0.00000  Uiso   1.00
C154   C     0.52622   0.86216   0.27290   0.00000  Uiso   1.00
C155   C     0.47450   0.87335   0.28856   0.00000  Uiso   1.00
C156   C     0.57233   0.72801   0.24652   0.00000  Uiso   1.00
C157   C     0.62782   0.72040   0.28856   0.00000  Uiso   1.00
C158   C     0.62257   0.66675   0.31138   0.00000  Uiso   1.00
C159   C     0.53807   0.76029   0.13944   0.00000  Uiso   1.00
C160   C     0.56476   0.77980   0.09144   0.00000  Uiso   1.00
C161   C     0.53067   0.75332   0.02410   0.00000  Uiso   1.00
H162   H     0.41352   0.66682   0.16712   0.00000  Uiso   1.00
H163   H     0.36135   0.73737   0.22065   0.00000  Uiso   1.00
H164   H     0.46293   0.59563   0.23630   0.00000  Uiso   1.00
H165   H     0.39988   0.65503   0.03922   0.00000  Uiso   1.00
H166   H     0.32939   0.83516   0.28822   0.00000  Uiso   1.00
H167   H     0.54358   0.53628   0.32121   0.00000  Uiso   1.00
H168   H     0.41063   0.66153   0.90560   0.00000  Uiso   1.00
H169   H     0.61286   0.81767   0.23027   0.00000  Uiso   1.00
H170   H     0.57163   0.89650   0.28727   0.00000  Uiso   1.00
H171   H     0.67321   0.75476   0.30293   0.00000  Uiso   1.00
H172   H     0.61016   0.81416   0.10584   0.00000  Uiso   1.00
H173   H     0.50006   0.96431   0.34230   0.00000  Uiso   1.00
H174   H     0.71425   0.66543   0.37528   0.00000  Uiso   1.00
H175   H     0.58130   0.79068   0.95968   0.00000  Uiso   1.00
O176   O     0.38401   0.94886   0.35164   0.00000  Uiso   1.00
O177   O     0.66503   0.55674   0.39490   0.00000  Uiso   1.00
O178   O     0.49059   0.72107   0.84964   0.00000  Uiso   1.00
N179   N     0.37521   0.85474   0.29312   0.00000  Uiso   1.00
N180   N     0.57547   0.57531   0.32396   0.00000  Uiso   1.00
N181   N     0.45117   0.69239   0.93541   0.00000  Uiso   1.00
N182   N     0.46704   0.92424   0.32221   0.00000  Uiso   1.00
N183   N     0.66730   0.64481   0.35306   0.00000  Uiso   1.00
N184   N     0.54301   0.76189   0.96450   0.00000  Uiso   1.00
C185   C     0.83182   0.67875   0.78682   0.00000  Uiso   1.00
C186   C     0.90315   0.70809   0.82215   0.00000  Uiso   1.00
C187   C     0.94533   0.73915   0.79329   0.00000  Uiso   1.00
C188   C     0.00872   0.76267   0.83402   0.00000  Uiso   1.00
C189   C     0.11636   0.80937   0.87867   0.00000  Uiso   1.00
C190   C     0.79844   0.70592   0.83032   0.00000  Uiso   1.00
C191   C     0.75259   0.73514   0.80833   0.00000  Uiso   1.00
C192   C     0.72783   0.75681   0.85594   0.00000  Uiso   1.00
C193   C     0.67288   0.80009   0.91328   0.00000  Uiso   1.00
C194   C     0.81959   0.61301   0.79271   0.00000  Uiso   1.00
C195   C     0.79150   0.56412   0.73911   0.00000  Uiso   1.00
C196   C     0.78453   0.50757   0.75505   0.00000  Uiso   1.00
C197   C     0.76242   0.40661   0.75400   0.00000  Uiso   1.00
C198   C     0.86936   0.66527   0.91046   0.00000  Uiso   1.00
C199   C     0.92354   0.70077   0.88931   0.00000  Uiso   1.00
C200   C     0.98687   0.72424   0.93009   0.00000  Uiso   1.00
C201   C     0.02915   0.75533   0.90130   0.00000  Uiso   1.00
C202   C     0.81883   0.69859   0.89748   0.00000  Uiso   1.00
C203   C     0.79413   0.72022   0.94513   0.00000  Uiso   1.00
C204   C     0.74825   0.74948   0.92323   0.00000  Uiso   1.00
C205   C     0.83998   0.60569   0.85988   0.00000  Uiso   1.00
C206   C     0.83304   0.54921   0.87591   0.00000  Uiso   1.00
C207   C     0.80495   0.50024   0.82234   0.00000  Uiso   1.00
H208   H     0.81594   0.68445   0.73453   0.00000  Uiso   1.00
H209   H     0.92953   0.74482   0.74131   0.00000  Uiso   1.00
H210   H     0.73681   0.74079   0.75636   0.00000  Uiso   1.00
H211   H     0.77573   0.56980   0.68714   0.00000  Uiso   1.00
H212   H     0.06446   0.80853   0.77846   0.00000  Uiso   1.00
H213   H     0.65809   0.80003   0.81017   0.00000  Uiso   1.00
H214   H     0.74014   0.43946   0.66422   0.00000  Uiso   1.00
H215   H     0.88523   0.65957   0.96275   0.00000  Uiso   1.00
H216   H     0.00264   0.71857   0.98206   0.00000  Uiso   1.00
H217   H     0.80992   0.71455   0.99710   0.00000  Uiso   1.00
H218   H     0.84883   0.54356   0.92789   0.00000  Uiso   1.00
H219   H     0.12380   0.78723   0.97386   0.00000  Uiso   1.00
H220   H     0.71742   0.77873   0.00557   0.00000  Uiso   1.00
H221   H     0.79947   0.41816   0.85962   0.00000  Uiso   1.00
O222   O     0.17011   0.83716   0.88475   0.00000  Uiso   1.00
O223   O     0.63695   0.82600   0.92635   0.00000  Uiso   1.00
O224   O     0.74460   0.35294   0.73486   0.00000  Uiso   1.00
N225   N     0.06232   0.79541   0.82179   0.00000  Uiso   1.00
N226   N     0.68239   0.78747   0.85144   0.00000  Uiso   1.00
N227   N     0.75908   0.45037   0.71499   0.00000  Uiso   1.00
N228   N     0.09425   0.78395   0.92694   0.00000  Uiso   1.00
N229   N     0.71432   0.77601   0.95659   0.00000  Uiso   1.00
N230   N     0.79101   0.43891   0.82013   0.00000  Uiso   1.00
C231   C     0.81077   0.35840   0.21248   0.00000  Uiso   1.00
C232   C     0.86061   0.35137   0.27470   0.00000  Uiso   1.00
C233   C     0.87697   0.29904   0.28452   0.00000  Uiso   1.00
C234   C     0.92373   0.30182   0.34487   0.00000  Uiso   1.00
C235   C     0.99668   0.28281   0.43406   0.00000  Uiso   1.00
C236   C     0.84527   0.40941   0.18563   0.00000  Uiso   1.00
C237   C     0.84871   0.40588   0.12056   0.00000  Uiso   1.00
C238   C     0.88254   0.45753   0.10593   0.00000  Uiso   1.00
C239   C     0.93163   0.52864   0.05682   0.00000  Uiso   1.00
C240   C     0.76341   0.38159   0.23858   0.00000  Uiso   1.00
C241   C     0.69803   0.35468   0.21801   0.00000  Uiso   1.00
C242   C     0.66294   0.38291   0.24794   0.00000  Uiso   1.00
C243   C     0.58494   0.41083   0.28104   0.00000  Uiso   1.00
C244   C     0.86471   0.45641   0.30220   0.00000  Uiso   1.00
C245   C     0.88991   0.40460   0.32344   0.00000  Uiso   1.00
C246   C     0.93665   0.40747   0.38379   0.00000  Uiso   1.00
C247   C     0.95307   0.35515   0.39369   0.00000  Uiso   1.00
C248   C     0.87456   0.46264   0.23437   0.00000  Uiso   1.00
C249   C     0.90839   0.51431   0.21983   0.00000  Uiso   1.00
C250   C     0.91189   0.51086   0.15475   0.00000  Uiso   1.00
C251   C     0.79270   0.43482   0.28731   0.00000  Uiso   1.00
C252   C     0.75771   0.46311   0.31728   0.00000  Uiso   1.00
C253   C     0.69229   0.43624   0.29676   0.00000  Uiso   1.00
H254   H     0.78797   0.31696   0.17453   0.00000  Uiso   1.00
H255   H     0.85429   0.25785   0.24679   0.00000  Uiso   1.00
H256   H     0.82603   0.36469   0.08286   0.00000  Uiso   1.00
H257   H     0.67538   0.31349   0.18029   0.00000  Uiso   1.00
H258   H     0.94077   0.21580   0.34838   0.00000  Uiso   1.00
H259   H     0.88116   0.44106   0.00271   0.00000  Uiso   1.00
H260   H     0.56347   0.33310   0.20817   0.00000  Uiso   1.00
H261   H     0.88752   0.49785   0.34014   0.00000  Uiso   1.00
H262   H     0.95931   0.44867   0.42149   0.00000  Uiso   1.00
H263   H     0.93105   0.55550   0.25755   0.00000  Uiso   1.00
H264   H     0.78039   0.50430   0.35499   0.00000  Uiso   1.00
H265   H     0.02600   0.37067   0.49017   0.00000  Uiso   1.00
H266   H     0.96640   0.59594   0.14450   0.00000  Uiso   1.00
H267   H     0.64871   0.48797   0.34996   0.00000  Uiso   1.00
O268   O     0.02883   0.25762   0.46979   0.00000  Uiso   1.00
O269   O     0.95062   0.55316   0.01628   0.00000  Uiso   1.00
O270   O     0.53382   0.41151   0.28584   0.00000  Uiso   1.00
N271   N     0.95097   0.25900   0.37059   0.00000  Uiso   1.00
N272   N     0.89525   0.46960   0.04741   0.00000  Uiso   1.00
N273   N     0.59823   0.36867   0.23949   0.00000  Uiso   1.00
N274   N     0.99683   0.34233   0.44689   0.00000  Uiso   1.00
N275   N     0.94111   0.55294   0.12371   0.00000  Uiso   1.00
N276   N     0.64409   0.45201   0.31578   0.00000  Uiso   1.00
C277   C     0.03934   0.80749   0.27015   0.00000  Uiso   1.00
C278   C     0.04935   0.76305   0.21824   0.00000  Uiso   1.00
C279   C     0.10396   0.74477   0.22611   0.00000  Uiso   1.00
C280   C     0.10373   0.70377   0.17276   0.00000  Uiso   1.00
C281   C     0.12732   0.63807   0.10115   0.00000  Uiso   1.00
C282   C     0.97911   0.77475   0.28364   0.00000  Uiso   1.00
C283   C     0.97467   0.76632   0.34650   0.00000  Uiso   1.00
C284   C     0.91530   0.73517   0.34819   0.00000  Uiso   1.00
C285   C     0.82985   0.68768   0.37813   0.00000  Uiso   1.00
C286   C     0.02271   0.85704   0.23405   0.00000  Uiso   1.00
C287   C     0.05491   0.91780   0.25522   0.00000  Uiso   1.00
C288   C     0.03225   0.95594   0.21517   0.00000  Uiso   1.00
C289   C     0.01449   0.03621   0.16812   0.00000  Uiso   1.00
C290   C     0.94182   0.76717   0.16141   0.00000  Uiso   1.00
C291   C     0.99638   0.74115   0.15918   0.00000  Uiso   1.00
C292   C     0.99607   0.70016   0.10580   0.00000  Uiso   1.00
C293   C     0.05067   0.68183   0.11358   0.00000  Uiso   1.00
C294   C     0.92615   0.75285   0.22458   0.00000  Uiso   1.00
C295   C     0.86678   0.72171   0.22618   0.00000  Uiso   1.00
C296   C     0.86224   0.71323   0.28902   0.00000  Uiso   1.00
C297   C     0.96975   0.83514   0.17498   0.00000  Uiso   1.00
C298   C     0.94703   0.87319   0.13490   0.00000  Uiso   1.00
C299   C     0.97919   0.93400   0.15600   0.00000  Uiso   1.00
H300   H     0.08057   0.82454   0.31613   0.00000  Uiso   1.00
H301   H     0.14494   0.76173   0.27183   0.00000  Uiso   1.00
H302   H     0.01566   0.78328   0.39219   0.00000  Uiso   1.00
H303   H     0.09590   0.93473   0.30093   0.00000  Uiso   1.00
H304   H     0.19293   0.68242   0.19667   0.00000  Uiso   1.00
H305   H     0.92035   0.72787   0.45047   0.00000  Uiso   1.00
H306   H     0.08954   0.04725   0.25802   0.00000  Uiso   1.00
H307   H     0.90058   0.75012   0.11542   0.00000  Uiso   1.00
H308   H     0.95507   0.68322   0.06010   0.00000  Uiso   1.00
H309   H     0.82580   0.70477   0.18047   0.00000  Uiso   1.00
H310   H     0.90604   0.85622   0.08920   0.00000  Uiso   1.00
H311   H     0.03883   0.61869   0.02482   0.00000  Uiso   1.00
H312   H     0.76624   0.66415   0.27863   0.00000  Uiso   1.00
H313   H     0.93544   0.98353   0.08617   0.00000  Uiso   1.00
O314   O     0.15496   0.60788   0.07798   0.00000  Uiso   1.00
O315   O     0.79734   0.66753   0.41097   0.00000  Uiso   1.00
O316   O     0.01933   0.08653   0.15847   0.00000  Uiso   1.00
N317   N     0.14919   0.67661   0.16381   0.00000  Uiso   1.00
N318   N     0.89434   0.71910   0.40110   0.00000  Uiso   1.00
N319   N     0.05251   0.01769   0.22118   0.00000  Uiso   1.00
N320   N     0.06627   0.64232   0.07134   0.00000  Uiso   1.00
N321   N     0.81142   0.68481   0.30863   0.00000  Uiso   1.00
N322   N     0.96959   0.98340   0.12871   0.00000  Uiso   1.00
C323   C     0.72070   0.21851   0.31227   0.00000  Uiso   1.00
C324   C     0.65123   0.19793   0.30954   0.00000  Uiso   1.00
C325   C     0.60170   0.21635   0.27068   0.00000  Uiso   1.00
C326   C     0.54155   0.19232   0.27523   0.00000  Uiso   1.00
C327   C     0.43523   0.16658   0.26459   0.00000  Uiso   1.00
C328   C     0.73830   0.16162   0.29358   0.00000  Uiso   1.00
C329   C     0.76198   0.14951   0.24129   0.00000  Uiso   1.00
C330   C     0.77514   0.09492   0.23241   0.00000  Uiso   1.00
C331   C     0.80404   0.01282   0.19701   0.00000  Uiso   1.00
C332   C     0.75973   0.24428   0.38659   0.00000  Uiso   1.00
C333   C     0.80143   0.30167   0.41251   0.00000  Uiso   1.00
C334   C     0.83264   0.31667   0.48194   0.00000  Uiso   1.00
C335   C     0.89481   0.36292   0.59096   0.00000  Uiso   1.00
C336   C     0.70198   0.14308   0.38947   0.00000  Uiso   1.00
C337   C     0.64107   0.15696   0.35147   0.00000  Uiso   1.00
C338   C     0.58098   0.13290   0.35608   0.00000  Uiso   1.00
C339   C     0.53136   0.15128   0.31723   0.00000  Uiso   1.00
C340   C     0.72814   0.12065   0.33550   0.00000  Uiso   1.00
C341   C     0.74127   0.06606   0.32670   0.00000  Uiso   1.00
C342   C     0.76495   0.05387   0.27441   0.00000  Uiso   1.00
C343   C     0.74956   0.20331   0.42852   0.00000  Uiso   1.00
C344   C     0.78071   0.21822   0.49792   0.00000  Uiso   1.00
C345   C     0.82245   0.27563   0.52394   0.00000  Uiso   1.00
H346   H     0.72862   0.25040   0.27963   0.00000  Uiso   1.00
H347   H     0.60958   0.24805   0.23823   0.00000  Uiso   1.00
H348   H     0.76985   0.18123   0.20886   0.00000  Uiso   1.00
H349   H     0.80929   0.33336   0.38005   0.00000  Uiso   1.00
H350   H     0.47312   0.22736   0.21081   0.00000  Uiso   1.00
H351   H     0.81107   0.08647   0.14889   0.00000  Uiso   1.00
H352   H     0.89425   0.40728   0.50988   0.00000  Uiso   1.00
H353   H     0.69406   0.11118   0.42211   0.00000  Uiso   1.00
H354   H     0.57313   0.10120   0.38854   0.00000  Uiso   1.00
H355   H     0.73339   0.03437   0.35916   0.00000  Uiso   1.00
H356   H     0.77283   0.18651   0.53035   0.00000  Uiso   1.00
H357   H     0.44353   0.10817   0.33280   0.00000  Uiso   1.00
H358   H     0.78149   0.96727   0.27088   0.00000  Uiso   1.00
H359   H     0.86466   0.28809   0.63187   0.00000  Uiso   1.00
O360   O     0.37939   0.16369   0.24713   0.00000  Uiso   1.00
O361   O     0.82278   0.97885   0.16590   0.00000  Uiso   1.00
O362   O     0.93190   0.39975   0.63951   0.00000  Uiso   1.00
N363   N     0.48276   0.20069   0.24414   0.00000  Uiso   1.00
N364   N     0.79871   0.06896   0.18624   0.00000  Uiso   1.00
N365   N     0.87648   0.36888   0.52373   0.00000  Uiso   1.00
N366   N     0.46684   0.13655   0.30978   0.00000  Uiso   1.00
N367   N     0.78279   0.00482   0.25188   0.00000  Uiso   1.00
N368   N     0.86056   0.30475   0.58938   0.00000  Uiso   1.00
C369   C     0.69632   0.81204   0.63787   0.00000  Uiso   1.00
C370   C     0.65480   0.74713   0.61161   0.00000  Uiso   1.00
C371   C     0.62104   0.71287   0.64617   0.00000  Uiso   1.00
C372   C     0.58586   0.65442   0.61345   0.00000  Uiso   1.00
C373   C     0.52157   0.55718   0.58255   0.00000  Uiso   1.00
C374   C     0.67020   0.84706   0.58529   0.00000  Uiso   1.00
C375   C     0.64939   0.89683   0.59772   0.00000  Uiso   1.00
C376   C     0.62719   0.92250   0.54283   0.00000  Uiso   1.00
C377   C     0.58685   0.98044   0.47107   0.00000  Uiso   1.00
C378   C     0.76229   0.81254   0.63475   0.00000  Uiso   1.00
C379   C     0.81892   0.83329   0.68877   0.00000  Uiso   1.00
C380   C     0.87425   0.82992   0.67553   0.00000  Uiso   1.00
C381   C     0.97690   0.83426   0.68057   0.00000  Uiso   1.00
C382   C     0.69390   0.76916   0.51829   0.00000  Uiso   1.00
C383   C     0.65349   0.72384   0.54666   0.00000  Uiso   1.00
C384   C     0.61836   0.66542   0.51388   0.00000  Uiso   1.00
C385   C     0.58454   0.63108   0.54839   0.00000  Uiso   1.00
C386   C     0.66889   0.82377   0.52034   0.00000  Uiso   1.00
C387   C     0.64671   0.84938   0.46543   0.00000  Uiso   1.00
C388   C     0.62587   0.89917   0.47777   0.00000  Uiso   1.00
C389   C     0.76098   0.78925   0.56981   0.00000  Uiso   1.00
C390   C     0.81624   0.78585   0.55648   0.00000  Uiso   1.00
C391   C     0.87293   0.80659   0.61046   0.00000  Uiso   1.00
H392   H     0.69734   0.83017   0.68843   0.00000  Uiso   1.00
H393   H     0.62206   0.73091   0.69643   0.00000  Uiso   1.00
H394   H     0.65042   0.91484   0.64798   0.00000  Uiso   1.00
H395   H     0.81992   0.85131   0.73902   0.00000  Uiso   1.00
H396   H     0.53800   0.61059   0.67665   0.00000  Uiso   1.00
H397   H     0.59782   0.99844   0.57450   0.00000  Uiso   1.00
H398   H     0.95523   0.86448   0.76648   0.00000  Uiso   1.00
H399   H     0.69288   0.75103   0.46773   0.00000  Uiso   1.00
H400   H     0.61735   0.64741   0.46362   0.00000  Uiso   1.00
H401   H     0.64571   0.83135   0.41517   0.00000  Uiso   1.00
H402   H     0.81520   0.76782   0.50621   0.00000  Uiso   1.00
H403   H     0.53417   0.54283   0.48769   0.00000  Uiso   1.00
H404   H     0.59399   0.93068   0.38555   0.00000  Uiso   1.00
H405   H     0.95141   0.79672   0.57752   0.00000  Uiso   1.00
O406   O     0.48646   0.50999   0.58344   0.00000  Uiso   1.00
O407   O     0.56495   0.01883   0.44943   0.00000  Uiso   1.00
O408   O     0.03387   0.84308   0.70130   0.00000  Uiso   1.00
N409   N     0.54747   0.60886   0.63275   0.00000  Uiso   1.00
N410   N     0.60339   0.97147   0.53725   0.00000  Uiso   1.00
N411   N     0.93755   0.84624   0.71672   0.00000  Uiso   1.00
N412   N     0.54541   0.57239   0.53107   0.00000  Uiso   1.00
N413   N     0.60133   0.93500   0.43557   0.00000  Uiso   1.00
N414   N     0.93549   0.80978   0.61504   0.00000  Uiso   1.00
C415   C     0.54082   0.29861   0.81841   0.00000  Uiso   1.00
C416   C     0.54152   0.23936   0.78057   0.00000  Uiso   1.00
C417   C     0.59326   0.22826   0.76496   0.00000  Uiso   1.00
C418   C     0.58426   0.17113   0.73006   0.00000  Uiso   1.00
C419   C     0.59427   0.08589   0.67410   0.00000  Uiso   1.00
C420   C     0.48633   0.31637   0.77206   0.00000  Uiso   1.00
C421   C     0.49167   0.37002   0.74930   0.00000  Uiso   1.00
C422   C     0.43620   0.37772   0.70724   0.00000  Uiso   1.00
C423   C     0.36051   0.41206   0.63811   0.00000  Uiso   1.00
C424   C     0.52059   0.28410   0.87915   0.00000  Uiso   1.00
C425   C     0.55473   0.31062   0.94642   0.00000  Uiso   1.00
C426   C     0.52810   0.29115   0.99452   0.00000  Uiso   1.00
C427   C     0.50561   0.27538   0.09165   0.00000  Uiso   1.00
C428   C     0.43282   0.21689   0.78420   0.00000  Uiso   1.00
C429   C     0.48286   0.19497   0.76199   0.00000  Uiso   1.00
C430   C     0.47378   0.13784   0.72710   0.00000  Uiso   1.00
C431   C     0.52550   0.12665   0.71144   0.00000  Uiso   1.00
C432   C     0.42767   0.27199   0.75348   0.00000  Uiso   1.00
C433   C     0.37218   0.27960   0.71144   0.00000  Uiso   1.00
C434   C     0.37743   0.33325   0.68862   0.00000  Uiso   1.00
C435   C     0.46193   0.23971   0.86056   0.00000  Uiso   1.00
C436   C     0.43524   0.22020   0.90856   0.00000  Uiso   1.00
C437   C     0.46933   0.24668   0.97590   0.00000  Uiso   1.00
H438   H     0.58648   0.33318   0.83288   0.00000  Uiso   1.00
H439   H     0.63865   0.26263   0.77935   0.00000  Uiso   1.00
H440   H     0.53707   0.40437   0.76370   0.00000  Uiso   1.00
H441   H     0.60012   0.34497   0.96078   0.00000  Uiso   1.00
H442   H     0.67061   0.16484   0.71178   0.00000  Uiso   1.00
H443   H     0.45642   0.46372   0.67879   0.00000  Uiso   1.00
H444   H     0.58937   0.33847   0.09440   0.00000  Uiso   1.00
H445   H     0.38714   0.18233   0.76973   0.00000  Uiso   1.00
H446   H     0.42837   0.10350   0.71273   0.00000  Uiso   1.00
H447   H     0.32679   0.24524   0.69707   0.00000  Uiso   1.00
H448   H     0.38984   0.18584   0.89416   0.00000  Uiso   1.00
H449   H     0.49994   0.03569   0.65770   0.00000  Uiso   1.00
H450   H     0.28575   0.33457   0.62472   0.00000  Uiso   1.00
H451   H     0.41870   0.20932   0.04032   0.00000  Uiso   1.00
O452   O     0.61599   0.05114   0.64836   0.00000  Uiso   1.00
O453   O     0.33497   0.44326   0.60510   0.00000  Uiso   1.00
O454   O     0.50941   0.27893   0.15036   0.00000  Uiso   1.00
N455   N     0.62479   0.14526   0.70688   0.00000  Uiso   1.00
N456   N     0.42453   0.42469   0.67604   0.00000  Uiso   1.00
N457   N     0.54883   0.30761   0.06459   0.00000  Uiso   1.00
N458   N     0.53296   0.07576   0.67779   0.00000  Uiso   1.00
N459   N     0.33270   0.35519   0.64694   0.00000  Uiso   1.00
N460   N     0.45699   0.23811   0.03550   0.00000  Uiso   1.00
C461   C     0.16818   0.32125   0.21318   0.00000  Uiso   1.00
C462   C     0.09685   0.29191   0.17785   0.00000  Uiso   1.00
C463   C     0.05467   0.26085   0.20671   0.00000  Uiso   1.00
C464   C     0.99128   0.23733   0.16598   0.00000  Uiso   1.00
C465   C     0.88364   0.19063   0.12133   0.00000  Uiso   1.00
C466   C     0.20156   0.29408   0.16968   0.00000  Uiso   1.00
C467   C     0.24741   0.26486   0.19167   0.00000  Uiso   1.00
C468   C     0.27217   0.24319   0.14406   0.00000  Uiso   1.00
C469   C     0.32712   0.19991   0.08672   0.00000  Uiso   1.00
C470   C     0.18041   0.38699   0.20729   0.00000  Uiso   1.00
C471   C     0.20850   0.43588   0.26089   0.00000  Uiso   1.00
C472   C     0.21547   0.49243   0.24495   0.00000  Uiso   1.00
C473   C     0.23758   0.59339   0.24600   0.00000  Uiso   1.00
C474   C     0.13064   0.33473   0.08954   0.00000  Uiso   1.00
C475   C     0.07646   0.29923   0.11069   0.00000  Uiso   1.00
C476   C     0.01313   0.27576   0.06991   0.00000  Uiso   1.00
C477   C     0.97085   0.24467   0.09870   0.00000  Uiso   1.00
C478   C     0.18117   0.30141   0.10252   0.00000  Uiso   1.00
C479   C     0.20587   0.27978   0.05487   0.00000  Uiso   1.00
C480   C     0.25175   0.25052   0.07677   0.00000  Uiso   1.00
C481   C     0.16002   0.39431   0.14012   0.00000  Uiso   1.00
C482   C     0.16696   0.45079   0.12409   0.00000  Uiso   1.00
C483   C     0.19505   0.49976   0.17766   0.00000  Uiso   1.00
H484   H     0.18406   0.31555   0.26547   0.00000  Uiso   1.00
H485   H     0.07047   0.25518   0.25869   0.00000  Uiso   1.00
H486   H     0.26319   0.25921   0.24364   0.00000  Uiso   1.00
H487   H     0.22427   0.43020   0.31286   0.00000  Uiso   1.00
H488   H     0.93554   0.19147   0.22154   0.00000  Uiso   1.00
H489   H     0.34191   0.19997   0.18983   0.00000  Uiso   1.00
H490   H     0.25986   0.56054   0.33578   0.00000  Uiso   1.00
H491   H     0.11477   0.34043   0.03725   0.00000  Uiso   1.00
H492   H     0.99736   0.28143   0.01794   0.00000  Uiso   1.00
H493   H     0.19008   0.28545   0.00290   0.00000  Uiso   1.00
H494   H     0.15117   0.45644   0.07211   0.00000  Uiso   1.00
H495   H     0.87620   0.21277   0.02614   0.00000  Uiso   1.00
H496   H     0.28258   0.22127   0.99443   0.00000  Uiso   1.00
H497   H     0.20053   0.58184   0.14038   0.00000  Uiso   1.00
O498   O     0.82989   0.16284   0.11525   0.00000  Uiso   1.00
O499   O     0.36305   0.17400   0.07365   0.00000  Uiso   1.00
O500   O     0.25540   0.64706   0.26514   0.00000  Uiso   1.00
N501   N     0.93768   0.20459   0.17821   0.00000  Uiso   1.00
N502   N     0.31761   0.21253   0.14856   0.00000  Uiso   1.00
N503   N     0.24092   0.54963   0.28501   0.00000  Uiso   1.00
N504   N     0.90575   0.21605   0.07306   0.00000  Uiso   1.00
N505   N     0.28568   0.22399   0.04341   0.00000  Uiso   1.00
N506   N     0.20899   0.56109   0.17987   0.00000  Uiso   1.00
C507   C     0.18923   0.64160   0.78752   0.00000  Uiso   1.00
C508   C     0.13939   0.64863   0.72530   0.00000  Uiso   1.00
C509   C     0.12303   0.70096   0.71548   0.00000  Uiso   1.00
C510   C     0.07627   0.69818   0.65513   0.00000  Uiso   1.00
C511   C     0.00332   0.71719   0.56594   0.00000  Uiso   1.00
C512   C     0.15473   0.59059   0.81437   0.00000  Uiso   1.00
C513   C     0.15129   0.59412   0.87944   0.00000  Uiso   1.00
C514   C     0.11746   0.54247   0.89407   0.00000  Uiso   1.00
C515   C     0.06837   0.47136   0.94318   0.00000  Uiso   1.00
C516   C     0.23659   0.61841   0.76142   0.00000  Uiso   1.00
C517   C     0.30197   0.64532   0.78199   0.00000  Uiso   1.00
C518   C     0.33706   0.61709   0.75206   0.00000  Uiso   1.00
C519   C     0.41506   0.58917   0.71896   0.00000  Uiso   1.00
C520   C     0.13529   0.54359   0.69780   0.00000  Uiso   1.00
C521   C     0.11009   0.59540   0.67656   0.00000  Uiso   1.00
C522   C     0.06335   0.59253   0.61621   0.00000  Uiso   1.00
C523   C     0.04693   0.64485   0.60631   0.00000  Uiso   1.00
C524   C     0.12544   0.53736   0.76563   0.00000  Uiso   1.00
C525   C     0.09161   0.48569   0.78017   0.00000  Uiso   1.00
C526   C     0.08811   0.48914   0.84525   0.00000  Uiso   1.00
C527   C     0.20730   0.56518   0.71269   0.00000  Uiso   1.00
C528   C     0.24229   0.53689   0.68272   0.00000  Uiso   1.00
C529   C     0.30771   0.56376   0.70324   0.00000  Uiso   1.00
H530   H     0.21203   0.68304   0.82547   0.00000  Uiso   1.00
H531   H     0.14571   0.74215   0.75321   0.00000  Uiso   1.00
H532   H     0.17397   0.63531   0.91714   0.00000  Uiso   1.00
H533   H     0.32462   0.68651   0.81971   0.00000  Uiso   1.00
H534   H     0.05923   0.78420   0.65162   0.00000  Uiso   1.00
H535   H     0.11884   0.55894   0.99729   0.00000  Uiso   1.00
H536   H     0.43653   0.66690   0.79183   0.00000  Uiso   1.00
H537   H     0.11248   0.50215   0.65986   0.00000  Uiso   1.00
H538   H     0.04069   0.55133   0.57851   0.00000  Uiso   1.00
H539   H     0.06895   0.44450   0.74245   0.00000  Uiso   1.00
H540   H     0.21961   0.49570   0.64501   0.00000  Uiso   1.00
H541   H     0.97400   0.62933   0.50983   0.00000  Uiso   1.00
H542   H     0.03360   0.40406   0.85550   0.00000  Uiso   1.00
H543   H     0.35129   0.51203   0.65004   0.00000  Uiso   1.00
O544   O     0.97117   0.74238   0.53021   0.00000  Uiso   1.00
O545   O     0.04938   0.44684   0.98372   0.00000  Uiso   1.00
O546   O     0.46618   0.58849   0.71416   0.00000  Uiso   1.00
N547   N     0.04903   0.74100   0.62941   0.00000  Uiso   1.00
N548   N     0.10475   0.53040   0.95259   0.00000  Uiso   1.00
N549   N     0.40177   0.63133   0.76051   0.00000  Uiso   1.00
N550   N     0.00317   0.65767   0.55311   0.00000  Uiso   1.00
N551   N     0.05889   0.44706   0.87629   0.00000  Uiso   1.00
N552   N     0.35591   0.54799   0.68422   0.00000  Uiso   1.00
