data_job_06736
_audit_creation_date              2018-12-19
_audit_creation_method            'Materials Studio'
_symmetry_space_group_name_H-M    'P1'
_symmetry_Int_Tables_number       1
_symmetry_cell_setting            triclinic
loop_
_symmetry_equiv_pos_as_xyz
  x,y,z
_cell_length_a                    20.7379
_cell_length_b                    20.9238
_cell_length_c                    22.9527
_cell_angle_alpha                 67.1993
_cell_angle_beta                  69.2466
_cell_angle_gamma                 63.3330
loop_
_atom_site_label
_atom_site_type_symbol
_atom_site_fract_x
_atom_site_fract_y
_atom_site_fract_z
_atom_site_U_iso_or_equiv
_atom_site_adp_type
_atom_site_occupancy
C1     C     0.67663   0.12447   0.59349   0.00000  Uiso   1.00
C2     C     0.72223   0.04140   0.60873   0.00000  Uiso   1.00
C3     C     0.69407   0.98473   0.63912   0.00000  Uiso   1.00
C4     C     0.74493   0.91233   0.64866   0.00000  Uiso   1.00
C5     C     0.80414   0.78564   0.67541   0.00000  Uiso   1.00
C6     C     0.70292   0.15727   0.62563   0.00000  Uiso   1.00
C7     C     0.65852   0.19801   0.67022   0.00000  Uiso   1.00
C8     C     0.69312   0.22316   0.69398   0.00000  Uiso   1.00
C9     C     0.72234   0.27640   0.74694   0.00000  Uiso   1.00
C10    C     0.70095   0.15570   0.52070   0.00000  Uiso   1.00
C11    C     0.65489   0.19515   0.47707   0.00000  Uiso   1.00
C12    C     0.68783   0.21899   0.41249   0.00000  Uiso   1.00
C13    C     0.71399   0.26979   0.30253   0.00000  Uiso   1.00
C14    C     0.81703   0.09669   0.55639   0.00000  Uiso   1.00
C15    C     0.79849   0.02632   0.58857   0.00000  Uiso   1.00
C16    C     0.84941   0.95398   0.59807   0.00000  Uiso   1.00
C17    C     0.82133   0.89721   0.62847   0.00000  Uiso   1.00
C18    C     0.77918   0.14218   0.60548   0.00000  Uiso   1.00
C19    C     0.81385   0.16727   0.62917   0.00000  Uiso   1.00
C20    C     0.76952   0.20804   0.67379   0.00000  Uiso   1.00
C21    C     0.77721   0.14061   0.50055   0.00000  Uiso   1.00
C22    C     0.81023   0.16440   0.43602   0.00000  Uiso   1.00
C23    C     0.76423   0.20387   0.39230   0.00000  Uiso   1.00
H24    H     0.61726   0.13622   0.60918   0.00000  Uiso   1.00
H25    H     0.63505   0.99643   0.65471   0.00000  Uiso   1.00
H26    H     0.59951   0.20969   0.68580   0.00000  Uiso   1.00
H27    H     0.59588   0.20681   0.49269   0.00000  Uiso   1.00
H28    H     0.68841   0.83478   0.69633   0.00000  Uiso   1.00
H29    H     0.61346   0.28447   0.76187   0.00000  Uiso   1.00
H30    H     0.60580   0.27842   0.35464   0.00000  Uiso   1.00
H31    H     0.87640   0.08494   0.54070   0.00000  Uiso   1.00
H32    H     0.90842   0.94232   0.58247   0.00000  Uiso   1.00
H33    H     0.87287   0.15558   0.61356   0.00000  Uiso   1.00
H34    H     0.86924   0.15271   0.42044   0.00000  Uiso   1.00
H35    H     0.91028   0.79087   0.63769   0.00000  Uiso   1.00
H36    H     0.83533   0.24057   0.70323   0.00000  Uiso   1.00
H37    H     0.82768   0.23451   0.29600   0.00000  Uiso   1.00
O38    O     0.81573   0.71993   0.69574   0.00000  Uiso   1.00
O39    O     0.71739   0.30993   0.78172   0.00000  Uiso   1.00
O40    O     0.70735   0.30198   0.24744   0.00000  Uiso   1.00
N41    N     0.73624   0.84402   0.67678   0.00000  Uiso   1.00
N42    N     0.66616   0.26445   0.73807   0.00000  Uiso   1.00
N43    N     0.65900   0.25880   0.35734   0.00000  Uiso   1.00
N44    N     0.85562   0.82039   0.64523   0.00000  Uiso   1.00
N45    N     0.78555   0.24081   0.70652   0.00000  Uiso   1.00
N46    N     0.77839   0.23517   0.32579   0.00000  Uiso   1.00
C47    C     0.16484   0.46515   0.47903   0.00000  Uiso   1.00
C48    C     0.08509   0.49160   0.47372   0.00000  Uiso   1.00
C49    C     0.03032   0.55947   0.48025   0.00000  Uiso   1.00
C50    C     0.96088   0.57318   0.47373   0.00000  Uiso   1.00
C51    C     0.83918   0.62220   0.46743   0.00000  Uiso   1.00
C52    C     0.17847   0.39146   0.53172   0.00000  Uiso   1.00
C53    C     0.20223   0.37514   0.58701   0.00000  Uiso   1.00
C54    C     0.21140   0.30454   0.62930   0.00000  Uiso   1.00
C55    C     0.23473   0.19807   0.71302   0.00000  Uiso   1.00
C56    C     0.21317   0.44635   0.41577   0.00000  Uiso   1.00
C57    C     0.26613   0.47616   0.37358   0.00000  Uiso   1.00
C58    C     0.30452   0.45176   0.31826   0.00000  Uiso   1.00
C59    C     0.38173   0.43052   0.22195   0.00000  Uiso   1.00
C60    C     0.13888   0.36879   0.45583   0.00000  Uiso   1.00
C61    C     0.07099   0.43926   0.46112   0.00000  Uiso   1.00
C62    C     0.00161   0.45287   0.45458   0.00000  Uiso   1.00
C63    C     0.94675   0.52075   0.46110   0.00000  Uiso   1.00
C64    C     0.16437   0.33912   0.51912   0.00000  Uiso   1.00
C65    C     0.17351   0.26853   0.56134   0.00000  Uiso   1.00
C66    C     0.19727   0.25211   0.61668   0.00000  Uiso   1.00
C67    C     0.19907   0.39401   0.40317   0.00000  Uiso   1.00
C68    C     0.23740   0.36956   0.34790   0.00000  Uiso   1.00
C69    C     0.29040   0.39933   0.30563   0.00000  Uiso   1.00
H70    H     0.17581   0.50589   0.48885   0.00000  Uiso   1.00
H71    H     0.04126   0.59996   0.49001   0.00000  Uiso   1.00
H72    H     0.21314   0.41565   0.59674   0.00000  Uiso   1.00
H73    H     0.27702   0.51666   0.38334   0.00000  Uiso   1.00
H74    H     0.88585   0.68117   0.48577   0.00000  Uiso   1.00
H75    H     0.24830   0.29253   0.71081   0.00000  Uiso   1.00
H76    H     0.38301   0.50552   0.26081   0.00000  Uiso   1.00
H77    H     0.12791   0.32804   0.44602   0.00000  Uiso   1.00
H78    H     0.99072   0.41236   0.44483   0.00000  Uiso   1.00
H79    H     0.16260   0.22804   0.55157   0.00000  Uiso   1.00
H80    H     0.22648   0.32905   0.33817   0.00000  Uiso   1.00
H81    H     0.84483   0.52890   0.44910   0.00000  Uiso   1.00
H82    H     0.20728   0.14025   0.67414   0.00000  Uiso   1.00
H83    H     0.34198   0.35325   0.22415   0.00000  Uiso   1.00
O84    O     0.77595   0.66369   0.46745   0.00000  Uiso   1.00
O85    O     0.25148   0.15381   0.76268   0.00000  Uiso   1.00
O86    O     0.42821   0.43326   0.17230   0.00000  Uiso   1.00
N87    N     0.89502   0.63376   0.47729   0.00000  Uiso   1.00
N88    N     0.23388   0.27041   0.68769   0.00000  Uiso   1.00
N89    N     0.35984   0.46953   0.26699   0.00000  Uiso   1.00
N90    N     0.87295   0.55183   0.45756   0.00000  Uiso   1.00
N91    N     0.21181   0.18848   0.66796   0.00000  Uiso   1.00
N92    N     0.33776   0.38760   0.24726   0.00000  Uiso   1.00
C93    C     0.54455   0.68182   0.43593   0.00000  Uiso   1.00
C94    C     0.57354   0.74454   0.39437   0.00000  Uiso   1.00
C95    C     0.64707   0.73816   0.37591   0.00000  Uiso   1.00
C96    C     0.66226   0.80205   0.33785   0.00000  Uiso   1.00
C97    C     0.71584   0.88915   0.27622   0.00000  Uiso   1.00
C98    C     0.48734   0.70843   0.49341   0.00000  Uiso   1.00
C99    C     0.48840   0.67166   0.55822   0.00000  Uiso   1.00
C100   C     0.43101   0.70515   0.60353   0.00000  Uiso   1.00
C101   C     0.35075   0.73614   0.69566   0.00000  Uiso   1.00
C102   C     0.50164   0.67803   0.39618   0.00000  Uiso   1.00
C103   C     0.51470   0.61571   0.37924   0.00000  Uiso   1.00
C104   C     0.46935   0.62360   0.34270   0.00000  Uiso   1.00
C105   C     0.41128   0.60740   0.28386   0.00000  Uiso   1.00
C106   C     0.44076   0.80665   0.40115   0.00000  Uiso   1.00
C107   C     0.51716   0.81235   0.37549   0.00000  Uiso   1.00
C108   C     0.53224   0.87627   0.33744   0.00000  Uiso   1.00
C109   C     0.60578   0.86998   0.31892   0.00000  Uiso   1.00
C110   C     0.43096   0.77623   0.47453   0.00000  Uiso   1.00
C111   C     0.37357   0.80978   0.51975   0.00000  Uiso   1.00
C112   C     0.37454   0.77308   0.58461   0.00000  Uiso   1.00
C113   C     0.44526   0.74584   0.37729   0.00000  Uiso   1.00
C114   C     0.39988   0.75383   0.34077   0.00000  Uiso   1.00
C115   C     0.41287   0.69153   0.32378   0.00000  Uiso   1.00
H116   H     0.58843   0.62903   0.45064   0.00000  Uiso   1.00
H117   H     0.69068   0.68568   0.39054   0.00000  Uiso   1.00
H118   H     0.53202   0.61919   0.57282   0.00000  Uiso   1.00
H119   H     0.55833   0.56325   0.39387   0.00000  Uiso   1.00
H120   H     0.77918   0.77839   0.31561   0.00000  Uiso   1.00
H121   H     0.44463   0.63818   0.69996   0.00000  Uiso   1.00
H122   H     0.50010   0.52022   0.32260   0.00000  Uiso   1.00
H123   H     0.39686   0.85944   0.38645   0.00000  Uiso   1.00
H124   H     0.48860   0.92874   0.32283   0.00000  Uiso   1.00
H125   H     0.32995   0.86225   0.50511   0.00000  Uiso   1.00
H126   H     0.35626   0.80631   0.32616   0.00000  Uiso   1.00
H127   H     0.61516   0.97566   0.26065   0.00000  Uiso   1.00
H128   H     0.28061   0.83546   0.64500   0.00000  Uiso   1.00
H129   H     0.33609   0.71749   0.26764   0.00000  Uiso   1.00
O130   O     0.76097   0.91846   0.24745   0.00000  Uiso   1.00
O131   O     0.32205   0.73451   0.75170   0.00000  Uiso   1.00
O132   O     0.39484   0.57974   0.25662   0.00000  Uiso   1.00
N133   N     0.72799   0.81530   0.31139   0.00000  Uiso   1.00
N134   N     0.41521   0.68423   0.67074   0.00000  Uiso   1.00
N135   N     0.46706   0.57393   0.31795   0.00000  Uiso   1.00
N136   N     0.63973   0.92146   0.28182   0.00000  Uiso   1.00
N137   N     0.32696   0.79038   0.64117   0.00000  Uiso   1.00
N138   N     0.37881   0.68009   0.28838   0.00000  Uiso   1.00
C139   C     0.40663   0.18968   0.02206   0.00000  Uiso   1.00
C140   C     0.46669   0.20162   0.03563   0.00000  Uiso   1.00
C141   C     0.45981   0.26588   0.04566   0.00000  Uiso   1.00
C142   C     0.52112   0.26576   0.05736   0.00000  Uiso   1.00
C143   C     0.60436   0.29374   0.07823   0.00000  Uiso   1.00
C144   C     0.39630   0.12055   0.07420   0.00000  Uiso   1.00
C145   C     0.33022   0.11665   0.11665   0.00000  Uiso   1.00
C146   C     0.33227   0.04828   0.16081   0.00000  Uiso   1.00
C147   C     0.30621   0.95039   0.24152   0.00000  Uiso   1.00
C148   C     0.43992   0.16841   0.95836   0.00000  Uiso   1.00
C149   C     0.41052   0.20474   0.90342   0.00000  Uiso   1.00
C150   C     0.44929   0.17665   0.85006   0.00000  Uiso   1.00
C151   C     0.49096   0.15307   0.75092   0.00000  Uiso   1.00
C152   C     0.52777   0.07518   0.02500   0.00000  Uiso   1.00
C153   C     0.53249   0.13942   0.03723   0.00000  Uiso   1.00
C154   C     0.59383   0.13920   0.04892   0.00000  Uiso   1.00
C155   C     0.58704   0.20346   0.05896   0.00000  Uiso   1.00
C156   C     0.46209   0.05836   0.07580   0.00000  Uiso   1.00
C157   C     0.46424   0.98998   0.11990   0.00000  Uiso   1.00
C158   C     0.39819   0.98598   0.16241   0.00000  Uiso   1.00
C159   C     0.50572   0.10622   0.95996   0.00000  Uiso   1.00
C160   C     0.54454   0.07806   0.90668   0.00000  Uiso   1.00
C161   C     0.51521   0.11435   0.85166   0.00000  Uiso   1.00
H162   H     0.35540   0.23809   0.02082   0.00000  Uiso   1.00
H163   H     0.40888   0.31400   0.04443   0.00000  Uiso   1.00
H164   H     0.27931   0.16479   0.11539   0.00000  Uiso   1.00
H165   H     0.35960   0.25286   0.90220   0.00000  Uiso   1.00
H166   H     0.49717   0.37071   0.07133   0.00000  Uiso   1.00
H167   H     0.22396   0.05609   0.22096   0.00000  Uiso   1.00
H168   H     0.39326   0.24182   0.77140   0.00000  Uiso   1.00
H169   H     0.57900   0.02676   0.02625   0.00000  Uiso   1.00
H170   H     0.64474   0.09107   0.05015   0.00000  Uiso   1.00
H171   H     0.51517   0.94186   0.12112   0.00000  Uiso   1.00
H172   H     0.59546   0.02994   0.90793   0.00000  Uiso   1.00
H173   H     0.68861   0.18978   0.07599   0.00000  Uiso   1.00
H174   H     0.41539   0.87515   0.22561   0.00000  Uiso   1.00
H175   H     0.58470   0.06088   0.77605   0.00000  Uiso   1.00
O176   O     0.63209   0.32635   0.08931   0.00000  Uiso   1.00
O177   O     0.27365   0.91358   0.28560   0.00000  Uiso   1.00
O178   O     0.49577   0.15725   0.69579   0.00000  Uiso   1.00
N179   N     0.53321   0.31931   0.06914   0.00000  Uiso   1.00
N180   N     0.27777   0.02516   0.20903   0.00000  Uiso   1.00
N181   N     0.43605   0.19879   0.78873   0.00000  Uiso   1.00
N182   N     0.63622   0.22195   0.07164   0.00000  Uiso   1.00
N183   N     0.38078   0.92780   0.21153   0.00000  Uiso   1.00
N184   N     0.53906   0.10142   0.79124   0.00000  Uiso   1.00
C185   C     0.84672   0.44707   0.07316   0.00000  Uiso   1.00
C186   C     0.76956   0.48356   0.05912   0.00000  Uiso   1.00
C187   C     0.71286   0.45581   0.09018   0.00000  Uiso   1.00
C188   C     0.64636   0.49749   0.07033   0.00000  Uiso   1.00
C189   C     0.52797   0.54398   0.05603   0.00000  Uiso   1.00
C190   C     0.85813   0.50483   0.08943   0.00000  Uiso   1.00
C191   C     0.87591   0.49495   0.14598   0.00000  Uiso   1.00
C192   C     0.88399   0.55453   0.15165   0.00000  Uiso   1.00
C193   C     0.90315   0.63402   0.18439   0.00000  Uiso   1.00
C194   C     0.90063   0.43737   0.00892   0.00000  Uiso   1.00
C195   C     0.95417   0.37077   0.99777   0.00000  Uiso   1.00
C196   C     0.99804   0.37357   0.93565   0.00000  Uiso   1.00
C197   C     0.08320   0.34831   0.84338   0.00000  Uiso   1.00
C198   C     0.82945   0.57044   0.98267   0.00000  Uiso   1.00
C199   C     0.76018   0.55058   0.00997   0.00000  Uiso   1.00
C200   C     0.69375   0.59231   0.99007   0.00000  Uiso   1.00
C201   C     0.63696   0.56463   0.02109   0.00000  Uiso   1.00
C202   C     0.84875   0.57184   0.04029   0.00000  Uiso   1.00
C203   C     0.85681   0.63145   0.04587   0.00000  Uiso   1.00
C204   C     0.87459   0.62167   0.10241   0.00000  Uiso   1.00
C205   C     0.89125   0.50438   0.95977   0.00000  Uiso   1.00
C206   C     0.93506   0.50728   0.89766   0.00000  Uiso   1.00
C207   C     0.98864   0.44070   0.88641   0.00000  Uiso   1.00
H208   H     0.85403   0.39490   0.11142   0.00000  Uiso   1.00
H209   H     0.72014   0.40395   0.12821   0.00000  Uiso   1.00
H210   H     0.88318   0.44308   0.18400   0.00000  Uiso   1.00
H211   H     0.96141   0.31893   0.03581   0.00000  Uiso   1.00
H212   H     0.56756   0.44355   0.12517   0.00000  Uiso   1.00
H213   H     0.91135   0.52605   0.24280   0.00000  Uiso   1.00
H214   H     0.07633   0.26425   0.93031   0.00000  Uiso   1.00
H215   H     0.82215   0.62262   0.94441   0.00000  Uiso   1.00
H216   H     0.68651   0.64417   0.95203   0.00000  Uiso   1.00
H217   H     0.84955   0.68330   0.00783   0.00000  Uiso   1.00
H218   H     0.92778   0.55914   0.85964   0.00000  Uiso   1.00
H219   H     0.54026   0.63853   0.98218   0.00000  Uiso   1.00
H220   H     0.88406   0.72102   0.09981   0.00000  Uiso   1.00
H221   H     0.04903   0.45922   0.78732   0.00000  Uiso   1.00
O222   O     0.46525   0.55112   0.06172   0.00000  Uiso   1.00
O223   O     0.91631   0.65935   0.21604   0.00000  Uiso   1.00
O224   O     0.13275   0.31587   0.80606   0.00000  Uiso   1.00
N225   N     0.57975   0.48648   0.09046   0.00000  Uiso   1.00
N226   N     0.90117   0.56361   0.20044   0.00000  Uiso   1.00
N227   N     0.05542   0.31885   0.90830   0.00000  Uiso   1.00
N228   N     0.56506   0.59139   0.01352   0.00000  Uiso   1.00
N229   N     0.88648   0.66852   0.12350   0.00000  Uiso   1.00
N230   N     0.04073   0.42376   0.83135   0.00000  Uiso   1.00
C231   C     0.17735   0.83356   0.04787   0.00000  Uiso   1.00
C232   C     0.19749   0.75270   0.05147   0.00000  Uiso   1.00
C233   C     0.26258   0.69464   0.06491   0.00000  Uiso   1.00
C234   C     0.27051   0.62471   0.06599   0.00000  Uiso   1.00
C235   C     0.31018   0.50088   0.07342   0.00000  Uiso   1.00
C236   C     0.10380   0.85458   0.09615   0.00000  Uiso   1.00
C237   C     0.09012   0.88218   0.14715   0.00000  Uiso   1.00
C238   C     0.01917   0.89802   0.18584   0.00000  Uiso   1.00
C239   C     0.91336   0.93241   0.26261   0.00000  Uiso   1.00
C240   C     0.16107   0.87903   0.98095   0.00000  Uiso   1.00
C241   C     0.19552   0.92722   0.93510   0.00000  Uiso   1.00
C242   C     0.17278   0.96366   0.87680   0.00000  Uiso   1.00
C243   C     0.15589   0.03602   0.77471   0.00000  Uiso   1.00
C244   C     0.07567   0.81261   0.02589   0.00000  Uiso   1.00
C245   C     0.14226   0.74132   0.03953   0.00000  Uiso   1.00
C246   C     0.15009   0.67146   0.04059   0.00000  Uiso   1.00
C247   C     0.21519   0.61331   0.05403   0.00000  Uiso   1.00
C248   C     0.04857   0.84320   0.08421   0.00000  Uiso   1.00
C249   C     0.97762   0.85900   0.12283   0.00000  Uiso   1.00
C250   C     0.96384   0.88662   0.17389   0.00000  Uiso   1.00
C251   C     0.10584   0.86765   0.96901   0.00000  Uiso   1.00
C252   C     0.08303   0.90403   0.91078   0.00000  Uiso   1.00
C253   C     0.11745   0.95226   0.86484   0.00000  Uiso   1.00
H254   H     0.22034   0.84242   0.05717   0.00000  Uiso   1.00
H255   H     0.30531   0.70347   0.07415   0.00000  Uiso   1.00
H256   H     0.13286   0.89099   0.15637   0.00000  Uiso   1.00
H257   H     0.23826   0.93601   0.94435   0.00000  Uiso   1.00
H258   H     0.37515   0.54440   0.08773   0.00000  Uiso   1.00
H259   H     0.01153   0.93981   0.26110   0.00000  Uiso   1.00
H260   H     0.23377   0.03476   0.81400   0.00000  Uiso   1.00
H261   H     0.03267   0.80375   0.01660   0.00000  Uiso   1.00
H262   H     0.10735   0.66267   0.03135   0.00000  Uiso   1.00
H263   H     0.93490   0.85019   0.11358   0.00000  Uiso   1.00
H264   H     0.04030   0.89521   0.90156   0.00000  Uiso   1.00
H265   H     0.21447   0.51128   0.05300   0.00000  Uiso   1.00
H266   H     0.85085   0.90670   0.22636   0.00000  Uiso   1.00
H267   H     0.07310   0.00164   0.77927   0.00000  Uiso   1.00
O268   O     0.34731   0.43573   0.08082   0.00000  Uiso   1.00
O269   O     0.87026   0.95451   0.30826   0.00000  Uiso   1.00
O270   O     0.16183   0.07907   0.72169   0.00000  Uiso   1.00
N271   N     0.32709   0.55596   0.07752   0.00000  Uiso   1.00
N272   N     0.98713   0.92565   0.23961   0.00000  Uiso   1.00
N273   N     0.19490   0.01443   0.82162   0.00000  Uiso   1.00
N274   N     0.24063   0.53815   0.05883   0.00000  Uiso   1.00
N275   N     0.90068   0.90783   0.22092   0.00000  Uiso   1.00
N276   N     0.10844   0.99661   0.80293   0.00000  Uiso   1.00
C277   C     0.12393   0.74500   0.40979   0.00000  Uiso   1.00
C278   C     0.08792   0.82952   0.39382   0.00000  Uiso   1.00
C279   C     0.12458   0.87854   0.37354   0.00000  Uiso   1.00
C280   C     0.08171   0.95382   0.36136   0.00000  Uiso   1.00
C281   C     0.03747   0.08121   0.33534   0.00000  Uiso   1.00
C282   C     0.10186   0.72180   0.36654   0.00000  Uiso   1.00
C283   C     0.15025   0.68025   0.32333   0.00000  Uiso   1.00
C284   C     0.11911   0.66486   0.28820   0.00000  Uiso   1.00
C285   C     0.09652   0.62497   0.21987   0.00000  Uiso   1.00
C286   C     0.08517   0.71557   0.47890   0.00000  Uiso   1.00
C287   C     0.11953   0.66876   0.53017   0.00000  Uiso   1.00
C288   C     0.07435   0.64810   0.58963   0.00000  Uiso   1.00
C289   C     0.02584   0.59853   0.69575   0.00000  Uiso   1.00
C290   C     0.98261   0.79153   0.42423   0.00000  Uiso   1.00
C291   C     0.01116   0.85478   0.40166   0.00000  Uiso   1.00
C292   C     0.96822   0.93001   0.38952   0.00000  Uiso   1.00
C293   C     0.00481   0.97914   0.36922   0.00000  Uiso   1.00
C294   C     0.02510   0.74707   0.37438   0.00000  Uiso   1.00
C295   C     0.99389   0.73173   0.33931   0.00000  Uiso   1.00
C296   C     0.04222   0.69017   0.29606   0.00000  Uiso   1.00
C297   C     0.00841   0.74084   0.48675   0.00000  Uiso   1.00
C298   C     0.96317   0.72024   0.54614   0.00000  Uiso   1.00
C299   C     0.99745   0.67341   0.59749   0.00000  Uiso   1.00
H300   H     0.18370   0.72532   0.40368   0.00000  Uiso   1.00
H301   H     0.18398   0.85896   0.36747   0.00000  Uiso   1.00
H302   H     0.20965   0.66070   0.31728   0.00000  Uiso   1.00
H303   H     0.17893   0.64921   0.52408   0.00000  Uiso   1.00
H304   H     0.15046   0.01826   0.33076   0.00000  Uiso   1.00
H305   H     0.20457   0.60020   0.22494   0.00000  Uiso   1.00
H306   H     0.13980   0.57597   0.66102   0.00000  Uiso   1.00
H307   H     0.92284   0.81120   0.43034   0.00000  Uiso   1.00
H308   H     0.90882   0.94955   0.39559   0.00000  Uiso   1.00
H309   H     0.93448   0.75129   0.34540   0.00000  Uiso   1.00
H310   H     0.90377   0.73980   0.55220   0.00000  Uiso   1.00
H311   H     0.92712   0.09179   0.35358   0.00000  Uiso   1.00
H312   H     0.98124   0.67372   0.24777   0.00000  Uiso   1.00
H313   H     0.91646   0.64950   0.68385   0.00000  Uiso   1.00
O314   O     0.03427   0.14449   0.31881   0.00000  Uiso   1.00
O315   O     0.10527   0.59599   0.18000   0.00000  Uiso   1.00
O316   O     0.02029   0.56422   0.75212   0.00000  Uiso   1.00
N317   N     0.09982   0.01658   0.34091   0.00000  Uiso   1.00
N318   N     0.15041   0.62573   0.24197   0.00000  Uiso   1.00
N319   N     0.08986   0.60306   0.64967   0.00000  Uiso   1.00
N320   N     0.97964   0.05615   0.35319   0.00000  Uiso   1.00
N321   N     0.03024   0.66529   0.25426   0.00000  Uiso   1.00
N322   N     0.96968   0.64263   0.66195   0.00000  Uiso   1.00
C323   C     0.76746   0.41127   0.36707   0.00000  Uiso   1.00
C324   C     0.84909   0.40025   0.35065   0.00000  Uiso   1.00
C325   C     0.90812   0.33650   0.33914   0.00000  Uiso   1.00
C326   C     0.97864   0.33744   0.32488   0.00000  Uiso   1.00
C327   C     0.10371   0.31083   0.29976   0.00000  Uiso   1.00
C328   C     0.73298   0.48049   0.31616   0.00000  Uiso   1.00
C329   C     0.69438   0.48421   0.27566   0.00000  Uiso   1.00
C330   C     0.66715   0.55271   0.23237   0.00000  Uiso   1.00
C331   C     0.61191   0.65070   0.15373   0.00000  Uiso   1.00
C332   C     0.73420   0.43190   0.43106   0.00000  Uiso   1.00
C333   C     0.69661   0.39477   0.48716   0.00000  Uiso   1.00
C334   C     0.67039   0.42237   0.54060   0.00000  Uiso   1.00
C335   C     0.61705   0.44490   0.64035   0.00000  Uiso   1.00
C336   C     0.78771   0.52630   0.36221   0.00000  Uiso   1.00
C337   C     0.86008   0.46273   0.34801   0.00000  Uiso   1.00
C338   C     0.93053   0.46376   0.33376   0.00000  Uiso   1.00
C339   C     0.98966   0.40003   0.32224   0.00000  Uiso   1.00
C340   C     0.74398   0.54297   0.31352   0.00000  Uiso   1.00
C341   C     0.71679   0.61148   0.27028   0.00000  Uiso   1.00
C342   C     0.67817   0.61530   0.22972   0.00000  Uiso   1.00
C343   C     0.74520   0.49438   0.42842   0.00000  Uiso   1.00
C344   C     0.71902   0.52204   0.48178   0.00000  Uiso   1.00
C345   C     0.68141   0.48496   0.53795   0.00000  Uiso   1.00
H346   H     0.75889   0.36263   0.36912   0.00000  Uiso   1.00
H347   H     0.89959   0.28816   0.34119   0.00000  Uiso   1.00
H348   H     0.68587   0.43585   0.27772   0.00000  Uiso   1.00
H349   H     0.68811   0.34643   0.48918   0.00000  Uiso   1.00
H350   H     0.06042   0.23316   0.30902   0.00000  Uiso   1.00
H351   H     0.60978   0.54459   0.17521   0.00000  Uiso   1.00
H352   H     0.61448   0.35601   0.62113   0.00000  Uiso   1.00
H353   H     0.79628   0.57494   0.36015   0.00000  Uiso   1.00
H354   H     0.93903   0.51212   0.33172   0.00000  Uiso   1.00
H355   H     0.72531   0.65982   0.26825   0.00000  Uiso   1.00
H356   H     0.72755   0.57039   0.47972   0.00000  Uiso   1.00
H357   H     0.09243   0.41494   0.30134   0.00000  Uiso   1.00
H358   H     0.64178   0.72636   0.16753   0.00000  Uiso   1.00
H359   H     0.64649   0.53779   0.61345   0.00000  Uiso   1.00
O360   O     0.16965   0.27890   0.28662   0.00000  Uiso   1.00
O361   O     0.57841   0.68748   0.11108   0.00000  Uiso   1.00
O362   O     0.58459   0.44007   0.69611   0.00000  Uiso   1.00
N363   N     0.04836   0.28456   0.31113   0.00000  Uiso   1.00
N364   N     0.62705   0.57572   0.18602   0.00000  Uiso   1.00
N365   N     0.63143   0.39943   0.60291   0.00000  Uiso   1.00
N366   N     0.06559   0.38237   0.30700   0.00000  Uiso   1.00
N367   N     0.64427   0.67353   0.18188   0.00000  Uiso   1.00
N368   N     0.64866   0.49724   0.59877   0.00000  Uiso   1.00
C369   C     0.44451   0.21803   0.34713   0.00000  Uiso   1.00
C370   C     0.40646   0.16572   0.35713   0.00000  Uiso   1.00
C371   C     0.34982   0.18271   0.32857   0.00000  Uiso   1.00
C372   C     0.32242   0.12724   0.34390   0.00000  Uiso   1.00
C373   C     0.25907   0.05663   0.35295   0.00000  Uiso   1.00
C374   C     0.52679   0.17783   0.32329   0.00000  Uiso   1.00
C375   C     0.57132   0.20499   0.26629   0.00000  Uiso   1.00
C376   C     0.64522   0.15971   0.25315   0.00000  Uiso   1.00
C377   C     0.76869   0.10792   0.20969   0.00000  Uiso   1.00
C378   C     0.43595   0.22234   0.41444   0.00000  Uiso   1.00
C379   C     0.40412   0.28694   0.43407   0.00000  Uiso   1.00
C380   C     0.40155   0.27914   0.49766   0.00000  Uiso   1.00
C381   C     0.38398   0.29646   0.59571   0.00000  Uiso   1.00
C382   C     0.49656   0.08932   0.42515   0.00000  Uiso   1.00
C383   C     0.43474   0.09581   0.39950   0.00000  Uiso   1.00
C384   C     0.40742   0.04030   0.41488   0.00000  Uiso   1.00
C385   C     0.35075   0.05720   0.38635   0.00000  Uiso   1.00
C386   C     0.55506   0.10791   0.36566   0.00000  Uiso   1.00
C387   C     0.62891   0.06258   0.35260   0.00000  Uiso   1.00
C388   C     0.67354   0.08967   0.29560   0.00000  Uiso   1.00
C389   C     0.46422   0.15243   0.45681   0.00000  Uiso   1.00
C390   C     0.46171   0.14453   0.52038   0.00000  Uiso   1.00
C391   C     0.42988   0.20910   0.54011   0.00000  Uiso   1.00
H392   H     0.42250   0.27246   0.31414   0.00000  Uiso   1.00
H393   H     0.32796   0.23682   0.29577   0.00000  Uiso   1.00
H394   H     0.54943   0.25910   0.23351   0.00000  Uiso   1.00
H395   H     0.38225   0.34103   0.40127   0.00000  Uiso   1.00
H396   H     0.23564   0.16646   0.29408   0.00000  Uiso   1.00
H397   H     0.70261   0.21345   0.16281   0.00000  Uiso   1.00
H398   H     0.35008   0.38622   0.51654   0.00000  Uiso   1.00
H399   H     0.51858   0.03488   0.45814   0.00000  Uiso   1.00
H400   H     0.42931   0.98620   0.44767   0.00000  Uiso   1.00
H401   H     0.65077   0.00848   0.38541   0.00000  Uiso   1.00
H402   H     0.48359   0.09041   0.55316   0.00000  Uiso   1.00
H403   H     0.31790   0.96304   0.41736   0.00000  Uiso   1.00
H404   H     0.78487   0.01004   0.28609   0.00000  Uiso   1.00
H405   H     0.43234   0.18281   0.63983   0.00000  Uiso   1.00
O406   O     0.21633   0.03700   0.34622   0.00000  Uiso   1.00
O407   O     0.82898   0.09867   0.17401   0.00000  Uiso   1.00
O408   O     0.36647   0.32533   0.63810   0.00000  Uiso   1.00
N409   N     0.26724   0.12527   0.32454   0.00000  Uiso   1.00
N410   N     0.70383   0.16920   0.20181   0.00000  Uiso   1.00
N411   N     0.37426   0.33073   0.53251   0.00000  Uiso   1.00
N412   N     0.31150   0.01581   0.39088   0.00000  Uiso   1.00
N413   N     0.74809   0.05975   0.26814   0.00000  Uiso   1.00
N414   N     0.41852   0.22128   0.59885   0.00000  Uiso   1.00
C415   C     0.95000   0.17504   0.90996   0.00000  Uiso   1.00
C416   C     0.89325   0.14998   0.90629   0.00000  Uiso   1.00
C417   C     0.90824   0.08290   0.89633   0.00000  Uiso   1.00
C418   C     0.84870   0.07044   0.89452   0.00000  Uiso   1.00
C419   C     0.77153   0.02352   0.88759   0.00000  Uiso   1.00
C420   C     0.94298   0.24924   0.85847   0.00000  Uiso   1.00
C421   C     0.99979   0.26561   0.80831   0.00000  Uiso   1.00
C422   C     0.98212   0.33671   0.76624   0.00000  Uiso   1.00
C423   C     0.98217   0.44391   0.68510   0.00000  Uiso   1.00
C424   C     0.92305   0.19248   0.97505   0.00000  Uiso   1.00
C425   C     0.96311   0.16114   0.02291   0.00000  Uiso   1.00
C426   C     0.92867   0.18447   0.07899   0.00000  Uiso   1.00
C427   C     0.89778   0.20354   0.17885   0.00000  Uiso   1.00
C428   C     0.81762   0.27220   0.92446   0.00000  Uiso   1.00
C429   C     0.82134   0.20276   0.91417   0.00000  Uiso   1.00
C430   C     0.76177   0.19040   0.91237   0.00000  Uiso   1.00
C431   C     0.77667   0.12331   0.90241   0.00000  Uiso   1.00
C432   C     0.87108   0.30202   0.86634   0.00000  Uiso   1.00
C433   C     0.85333   0.37311   0.82435   0.00000  Uiso   1.00
C434   C     0.91009   0.38958   0.77413   0.00000  Uiso   1.00
C435   C     0.85115   0.24526   0.98293   0.00000  Uiso   1.00
C436   C     0.81665   0.26864   0.03894   0.00000  Uiso   1.00
C437   C     0.85664   0.23734   0.08688   0.00000  Uiso   1.00
H438   H     0.00598   0.13396   0.90383   0.00000  Uiso   1.00
H439   H     0.96389   0.04208   0.89023   0.00000  Uiso   1.00
H440   H     0.05543   0.22476   0.80223   0.00000  Uiso   1.00
H441   H     0.01875   0.12031   0.01679   0.00000  Uiso   1.00
H442   H     0.88552   0.96349   0.87861   0.00000  Uiso   1.00
H443   H     0.07854   0.34871   0.69306   0.00000  Uiso   1.00
H444   H     0.00121   0.12844   0.14551   0.00000  Uiso   1.00
H445   H     0.76164   0.31329   0.93059   0.00000  Uiso   1.00
H446   H     0.70614   0.23125   0.91847   0.00000  Uiso   1.00
H447   H     0.79768   0.41394   0.83046   0.00000  Uiso   1.00
H448   H     0.76100   0.30948   0.04502   0.00000  Uiso   1.00
H449   H     0.67632   0.11704   0.90152   0.00000  Uiso   1.00
H450   H     0.86934   0.50225   0.71597   0.00000  Uiso   1.00
H451   H     0.79200   0.28198   0.16842   0.00000  Uiso   1.00
O452   O     0.74882   0.98307   0.88158   0.00000  Uiso   1.00
O453   O     0.00206   0.48846   0.63816   0.00000  Uiso   1.00
O454   O     0.90060   0.19947   0.23176   0.00000  Uiso   1.00
N455   N     0.84390   0.01088   0.88568   0.00000  Uiso   1.00
N456   N     0.02436   0.37103   0.71220   0.00000  Uiso   1.00
N457   N     0.95207   0.16512   0.13519   0.00000  Uiso   1.00
N458   N     0.73133   0.09350   0.89801   0.00000  Uiso   1.00
N459   N     0.91179   0.45365   0.72452   0.00000  Uiso   1.00
N460   N     0.83950   0.24774   0.14752   0.00000  Uiso   1.00
C461   C     0.48789   0.92694   0.87733   0.00000  Uiso   1.00
C462   C     0.56957   0.87820   0.86426   0.00000  Uiso   1.00
C463   C     0.62841   0.89963   0.85241   0.00000  Uiso   1.00
C464   C     0.69902   0.84691   0.84156   0.00000  Uiso   1.00
C465   C     0.82412   0.78212   0.82109   0.00000  Uiso   1.00
C466   C     0.45592   0.92741   0.82664   0.00000  Uiso   1.00
C467   C     0.41920   0.99022   0.78317   0.00000  Uiso   1.00
C468   C     0.39413   0.97891   0.74066   0.00000  Uiso   1.00
C469   C     0.34274   0.99052   0.66181   0.00000  Uiso   1.00
C470   C     0.45241   0.88493   0.94230   0.00000  Uiso   1.00
C471   C     0.41272   0.91202   0.99608   0.00000  Uiso   1.00
C472   C     0.38467   0.86494   0.05094   0.00000  Uiso   1.00
C473   C     0.32784   0.81060   0.15167   0.00000  Uiso   1.00
C474   C     0.50864   0.79518   0.87911   0.00000  Uiso   1.00
C475   C     0.58083   0.80664   0.86523   0.00000  Uiso   1.00
C476   C     0.65137   0.75386   0.85439   0.00000  Uiso   1.00
C477   C     0.71031   0.77521   0.84253   0.00000  Uiso   1.00
C478   C     0.46718   0.85585   0.82761   0.00000  Uiso   1.00
C479   C     0.44215   0.84444   0.78515   0.00000  Uiso   1.00
C480   C     0.40541   0.90721   0.74163   0.00000  Uiso   1.00
C481   C     0.46368   0.81336   0.94327   0.00000  Uiso   1.00
C482   C     0.43568   0.76624   0.99805   0.00000  Uiso   1.00
C483   C     0.39596   0.79325   0.05191   0.00000  Uiso   1.00
H484   H     0.47912   0.98266   0.87657   0.00000  Uiso   1.00
H485   H     0.61967   0.95503   0.85166   0.00000  Uiso   1.00
H486   H     0.41048   0.04559   0.78244   0.00000  Uiso   1.00
H487   H     0.40401   0.96740   0.99531   0.00000  Uiso   1.00
H488   H     0.78047   0.89284   0.82445   0.00000  Uiso   1.00
H489   H     0.33937   0.08380   0.67851   0.00000  Uiso   1.00
H490   H     0.32571   0.91892   0.12739   0.00000  Uiso   1.00
H491   H     0.51741   0.73946   0.87987   0.00000  Uiso   1.00
H492   H     0.66007   0.69848   0.85514   0.00000  Uiso   1.00
H493   H     0.45088   0.78905   0.78592   0.00000  Uiso   1.00
H494   H     0.44441   0.71086   0.99879   0.00000  Uiso   1.00
H495   H     0.81326   0.68462   0.82727   0.00000  Uiso   1.00
H496   H     0.37215   0.87558   0.68133   0.00000  Uiso   1.00
H497   H     0.35850   0.71070   0.13021   0.00000  Uiso   1.00
O498   O     0.89002   0.76616   0.80952   0.00000  Uiso   1.00
O499   O     0.31129   0.01670   0.61805   0.00000  Uiso   1.00
O500   O     0.29339   0.80039   0.20697   0.00000  Uiso   1.00
N501   N     0.76861   0.84945   0.82852   0.00000  Uiso   1.00
N502   N     0.35621   0.02799   0.69206   0.00000  Uiso   1.00
N503   N     0.34343   0.87385   0.11173   0.00000  Uiso   1.00
N504   N     0.78625   0.73741   0.83004   0.00000  Uiso   1.00
N505   N     0.37385   0.91595   0.69358   0.00000  Uiso   1.00
N506   N     0.36107   0.76181   0.11325   0.00000  Uiso   1.00
C507   C     0.17426   0.45772   0.88351   0.00000  Uiso   1.00
C508   C     0.14744   0.53867   0.88317   0.00000  Uiso   1.00
C509   C     0.08493   0.59533   0.86276   0.00000  Uiso   1.00
C510   C     0.06985   0.66561   0.86624   0.00000  Uiso   1.00
C511   C     0.02126   0.78932   0.86218   0.00000  Uiso   1.00
C512   C     0.25340   0.43924   0.84343   0.00000  Uiso   1.00
C513   C     0.27998   0.41229   0.78961   0.00000  Uiso   1.00
C514   C     0.35410   0.39887   0.75964   0.00000  Uiso   1.00
C515   C     0.47002   0.36817   0.69391   0.00000  Uiso   1.00
C516   C     0.17976   0.41175   0.95302   0.00000  Uiso   1.00
C517   C     0.14444   0.36167   0.99135   0.00000  Uiso   1.00
C518   C     0.15658   0.32510   0.05365   0.00000  Uiso   1.00
C519   C     0.15817   0.25171   0.15808   0.00000  Uiso   1.00
C520   C     0.25864   0.48179   0.92599   0.00000  Uiso   1.00
C521   C     0.19327   0.55174   0.90625   0.00000  Uiso   1.00
C522   C     0.17829   0.62196   0.90976   0.00000  Uiso   1.00
C523   C     0.11577   0.67871   0.88936   0.00000  Uiso   1.00
C524   C     0.29923   0.45231   0.86650   0.00000  Uiso   1.00
C525   C     0.37333   0.43892   0.83661   0.00000  Uiso   1.00
C526   C     0.40001   0.41197   0.78276   0.00000  Uiso   1.00
C527   C     0.22559   0.42483   0.97610   0.00000  Uiso   1.00
C528   C     0.23779   0.38831   0.03835   0.00000  Uiso   1.00
C529   C     0.20250   0.33819   0.07676   0.00000  Uiso   1.00
H530   H     0.13858   0.44754   0.86554   0.00000  Uiso   1.00
H531   H     0.04948   0.58519   0.84490   0.00000  Uiso   1.00
H532   H     0.24450   0.40218   0.77177   0.00000  Uiso   1.00
H533   H     0.10898   0.35157   0.97347   0.00000  Uiso   1.00
H534   H     0.97092   0.74357   0.83217   0.00000  Uiso   1.00
H535   H     0.38213   0.35765   0.67798   0.00000  Uiso   1.00
H536   H     0.09637   0.25094   0.10332   0.00000  Uiso   1.00
H537   H     0.29432   0.49197   0.94396   0.00000  Uiso   1.00
H538   H     0.21377   0.63206   0.92762   0.00000  Uiso   1.00
H539   H     0.40878   0.44904   0.85449   0.00000  Uiso   1.00
H540   H     0.27327   0.39844   0.05619   0.00000  Uiso   1.00
H541   H     0.10427   0.78161   0.89931   0.00000  Uiso   1.00
H542   H     0.51548   0.39569   0.74512   0.00000  Uiso   1.00
H543   H     0.22971   0.28898   0.17046   0.00000  Uiso   1.00
O544   O     0.98181   0.85394   0.85356   0.00000  Uiso   1.00
O545   O     0.52130   0.34763   0.65127   0.00000  Uiso   1.00
O546   O     0.14638   0.20763   0.20931   0.00000  Uiso   1.00
N547   N     0.01335   0.73329   0.85022   0.00000  Uiso   1.00
N548   N     0.39781   0.37250   0.70606   0.00000  Uiso   1.00
N549   N     0.13066   0.27271   0.10371   0.00000  Uiso   1.00
N550   N     0.08510   0.75376   0.88635   0.00000  Uiso   1.00
N551   N     0.46956   0.39297   0.74219   0.00000  Uiso   1.00
N552   N     0.20241   0.29318   0.13984   0.00000  Uiso   1.00
