data_job_01187
_audit_creation_date              2018-12-19
_audit_creation_method            'Materials Studio'
_symmetry_space_group_name_H-M    'P1'
_symmetry_Int_Tables_number       1
_symmetry_cell_setting            triclinic
loop_
_symmetry_equiv_pos_as_xyz
  x,y,z
_cell_length_a                    10.2472
_cell_length_b                    12.4906
_cell_length_c                    29.8524
_cell_angle_alpha                 90.0000
_cell_angle_beta                  116.1480
_cell_angle_gamma                 90.0000
loop_
_atom_site_label
_atom_site_type_symbol
_atom_site_fract_x
_atom_site_fract_y
_atom_site_fract_z
_atom_site_U_iso_or_equiv
_atom_site_adp_type
_atom_site_occupancy
C1     C     0.18473   0.73510   0.03611   0.00000  Uiso   1.00
C2     C     0.25214   0.84116   0.03186   0.00000  Uiso   1.00
C3     C     0.20593   0.90411   0.98931   0.00000  Uiso   1.00
C4     C     0.28199   0.99831   0.99304   0.00000  Uiso   1.00
C5     C     0.36876   0.15839   0.97964   0.00000  Uiso   1.00
C6     C     0.30772   0.65326   0.05391   0.00000  Uiso   1.00
C7     C     0.30822   0.55822   0.02990   0.00000  Uiso   1.00
C8     C     0.43106   0.49424   0.05219   0.00000  Uiso   1.00
C9     C     0.60407   0.36257   0.07303   0.00000  Uiso   1.00
C10    C     0.14321   0.74879   0.07895   0.00000  Uiso   1.00
C11    C     0.00541   0.73406   0.07600   0.00000  Uiso   1.00
C12    C     0.98975   0.75048   0.11938   0.00000  Uiso   1.00
C13    C     0.90733   0.76714   0.17910   0.00000  Uiso   1.00
C14    C     0.40197   0.79043   0.11840   0.00000  Uiso   1.00
C15    C     0.37014   0.87121   0.07656   0.00000  Uiso   1.00
C16    C     0.44629   0.96533   0.08035   0.00000  Uiso   1.00
C17    C     0.40020   0.02842   0.03781   0.00000  Uiso   1.00
C18    C     0.42571   0.68331   0.09860   0.00000  Uiso   1.00
C19    C     0.54858   0.61945   0.12093   0.00000  Uiso   1.00
C20    C     0.54928   0.52435   0.09696   0.00000  Uiso   1.00
C21    C     0.26121   0.77885   0.12364   0.00000  Uiso   1.00
C22    C     0.24576   0.79528   0.16704   0.00000  Uiso   1.00
C23    C     0.10796   0.78058   0.16415   0.00000  Uiso   1.00
H24    H     0.09287   0.71169   0.00131   0.00000  Uiso   1.00
H25    H     0.11462   0.88082   0.95473   0.00000  Uiso   1.00
H26    H     0.21689   0.53498   0.99531   0.00000  Uiso   1.00
H27    H     0.91412   0.71080   0.04141   0.00000  Uiso   1.00
H28    H     0.19081   0.08157   0.92279   0.00000  Uiso   1.00
H29    H     0.40643   0.35233   0.00836   0.00000  Uiso   1.00
H30    H     0.76798   0.72306   0.10556   0.00000  Uiso   1.00
H31    H     0.49384   0.81383   0.15319   0.00000  Uiso   1.00
H32    H     0.53760   0.98857   0.11494   0.00000  Uiso   1.00
H33    H     0.63987   0.64273   0.15552   0.00000  Uiso   1.00
H34    H     0.33710   0.81854   0.20162   0.00000  Uiso   1.00
H35    H     0.53411   0.16902   0.05282   0.00000  Uiso   1.00
H36    H     0.74973   0.43978   0.13840   0.00000  Uiso   1.00
H37    H     0.11128   0.81051   0.23560   0.00000  Uiso   1.00
O38    O     0.38404   0.23838   0.95990   0.00000  Uiso   1.00
O39    O     0.66691   0.28164   0.07217   0.00000  Uiso   1.00
O40    O     0.82928   0.76804   0.19970   0.00000  Uiso   1.00
N41    N     0.26558   0.07818   0.95864   0.00000  Uiso   1.00
N42    N     0.46718   0.39639   0.03865   0.00000  Uiso   1.00
N43    N     0.87029   0.74297   0.12952   0.00000  Uiso   1.00
N44    N     0.45031   0.12524   0.02861   0.00000  Uiso   1.00
N45    N     0.65191   0.44345   0.10862   0.00000  Uiso   1.00
N46    N     0.05502   0.79003   0.19949   0.00000  Uiso   1.00
C47    C     0.81527   0.73510   0.46389   0.00000  Uiso   1.00
C48    C     0.74786   0.84116   0.46814   0.00000  Uiso   1.00
C49    C     0.79407   0.90411   0.51069   0.00000  Uiso   1.00
C50    C     0.71801   0.99831   0.50696   0.00000  Uiso   1.00
C51    C     0.63124   0.15839   0.52036   0.00000  Uiso   1.00
C52    C     0.69228   0.65326   0.44609   0.00000  Uiso   1.00
C53    C     0.69178   0.55822   0.47010   0.00000  Uiso   1.00
C54    C     0.56894   0.49424   0.44781   0.00000  Uiso   1.00
C55    C     0.39593   0.36257   0.42697   0.00000  Uiso   1.00
C56    C     0.85679   0.74879   0.42105   0.00000  Uiso   1.00
C57    C     0.99459   0.73406   0.42400   0.00000  Uiso   1.00
C58    C     0.01025   0.75048   0.38062   0.00000  Uiso   1.00
C59    C     0.09267   0.76714   0.32090   0.00000  Uiso   1.00
C60    C     0.59803   0.79043   0.38160   0.00000  Uiso   1.00
C61    C     0.62986   0.87121   0.42344   0.00000  Uiso   1.00
C62    C     0.55371   0.96533   0.41965   0.00000  Uiso   1.00
C63    C     0.59980   0.02842   0.46219   0.00000  Uiso   1.00
C64    C     0.57429   0.68331   0.40140   0.00000  Uiso   1.00
C65    C     0.45142   0.61945   0.37907   0.00000  Uiso   1.00
C66    C     0.45072   0.52435   0.40304   0.00000  Uiso   1.00
C67    C     0.73879   0.77885   0.37636   0.00000  Uiso   1.00
C68    C     0.75424   0.79528   0.33296   0.00000  Uiso   1.00
C69    C     0.89204   0.78058   0.33585   0.00000  Uiso   1.00
H70    H     0.90713   0.71169   0.49869   0.00000  Uiso   1.00
H71    H     0.88538   0.88082   0.54527   0.00000  Uiso   1.00
H72    H     0.78311   0.53498   0.50469   0.00000  Uiso   1.00
H73    H     0.08588   0.71080   0.45859   0.00000  Uiso   1.00
H74    H     0.80919   0.08157   0.57721   0.00000  Uiso   1.00
H75    H     0.59357   0.35233   0.49164   0.00000  Uiso   1.00
H76    H     0.23202   0.72306   0.39444   0.00000  Uiso   1.00
H77    H     0.50616   0.81383   0.34681   0.00000  Uiso   1.00
H78    H     0.46240   0.98857   0.38506   0.00000  Uiso   1.00
H79    H     0.36013   0.64273   0.34448   0.00000  Uiso   1.00
H80    H     0.66290   0.81854   0.29838   0.00000  Uiso   1.00
H81    H     0.46589   0.16902   0.44718   0.00000  Uiso   1.00
H82    H     0.25027   0.43978   0.36160   0.00000  Uiso   1.00
H83    H     0.88872   0.81051   0.26440   0.00000  Uiso   1.00
O84    O     0.61596   0.23838   0.54010   0.00000  Uiso   1.00
O85    O     0.33309   0.28164   0.42783   0.00000  Uiso   1.00
O86    O     0.17072   0.76804   0.30030   0.00000  Uiso   1.00
N87    N     0.73442   0.07818   0.54136   0.00000  Uiso   1.00
N88    N     0.53282   0.39639   0.46135   0.00000  Uiso   1.00
N89    N     0.12971   0.74297   0.37048   0.00000  Uiso   1.00
N90    N     0.54969   0.12524   0.47139   0.00000  Uiso   1.00
N91    N     0.34809   0.44345   0.39138   0.00000  Uiso   1.00
N92    N     0.94498   0.79003   0.30051   0.00000  Uiso   1.00
C93    C     0.81527   0.26490   0.96389   0.00000  Uiso   1.00
C94    C     0.74786   0.15884   0.96814   0.00000  Uiso   1.00
C95    C     0.79407   0.09589   0.01069   0.00000  Uiso   1.00
C96    C     0.71801   0.00169   0.00696   0.00000  Uiso   1.00
C97    C     0.63124   0.84161   0.02036   0.00000  Uiso   1.00
C98    C     0.69228   0.34674   0.94609   0.00000  Uiso   1.00
C99    C     0.69178   0.44178   0.97010   0.00000  Uiso   1.00
C100   C     0.56894   0.50576   0.94781   0.00000  Uiso   1.00
C101   C     0.39593   0.63743   0.92697   0.00000  Uiso   1.00
C102   C     0.85679   0.25121   0.92105   0.00000  Uiso   1.00
C103   C     0.99459   0.26594   0.92400   0.00000  Uiso   1.00
C104   C     0.01025   0.24952   0.88062   0.00000  Uiso   1.00
C105   C     0.09267   0.23286   0.82090   0.00000  Uiso   1.00
C106   C     0.59803   0.20957   0.88160   0.00000  Uiso   1.00
C107   C     0.62986   0.12879   0.92344   0.00000  Uiso   1.00
C108   C     0.55371   0.03467   0.91965   0.00000  Uiso   1.00
C109   C     0.59980   0.97158   0.96219   0.00000  Uiso   1.00
C110   C     0.57429   0.31669   0.90140   0.00000  Uiso   1.00
C111   C     0.45142   0.38055   0.87907   0.00000  Uiso   1.00
C112   C     0.45072   0.47565   0.90304   0.00000  Uiso   1.00
C113   C     0.73879   0.22115   0.87636   0.00000  Uiso   1.00
C114   C     0.75424   0.20472   0.83296   0.00000  Uiso   1.00
C115   C     0.89204   0.21942   0.83585   0.00000  Uiso   1.00
H116   H     0.90713   0.28831   0.99869   0.00000  Uiso   1.00
H117   H     0.88538   0.11918   0.04527   0.00000  Uiso   1.00
H118   H     0.78311   0.46502   0.00469   0.00000  Uiso   1.00
H119   H     0.08588   0.28920   0.95859   0.00000  Uiso   1.00
H120   H     0.80919   0.91843   0.07721   0.00000  Uiso   1.00
H121   H     0.59357   0.64767   0.99164   0.00000  Uiso   1.00
H122   H     0.23202   0.27694   0.89444   0.00000  Uiso   1.00
H123   H     0.50616   0.18617   0.84681   0.00000  Uiso   1.00
H124   H     0.46240   0.01143   0.88506   0.00000  Uiso   1.00
H125   H     0.36013   0.35727   0.84448   0.00000  Uiso   1.00
H126   H     0.66290   0.18146   0.79838   0.00000  Uiso   1.00
H127   H     0.46589   0.83098   0.94718   0.00000  Uiso   1.00
H128   H     0.25027   0.56022   0.86160   0.00000  Uiso   1.00
H129   H     0.88872   0.18949   0.76440   0.00000  Uiso   1.00
O130   O     0.61596   0.76162   0.04010   0.00000  Uiso   1.00
O131   O     0.33309   0.71836   0.92783   0.00000  Uiso   1.00
O132   O     0.17072   0.23196   0.80030   0.00000  Uiso   1.00
N133   N     0.73442   0.92182   0.04136   0.00000  Uiso   1.00
N134   N     0.53282   0.60361   0.96135   0.00000  Uiso   1.00
N135   N     0.12971   0.25703   0.87048   0.00000  Uiso   1.00
N136   N     0.54969   0.87476   0.97139   0.00000  Uiso   1.00
N137   N     0.34809   0.55655   0.89138   0.00000  Uiso   1.00
N138   N     0.94498   0.20997   0.80051   0.00000  Uiso   1.00
C139   C     0.18473   0.26490   0.53611   0.00000  Uiso   1.00
C140   C     0.25214   0.15884   0.53186   0.00000  Uiso   1.00
C141   C     0.20593   0.09589   0.48931   0.00000  Uiso   1.00
C142   C     0.28199   0.00169   0.49304   0.00000  Uiso   1.00
C143   C     0.36876   0.84161   0.47964   0.00000  Uiso   1.00
C144   C     0.30772   0.34674   0.55391   0.00000  Uiso   1.00
C145   C     0.30822   0.44178   0.52990   0.00000  Uiso   1.00
C146   C     0.43106   0.50576   0.55219   0.00000  Uiso   1.00
C147   C     0.60407   0.63743   0.57303   0.00000  Uiso   1.00
C148   C     0.14321   0.25121   0.57895   0.00000  Uiso   1.00
C149   C     0.00541   0.26594   0.57600   0.00000  Uiso   1.00
C150   C     0.98975   0.24952   0.61938   0.00000  Uiso   1.00
C151   C     0.90733   0.23286   0.67910   0.00000  Uiso   1.00
C152   C     0.40197   0.20957   0.61840   0.00000  Uiso   1.00
C153   C     0.37014   0.12879   0.57656   0.00000  Uiso   1.00
C154   C     0.44629   0.03467   0.58035   0.00000  Uiso   1.00
C155   C     0.40020   0.97158   0.53781   0.00000  Uiso   1.00
C156   C     0.42571   0.31669   0.59860   0.00000  Uiso   1.00
C157   C     0.54858   0.38055   0.62093   0.00000  Uiso   1.00
C158   C     0.54928   0.47565   0.59696   0.00000  Uiso   1.00
C159   C     0.26121   0.22115   0.62364   0.00000  Uiso   1.00
C160   C     0.24576   0.20472   0.66704   0.00000  Uiso   1.00
C161   C     0.10796   0.21942   0.66415   0.00000  Uiso   1.00
H162   H     0.09287   0.28831   0.50131   0.00000  Uiso   1.00
H163   H     0.11462   0.11918   0.45473   0.00000  Uiso   1.00
H164   H     0.21689   0.46502   0.49531   0.00000  Uiso   1.00
H165   H     0.91412   0.28920   0.54141   0.00000  Uiso   1.00
H166   H     0.19081   0.91843   0.42279   0.00000  Uiso   1.00
H167   H     0.40643   0.64767   0.50836   0.00000  Uiso   1.00
H168   H     0.76798   0.27694   0.60556   0.00000  Uiso   1.00
H169   H     0.49384   0.18617   0.65319   0.00000  Uiso   1.00
H170   H     0.53760   0.01143   0.61494   0.00000  Uiso   1.00
H171   H     0.63987   0.35727   0.65552   0.00000  Uiso   1.00
H172   H     0.33710   0.18146   0.70162   0.00000  Uiso   1.00
H173   H     0.53411   0.83098   0.55282   0.00000  Uiso   1.00
H174   H     0.74973   0.56022   0.63840   0.00000  Uiso   1.00
H175   H     0.11128   0.18949   0.73560   0.00000  Uiso   1.00
O176   O     0.38404   0.76162   0.45990   0.00000  Uiso   1.00
O177   O     0.66691   0.71836   0.57217   0.00000  Uiso   1.00
O178   O     0.82928   0.23196   0.69970   0.00000  Uiso   1.00
N179   N     0.26558   0.92182   0.45864   0.00000  Uiso   1.00
N180   N     0.46718   0.60361   0.53865   0.00000  Uiso   1.00
N181   N     0.87029   0.25703   0.62952   0.00000  Uiso   1.00
N182   N     0.45031   0.87476   0.52861   0.00000  Uiso   1.00
N183   N     0.65191   0.55655   0.60862   0.00000  Uiso   1.00
N184   N     0.05502   0.20997   0.69949   0.00000  Uiso   1.00
