data_job_05942
_audit_creation_date              2018-12-19
_audit_creation_method            'Materials Studio'
_symmetry_space_group_name_H-M    'P1'
_symmetry_Int_Tables_number       1
_symmetry_cell_setting            triclinic
loop_
_symmetry_equiv_pos_as_xyz
  x,y,z
_cell_length_a                    15.8427
_cell_length_b                    15.4456
_cell_length_c                    15.2132
_cell_angle_alpha                 82.7612
_cell_angle_beta                  82.5989
_cell_angle_gamma                 82.7828
loop_
_atom_site_label
_atom_site_type_symbol
_atom_site_fract_x
_atom_site_fract_y
_atom_site_fract_z
_atom_site_U_iso_or_equiv
_atom_site_adp_type
_atom_site_occupancy
C1     C     0.64000   0.00754   0.70002   0.00000  Uiso   1.00
C2     C     0.56970   0.96279   0.76009   0.00000  Uiso   1.00
C3     C     0.56315   0.87322   0.77289   0.00000  Uiso   1.00
C4     C     0.49409   0.84529   0.83052   0.00000  Uiso   1.00
C5     C     0.39407   0.76675   0.91718   0.00000  Uiso   1.00
C6     C     0.59444   0.07522   0.63503   0.00000  Uiso   1.00
C7     C     0.60870   0.08018   0.54268   0.00000  Uiso   1.00
C8     C     0.56049   0.14691   0.49503   0.00000  Uiso   1.00
C9     C     0.49892   0.24296   0.38753   0.00000  Uiso   1.00
C10    C     0.67982   0.05976   0.75947   0.00000  Uiso   1.00
C11    C     0.76587   0.05175   0.77173   0.00000  Uiso   1.00
C12    C     0.78953   0.10548   0.82884   0.00000  Uiso   1.00
C13    C     0.86053   0.17753   0.91456   0.00000  Uiso   1.00
C14    C     0.52902   0.11723   0.77960   0.00000  Uiso   1.00
C15    C     0.50942   0.02237   0.80331   0.00000  Uiso   1.00
C16    C     0.44036   0.99458   0.86094   0.00000  Uiso   1.00
C17    C     0.43371   0.90497   0.87382   0.00000  Uiso   1.00
C18    C     0.53416   0.13480   0.67825   0.00000  Uiso   1.00
C19    C     0.48592   0.20154   0.63072   0.00000  Uiso   1.00
C20    C     0.50010   0.20659   0.53833   0.00000  Uiso   1.00
C21    C     0.61954   0.11935   0.80269   0.00000  Uiso   1.00
C22    C     0.64308   0.17310   0.85978   0.00000  Uiso   1.00
C23    C     0.72915   0.16516   0.87214   0.00000  Uiso   1.00
H24    H     0.68693   0.96115   0.66636   0.00000  Uiso   1.00
H25    H     0.60981   0.82713   0.73942   0.00000  Uiso   1.00
H26    H     0.65536   0.03407   0.50925   0.00000  Uiso   1.00
H27    H     0.81250   0.00563   0.73827   0.00000  Uiso   1.00
H28    H     0.49769   0.70482   0.83946   0.00000  Uiso   1.00
H29    H     0.59377   0.14118   0.35412   0.00000  Uiso   1.00
H30    H     0.92513   0.08122   0.83707   0.00000  Uiso   1.00
H31    H     0.48209   0.16362   0.81325   0.00000  Uiso   1.00
H32    H     0.39372   0.04070   0.89438   0.00000  Uiso   1.00
H33    H     0.43928   0.24764   0.66420   0.00000  Uiso   1.00
H34    H     0.59641   0.21920   0.89322   0.00000  Uiso   1.00
H35    H     0.32231   0.87816   0.96522   0.00000  Uiso   1.00
H36    H     0.41839   0.31452   0.47988   0.00000  Uiso   1.00
H37    H     0.74974   0.25456   0.96283   0.00000  Uiso   1.00
O38    O     0.35555   0.70698   0.95303   0.00000  Uiso   1.00
O39    O     0.48161   0.27947   0.31629   0.00000  Uiso   1.00
O40    O     0.91634   0.20081   0.94991   0.00000  Uiso   1.00
N41    N     0.46855   0.76248   0.85794   0.00000  Uiso   1.00
N42    N     0.55837   0.17044   0.40418   0.00000  Uiso   1.00
N43    N     0.86816   0.11440   0.85567   0.00000  Uiso   1.00
N44    N     0.37418   0.85575   0.92561   0.00000  Uiso   1.00
N45    N     0.46400   0.26371   0.47185   0.00000  Uiso   1.00
N46    N     0.77379   0.20768   0.92334   0.00000  Uiso   1.00
C47    C     0.70358   0.64015   0.00652   0.00000  Uiso   1.00
C48    C     0.76112   0.56813   0.96097   0.00000  Uiso   1.00
C49    C     0.77347   0.56146   0.86999   0.00000  Uiso   1.00
C50    C     0.82866   0.49073   0.84152   0.00000  Uiso   1.00
C51    C     0.91170   0.38828   0.76160   0.00000  Uiso   1.00
C52    C     0.64099   0.59334   0.07540   0.00000  Uiso   1.00
C53    C     0.55233   0.60788   0.08063   0.00000  Uiso   1.00
C54    C     0.50639   0.55836   0.14849   0.00000  Uiso   1.00
C55    C     0.40292   0.49509   0.24626   0.00000  Uiso   1.00
C56    C     0.76073   0.68100   0.05943   0.00000  Uiso   1.00
C57    C     0.77274   0.76925   0.05125   0.00000  Uiso   1.00
C58    C     0.82761   0.79355   0.10569   0.00000  Uiso   1.00
C59    C     0.91006   0.86639   0.17866   0.00000  Uiso   1.00
C60    C     0.77964   0.52637   0.11776   0.00000  Uiso   1.00
C61    C     0.80243   0.50633   0.02139   0.00000  Uiso   1.00
C62    C     0.85762   0.43558   0.99305   0.00000  Uiso   1.00
C63    C     0.87005   0.42882   0.90204   0.00000  Uiso   1.00
C64    C     0.68230   0.53154   0.13581   0.00000  Uiso   1.00
C65    C     0.63648   0.48200   0.20369   0.00000  Uiso   1.00
C66    C     0.54778   0.49645   0.20902   0.00000  Uiso   1.00
C67    C     0.80205   0.61920   0.11985   0.00000  Uiso   1.00
C68    C     0.85690   0.64337   0.17431   0.00000  Uiso   1.00
C69    C     0.86899   0.73164   0.16621   0.00000  Uiso   1.00
H70    H     0.67141   0.68826   0.95949   0.00000  Uiso   1.00
H71    H     0.74148   0.60930   0.82325   0.00000  Uiso   1.00
H72    H     0.52038   0.65571   0.03387   0.00000  Uiso   1.00
H73    H     0.74076   0.81705   0.00449   0.00000  Uiso   1.00
H74    H     0.83737   0.49449   0.69886   0.00000  Uiso   1.00
H75    H     0.37115   0.59237   0.14296   0.00000  Uiso   1.00
H76    H     0.83588   0.93260   0.08102   0.00000  Uiso   1.00
H77    H     0.81180   0.47826   0.16480   0.00000  Uiso   1.00
H78    H     0.88958   0.38777   0.03982   0.00000  Uiso   1.00
H79    H     0.66847   0.43418   0.25044   0.00000  Uiso   1.00
H80    H     0.88886   0.59553   0.22106   0.00000  Uiso   1.00
H81    H     0.95757   0.31468   0.87463   0.00000  Uiso   1.00
H82    H     0.49135   0.41257   0.31874   0.00000  Uiso   1.00
H83    H     0.95607   0.75280   0.25680   0.00000  Uiso   1.00
O84    O     0.94608   0.34883   0.70083   0.00000  Uiso   1.00
O85    O     0.33442   0.47726   0.28349   0.00000  Uiso   1.00
O86    O     0.94413   0.92364   0.20222   0.00000  Uiso   1.00
N87    N     0.85500   0.46460   0.75737   0.00000  Uiso   1.00
N88    N     0.41911   0.55610   0.17258   0.00000  Uiso   1.00
N89    N     0.85357   0.87419   0.11469   0.00000  Uiso   1.00
N90    N     0.91968   0.36785   0.85196   0.00000  Uiso   1.00
N91    N     0.48379   0.45935   0.26716   0.00000  Uiso   1.00
N92    N     0.91825   0.77744   0.20927   0.00000  Uiso   1.00
C93    C     0.00932   0.70128   0.64039   0.00000  Uiso   1.00
C94    C     0.96577   0.76028   0.56735   0.00000  Uiso   1.00
C95    C     0.87843   0.77286   0.56077   0.00000  Uiso   1.00
C96    C     0.85128   0.82946   0.48899   0.00000  Uiso   1.00
C97    C     0.77482   0.91458   0.38512   0.00000  Uiso   1.00
C98    C     0.07534   0.63719   0.59272   0.00000  Uiso   1.00
C99    C     0.08013   0.54627   0.60748   0.00000  Uiso   1.00
C100   C     0.14522   0.49925   0.55707   0.00000  Uiso   1.00
C101   C     0.23891   0.39327   0.49263   0.00000  Uiso   1.00
C102   C     0.06024   0.75992   0.68175   0.00000  Uiso   1.00
C103   C     0.05235   0.77218   0.77138   0.00000  Uiso   1.00
C104   C     0.10476   0.82848   0.79593   0.00000  Uiso   1.00
C105   C     0.17500   0.91305   0.86973   0.00000  Uiso   1.00
C106   C     0.11643   0.77942   0.52461   0.00000  Uiso   1.00
C107   C     0.02396   0.80272   0.50446   0.00000  Uiso   1.00
C108   C     0.99693   0.85932   0.43268   0.00000  Uiso   1.00
C109   C     0.90956   0.87198   0.42599   0.00000  Uiso   1.00
C110   C     0.13352   0.67962   0.52983   0.00000  Uiso   1.00
C111   C     0.19863   0.63273   0.47939   0.00000  Uiso   1.00
C112   C     0.20351   0.54177   0.49407   0.00000  Uiso   1.00
C113   C     0.11842   0.80236   0.61887   0.00000  Uiso   1.00
C114   C     0.17086   0.85864   0.64328   0.00000  Uiso   1.00
C115   C     0.16304   0.87100   0.73293   0.00000  Uiso   1.00
H116   H     0.96403   0.66823   0.68935   0.00000  Uiso   1.00
H117   H     0.83342   0.73999   0.60945   0.00000  Uiso   1.00
H118   H     0.03510   0.51345   0.65616   0.00000  Uiso   1.00
H119   H     0.00732   0.73933   0.82003   0.00000  Uiso   1.00
H120   H     0.71429   0.83826   0.49311   0.00000  Uiso   1.00
H121   H     0.13954   0.36056   0.59163   0.00000  Uiso   1.00
H122   H     0.08098   0.83687   0.93718   0.00000  Uiso   1.00
H123   H     0.16173   0.81247   0.47565   0.00000  Uiso   1.00
H124   H     0.04197   0.89215   0.38402   0.00000  Uiso   1.00
H125   H     0.24364   0.66560   0.43073   0.00000  Uiso   1.00
H126   H     0.21587   0.89148   0.59460   0.00000  Uiso   1.00
H127   H     0.88355   0.96175   0.31014   0.00000  Uiso   1.00
H128   H     0.30881   0.48405   0.40866   0.00000  Uiso   1.00
H129   H     0.25024   0.96036   0.75422   0.00000  Uiso   1.00
O130   O     0.71658   0.94980   0.34519   0.00000  Uiso   1.00
O131   O     0.27450   0.32308   0.47445   0.00000  Uiso   1.00
O132   O     0.19766   0.94799   0.92781   0.00000  Uiso   1.00
N133   N     0.77056   0.85640   0.46263   0.00000  Uiso   1.00
N134   N     0.16814   0.40978   0.55473   0.00000  Uiso   1.00
N135   N     0.11340   0.85507   0.87780   0.00000  Uiso   1.00
N136   N     0.86164   0.92285   0.36418   0.00000  Uiso   1.00
N137   N     0.25922   0.47623   0.45628   0.00000  Uiso   1.00
N138   N     0.20448   0.92152   0.77935   0.00000  Uiso   1.00
C139   C     0.36000   0.99246   0.29998   0.00000  Uiso   1.00
C140   C     0.43030   0.03721   0.23991   0.00000  Uiso   1.00
C141   C     0.43685   0.12678   0.22711   0.00000  Uiso   1.00
C142   C     0.50591   0.15471   0.16948   0.00000  Uiso   1.00
C143   C     0.60593   0.23325   0.08282   0.00000  Uiso   1.00
C144   C     0.40556   0.92478   0.36497   0.00000  Uiso   1.00
C145   C     0.39130   0.91982   0.45732   0.00000  Uiso   1.00
C146   C     0.43951   0.85309   0.50497   0.00000  Uiso   1.00
C147   C     0.50108   0.75704   0.61247   0.00000  Uiso   1.00
C148   C     0.32018   0.94024   0.24053   0.00000  Uiso   1.00
C149   C     0.23413   0.94825   0.22827   0.00000  Uiso   1.00
C150   C     0.21047   0.89452   0.17116   0.00000  Uiso   1.00
C151   C     0.13947   0.82247   0.08544   0.00000  Uiso   1.00
C152   C     0.47098   0.88277   0.22040   0.00000  Uiso   1.00
C153   C     0.49058   0.97762   0.19669   0.00000  Uiso   1.00
C154   C     0.55964   0.00542   0.13906   0.00000  Uiso   1.00
C155   C     0.56629   0.09503   0.12618   0.00000  Uiso   1.00
C156   C     0.46584   0.86520   0.32175   0.00000  Uiso   1.00
C157   C     0.51408   0.79846   0.36928   0.00000  Uiso   1.00
C158   C     0.49990   0.79340   0.46167   0.00000  Uiso   1.00
C159   C     0.38046   0.88065   0.19730   0.00000  Uiso   1.00
C160   C     0.35692   0.82690   0.14022   0.00000  Uiso   1.00
C161   C     0.27085   0.83483   0.12786   0.00000  Uiso   1.00
H162   H     0.31307   0.03885   0.33364   0.00000  Uiso   1.00
H163   H     0.39019   0.17287   0.26058   0.00000  Uiso   1.00
H164   H     0.34464   0.96593   0.49075   0.00000  Uiso   1.00
H165   H     0.18750   0.99437   0.26173   0.00000  Uiso   1.00
H166   H     0.50231   0.29518   0.16054   0.00000  Uiso   1.00
H167   H     0.40623   0.85882   0.64588   0.00000  Uiso   1.00
H168   H     0.07487   0.91878   0.16293   0.00000  Uiso   1.00
H169   H     0.51791   0.83638   0.18675   0.00000  Uiso   1.00
H170   H     0.60628   0.95930   0.10562   0.00000  Uiso   1.00
H171   H     0.56072   0.75236   0.33580   0.00000  Uiso   1.00
H172   H     0.40359   0.78080   0.10678   0.00000  Uiso   1.00
H173   H     0.67769   0.12184   0.03478   0.00000  Uiso   1.00
H174   H     0.58161   0.68548   0.52012   0.00000  Uiso   1.00
H175   H     0.25026   0.74544   0.03717   0.00000  Uiso   1.00
O176   O     0.64445   0.29302   0.04697   0.00000  Uiso   1.00
O177   O     0.51839   0.72053   0.68371   0.00000  Uiso   1.00
O178   O     0.08366   0.79919   0.05009   0.00000  Uiso   1.00
N179   N     0.53145   0.23752   0.14206   0.00000  Uiso   1.00
N180   N     0.44163   0.82956   0.59582   0.00000  Uiso   1.00
N181   N     0.13184   0.88560   0.14433   0.00000  Uiso   1.00
N182   N     0.62582   0.14425   0.07439   0.00000  Uiso   1.00
N183   N     0.53600   0.73629   0.52815   0.00000  Uiso   1.00
N184   N     0.22621   0.79232   0.07666   0.00000  Uiso   1.00
C185   C     0.29642   0.35985   0.99347   0.00000  Uiso   1.00
C186   C     0.23888   0.43187   0.03903   0.00000  Uiso   1.00
C187   C     0.22653   0.43854   0.13001   0.00000  Uiso   1.00
C188   C     0.17134   0.50927   0.15848   0.00000  Uiso   1.00
C189   C     0.08830   0.61172   0.23840   0.00000  Uiso   1.00
C190   C     0.35901   0.40666   0.92460   0.00000  Uiso   1.00
C191   C     0.44767   0.39212   0.91937   0.00000  Uiso   1.00
C192   C     0.49361   0.44164   0.85151   0.00000  Uiso   1.00
C193   C     0.59708   0.50491   0.75374   0.00000  Uiso   1.00
C194   C     0.23927   0.31900   0.94057   0.00000  Uiso   1.00
C195   C     0.22726   0.23075   0.94875   0.00000  Uiso   1.00
C196   C     0.17239   0.20645   0.89431   0.00000  Uiso   1.00
C197   C     0.08994   0.13361   0.82133   0.00000  Uiso   1.00
C198   C     0.22036   0.47363   0.88224   0.00000  Uiso   1.00
C199   C     0.19757   0.49367   0.97861   0.00000  Uiso   1.00
C200   C     0.14238   0.56442   0.00695   0.00000  Uiso   1.00
C201   C     0.12995   0.57118   0.09796   0.00000  Uiso   1.00
C202   C     0.31770   0.46846   0.86418   0.00000  Uiso   1.00
C203   C     0.36352   0.51800   0.79631   0.00000  Uiso   1.00
C204   C     0.45222   0.50355   0.79098   0.00000  Uiso   1.00
C205   C     0.19795   0.38080   0.88015   0.00000  Uiso   1.00
C206   C     0.14310   0.35663   0.82569   0.00000  Uiso   1.00
C207   C     0.13101   0.26836   0.83378   0.00000  Uiso   1.00
H208   H     0.32859   0.31174   0.04051   0.00000  Uiso   1.00
H209   H     0.25852   0.39070   0.17675   0.00000  Uiso   1.00
H210   H     0.47962   0.34429   0.96613   0.00000  Uiso   1.00
H211   H     0.25924   0.18294   0.99551   0.00000  Uiso   1.00
H212   H     0.16263   0.50551   0.30114   0.00000  Uiso   1.00
H213   H     0.62885   0.40763   0.85704   0.00000  Uiso   1.00
H214   H     0.16413   0.06740   0.91898   0.00000  Uiso   1.00
H215   H     0.18820   0.52174   0.83520   0.00000  Uiso   1.00
H216   H     0.11042   0.61223   0.96018   0.00000  Uiso   1.00
H217   H     0.33153   0.56582   0.74956   0.00000  Uiso   1.00
H218   H     0.11114   0.40447   0.77894   0.00000  Uiso   1.00
H219   H     0.04243   0.68532   0.12537   0.00000  Uiso   1.00
H220   H     0.50865   0.58743   0.68126   0.00000  Uiso   1.00
H221   H     0.04393   0.24720   0.74320   0.00000  Uiso   1.00
O222   O     0.05392   0.65117   0.29917   0.00000  Uiso   1.00
O223   O     0.66558   0.52274   0.71651   0.00000  Uiso   1.00
O224   O     0.05587   0.07636   0.79778   0.00000  Uiso   1.00
N225   N     0.14500   0.53540   0.24262   0.00000  Uiso   1.00
N226   N     0.58089   0.44390   0.82742   0.00000  Uiso   1.00
N227   N     0.14643   0.12581   0.88531   0.00000  Uiso   1.00
N228   N     0.08032   0.63215   0.14804   0.00000  Uiso   1.00
N229   N     0.51621   0.54065   0.73284   0.00000  Uiso   1.00
N230   N     0.08175   0.22256   0.79073   0.00000  Uiso   1.00
C231   C     0.99068   0.29872   0.35961   0.00000  Uiso   1.00
C232   C     0.03423   0.23972   0.43265   0.00000  Uiso   1.00
C233   C     0.12157   0.22714   0.43923   0.00000  Uiso   1.00
C234   C     0.14872   0.17054   0.51101   0.00000  Uiso   1.00
C235   C     0.22518   0.08542   0.61488   0.00000  Uiso   1.00
C236   C     0.92466   0.36281   0.40728   0.00000  Uiso   1.00
C237   C     0.91987   0.45373   0.39252   0.00000  Uiso   1.00
C238   C     0.85478   0.50075   0.44293   0.00000  Uiso   1.00
C239   C     0.76109   0.60673   0.50737   0.00000  Uiso   1.00
C240   C     0.93976   0.24008   0.31825   0.00000  Uiso   1.00
C241   C     0.94765   0.22782   0.22862   0.00000  Uiso   1.00
C242   C     0.89524   0.17152   0.20407   0.00000  Uiso   1.00
C243   C     0.82500   0.08695   0.13027   0.00000  Uiso   1.00
C244   C     0.88357   0.22058   0.47539   0.00000  Uiso   1.00
C245   C     0.97604   0.19728   0.49554   0.00000  Uiso   1.00
C246   C     0.00307   0.14068   0.56732   0.00000  Uiso   1.00
C247   C     0.09044   0.12802   0.57401   0.00000  Uiso   1.00
C248   C     0.86648   0.32038   0.47016   0.00000  Uiso   1.00
C249   C     0.80137   0.36727   0.52061   0.00000  Uiso   1.00
C250   C     0.79649   0.45823   0.50593   0.00000  Uiso   1.00
C251   C     0.88158   0.19764   0.38113   0.00000  Uiso   1.00
C252   C     0.82914   0.14136   0.35672   0.00000  Uiso   1.00
C253   C     0.83696   0.12900   0.26707   0.00000  Uiso   1.00
H254   H     0.03597   0.33177   0.31065   0.00000  Uiso   1.00
H255   H     0.16658   0.26001   0.39055   0.00000  Uiso   1.00
H256   H     0.96490   0.48655   0.34384   0.00000  Uiso   1.00
H257   H     0.99268   0.26067   0.17997   0.00000  Uiso   1.00
H258   H     0.28571   0.16174   0.50689   0.00000  Uiso   1.00
H259   H     0.86046   0.63944   0.40837   0.00000  Uiso   1.00
H260   H     0.91902   0.16313   0.06282   0.00000  Uiso   1.00
H261   H     0.83827   0.18753   0.52435   0.00000  Uiso   1.00
H262   H     0.95803   0.10785   0.61598   0.00000  Uiso   1.00
H263   H     0.75636   0.33440   0.56927   0.00000  Uiso   1.00
H264   H     0.78413   0.10852   0.40540   0.00000  Uiso   1.00
H265   H     0.11645   0.03825   0.68985   0.00000  Uiso   1.00
H266   H     0.69119   0.51595   0.59134   0.00000  Uiso   1.00
H267   H     0.74976   0.03964   0.24578   0.00000  Uiso   1.00
O268   O     0.28342   0.05020   0.65481   0.00000  Uiso   1.00
O269   O     0.72550   0.67692   0.52555   0.00000  Uiso   1.00
O270   O     0.80234   0.05201   0.07219   0.00000  Uiso   1.00
N271   N     0.22944   0.14360   0.53737   0.00000  Uiso   1.00
N272   N     0.83186   0.59022   0.44527   0.00000  Uiso   1.00
N273   N     0.88660   0.14493   0.12220   0.00000  Uiso   1.00
N274   N     0.13836   0.07715   0.63582   0.00000  Uiso   1.00
N275   N     0.74078   0.52377   0.54372   0.00000  Uiso   1.00
N276   N     0.79552   0.07848   0.22065   0.00000  Uiso   1.00
