data_job_05240
_audit_creation_date              2018-12-19
_audit_creation_method            'Materials Studio'
_symmetry_space_group_name_H-M    'P1'
_symmetry_Int_Tables_number       1
_symmetry_cell_setting            triclinic
loop_
_symmetry_equiv_pos_as_xyz
  x,y,z
_cell_length_a                    12.4724
_cell_length_b                    10.1830
_cell_length_c                    28.6736
_cell_angle_alpha                 90.0000
_cell_angle_beta                  68.6016
_cell_angle_gamma                 90.0000
loop_
_atom_site_label
_atom_site_type_symbol
_atom_site_fract_x
_atom_site_fract_y
_atom_site_fract_z
_atom_site_U_iso_or_equiv
_atom_site_adp_type
_atom_site_occupancy
C1     C     0.11057   0.25291   0.61867   0.00000  Uiso   1.00
C2     C     0.06521   0.27290   0.57646   0.00000  Uiso   1.00
C3     C     0.96796   0.34435   0.57976   0.00000  Uiso   1.00
C4     C     0.94084   0.35091   0.53696   0.00000  Uiso   1.00
C5     C     0.86007   0.39141   0.47820   0.00000  Uiso   1.00
C6     C     0.11737   0.10475   0.62482   0.00000  Uiso   1.00
C7     C     0.06398   0.03485   0.66877   0.00000  Uiso   1.00
C8     C     0.08079   0.89986   0.66668   0.00000  Uiso   1.00
C9     C     0.08106   0.67934   0.68300   0.00000  Uiso   1.00
C10    C     0.23463   0.30198   0.59862   0.00000  Uiso   1.00
C11    C     0.27985   0.39788   0.62055   0.00000  Uiso   1.00
C12    C     0.39539   0.42892   0.59640   0.00000  Uiso   1.00
C13    C     0.57773   0.51463   0.57205   0.00000  Uiso   1.00
C14    C     0.23534   0.13749   0.53680   0.00000  Uiso   1.00
C15    C     0.13298   0.21020   0.53200   0.00000  Uiso   1.00
C16    C     0.10601   0.21665   0.48918   0.00000  Uiso   1.00
C17    C     0.00874   0.28811   0.49241   0.00000  Uiso   1.00
C18    C     0.18513   0.04206   0.58035   0.00000  Uiso   1.00
C19    C     0.20203   0.90715   0.57820   0.00000  Uiso   1.00
C20    C     0.14868   0.83706   0.62214   0.00000  Uiso   1.00
C21    C     0.30240   0.23929   0.55415   0.00000  Uiso   1.00
C22    C     0.41790   0.27018   0.52997   0.00000  Uiso   1.00
C23    C     0.46329   0.36612   0.55186   0.00000  Uiso   1.00
H24    H     0.05781   0.30171   0.65329   0.00000  Uiso   1.00
H25    H     0.91553   0.39284   0.61418   0.00000  Uiso   1.00
H26    H     0.01155   0.08339   0.70318   0.00000  Uiso   1.00
H27    H     0.22738   0.44637   0.65496   0.00000  Uiso   1.00
H28    H     0.78766   0.46619   0.55121   0.00000  Uiso   1.00
H29    H     0.99015   0.81370   0.73888   0.00000  Uiso   1.00
H30    H     0.44528   0.57911   0.63720   0.00000  Uiso   1.00
H31    H     0.28811   0.08868   0.50218   0.00000  Uiso   1.00
H32    H     0.15847   0.16813   0.45478   0.00000  Uiso   1.00
H33    H     0.25449   0.85867   0.54378   0.00000  Uiso   1.00
H34    H     0.47032   0.22165   0.49556   0.00000  Uiso   1.00
H35    H     0.98483   0.28380   0.42184   0.00000  Uiso   1.00
H36    H     0.18733   0.63130   0.60951   0.00000  Uiso   1.00
H37    H     0.64245   0.39672   0.50783   0.00000  Uiso   1.00
O38    O     0.79678   0.43106   0.45808   0.00000  Uiso   1.00
O39    O     0.06247   0.57503   0.70429   0.00000  Uiso   1.00
O40    O     0.65958   0.57923   0.57089   0.00000  Uiso   1.00
N41    N     0.85186   0.41238   0.52727   0.00000  Uiso   1.00
N42    N     0.04117   0.80234   0.70272   0.00000  Uiso   1.00
N43    N     0.46668   0.51791   0.60767   0.00000  Uiso   1.00
N44    N     0.95796   0.31424   0.45765   0.00000  Uiso   1.00
N45    N     0.14727   0.70420   0.63311   0.00000  Uiso   1.00
N46    N     0.57278   0.41977   0.53806   0.00000  Uiso   1.00
C47    C     0.88943   0.75291   0.88133   0.00000  Uiso   1.00
C48    C     0.93479   0.77290   0.92354   0.00000  Uiso   1.00
C49    C     0.03204   0.84435   0.92024   0.00000  Uiso   1.00
C50    C     0.05916   0.85091   0.96304   0.00000  Uiso   1.00
C51    C     0.13993   0.89141   0.02180   0.00000  Uiso   1.00
C52    C     0.88263   0.60475   0.87518   0.00000  Uiso   1.00
C53    C     0.93602   0.53485   0.83123   0.00000  Uiso   1.00
C54    C     0.91921   0.39986   0.83332   0.00000  Uiso   1.00
C55    C     0.91894   0.17934   0.81700   0.00000  Uiso   1.00
C56    C     0.76537   0.80198   0.90138   0.00000  Uiso   1.00
C57    C     0.72015   0.89788   0.87945   0.00000  Uiso   1.00
C58    C     0.60461   0.92892   0.90360   0.00000  Uiso   1.00
C59    C     0.42227   0.01463   0.92795   0.00000  Uiso   1.00
C60    C     0.76466   0.63749   0.96320   0.00000  Uiso   1.00
C61    C     0.86702   0.71020   0.96800   0.00000  Uiso   1.00
C62    C     0.89399   0.71665   0.01082   0.00000  Uiso   1.00
C63    C     0.99126   0.78811   0.00759   0.00000  Uiso   1.00
C64    C     0.81487   0.54206   0.91965   0.00000  Uiso   1.00
C65    C     0.79797   0.40715   0.92180   0.00000  Uiso   1.00
C66    C     0.85132   0.33706   0.87786   0.00000  Uiso   1.00
C67    C     0.69760   0.73929   0.94585   0.00000  Uiso   1.00
C68    C     0.58210   0.77018   0.97003   0.00000  Uiso   1.00
C69    C     0.53671   0.86612   0.94814   0.00000  Uiso   1.00
H70    H     0.94219   0.80171   0.84671   0.00000  Uiso   1.00
H71    H     0.08447   0.89284   0.88582   0.00000  Uiso   1.00
H72    H     0.98845   0.58339   0.79682   0.00000  Uiso   1.00
H73    H     0.77262   0.94637   0.84504   0.00000  Uiso   1.00
H74    H     0.21234   0.96619   0.94879   0.00000  Uiso   1.00
H75    H     0.00985   0.31370   0.76112   0.00000  Uiso   1.00
H76    H     0.55472   0.07911   0.86280   0.00000  Uiso   1.00
H77    H     0.71189   0.58868   0.99782   0.00000  Uiso   1.00
H78    H     0.84153   0.66813   0.04522   0.00000  Uiso   1.00
H79    H     0.74551   0.35867   0.95622   0.00000  Uiso   1.00
H80    H     0.52968   0.72165   0.00444   0.00000  Uiso   1.00
H81    H     0.01517   0.78380   0.07816   0.00000  Uiso   1.00
H82    H     0.81267   0.13130   0.89049   0.00000  Uiso   1.00
H83    H     0.35755   0.89672   0.99217   0.00000  Uiso   1.00
O84    O     0.20322   0.93106   0.04192   0.00000  Uiso   1.00
O85    O     0.93753   0.07503   0.79571   0.00000  Uiso   1.00
O86    O     0.34042   0.07923   0.92911   0.00000  Uiso   1.00
N87    N     0.14814   0.91238   0.97273   0.00000  Uiso   1.00
N88    N     0.95883   0.30234   0.79728   0.00000  Uiso   1.00
N89    N     0.53332   0.01791   0.89233   0.00000  Uiso   1.00
N90    N     0.04204   0.81424   0.04235   0.00000  Uiso   1.00
N91    N     0.85273   0.20420   0.86689   0.00000  Uiso   1.00
N92    N     0.42722   0.91977   0.96194   0.00000  Uiso   1.00
C93    C     0.88943   0.74709   0.38133   0.00000  Uiso   1.00
C94    C     0.93479   0.72710   0.42354   0.00000  Uiso   1.00
C95    C     0.03204   0.65565   0.42024   0.00000  Uiso   1.00
C96    C     0.05916   0.64909   0.46304   0.00000  Uiso   1.00
C97    C     0.13993   0.60859   0.52180   0.00000  Uiso   1.00
C98    C     0.88263   0.89525   0.37518   0.00000  Uiso   1.00
C99    C     0.93602   0.96515   0.33123   0.00000  Uiso   1.00
C100   C     0.91921   0.10014   0.33332   0.00000  Uiso   1.00
C101   C     0.91894   0.32066   0.31700   0.00000  Uiso   1.00
C102   C     0.76537   0.69802   0.40138   0.00000  Uiso   1.00
C103   C     0.72015   0.60212   0.37945   0.00000  Uiso   1.00
C104   C     0.60461   0.57108   0.40360   0.00000  Uiso   1.00
C105   C     0.42227   0.48537   0.42795   0.00000  Uiso   1.00
C106   C     0.76466   0.86251   0.46320   0.00000  Uiso   1.00
C107   C     0.86702   0.78980   0.46800   0.00000  Uiso   1.00
C108   C     0.89399   0.78335   0.51082   0.00000  Uiso   1.00
C109   C     0.99126   0.71189   0.50759   0.00000  Uiso   1.00
C110   C     0.81487   0.95794   0.41965   0.00000  Uiso   1.00
C111   C     0.79797   0.09285   0.42180   0.00000  Uiso   1.00
C112   C     0.85132   0.16294   0.37786   0.00000  Uiso   1.00
C113   C     0.69760   0.76071   0.44585   0.00000  Uiso   1.00
C114   C     0.58210   0.72982   0.47003   0.00000  Uiso   1.00
C115   C     0.53671   0.63388   0.44814   0.00000  Uiso   1.00
H116   H     0.94219   0.69829   0.34671   0.00000  Uiso   1.00
H117   H     0.08447   0.60716   0.38582   0.00000  Uiso   1.00
H118   H     0.98845   0.91661   0.29682   0.00000  Uiso   1.00
H119   H     0.77262   0.55363   0.34504   0.00000  Uiso   1.00
H120   H     0.21234   0.53381   0.44879   0.00000  Uiso   1.00
H121   H     0.00985   0.18630   0.26112   0.00000  Uiso   1.00
H122   H     0.55472   0.42089   0.36280   0.00000  Uiso   1.00
H123   H     0.71189   0.91132   0.49782   0.00000  Uiso   1.00
H124   H     0.84153   0.83187   0.54522   0.00000  Uiso   1.00
H125   H     0.74551   0.14133   0.45622   0.00000  Uiso   1.00
H126   H     0.52968   0.77835   0.50444   0.00000  Uiso   1.00
H127   H     0.01517   0.71620   0.57816   0.00000  Uiso   1.00
H128   H     0.81267   0.36870   0.39049   0.00000  Uiso   1.00
H129   H     0.35755   0.60328   0.49217   0.00000  Uiso   1.00
O130   O     0.20322   0.56894   0.54192   0.00000  Uiso   1.00
O131   O     0.93753   0.42497   0.29571   0.00000  Uiso   1.00
O132   O     0.34042   0.42077   0.42911   0.00000  Uiso   1.00
N133   N     0.14814   0.58762   0.47273   0.00000  Uiso   1.00
N134   N     0.95883   0.19766   0.29728   0.00000  Uiso   1.00
N135   N     0.53332   0.48209   0.39233   0.00000  Uiso   1.00
N136   N     0.04204   0.68576   0.54235   0.00000  Uiso   1.00
N137   N     0.85273   0.29580   0.36689   0.00000  Uiso   1.00
N138   N     0.42722   0.58023   0.46194   0.00000  Uiso   1.00
C139   C     0.11057   0.24709   0.11867   0.00000  Uiso   1.00
C140   C     0.06521   0.22710   0.07646   0.00000  Uiso   1.00
C141   C     0.96796   0.15565   0.07976   0.00000  Uiso   1.00
C142   C     0.94084   0.14909   0.03696   0.00000  Uiso   1.00
C143   C     0.86007   0.10859   0.97820   0.00000  Uiso   1.00
C144   C     0.11737   0.39525   0.12482   0.00000  Uiso   1.00
C145   C     0.06398   0.46515   0.16877   0.00000  Uiso   1.00
C146   C     0.08079   0.60014   0.16668   0.00000  Uiso   1.00
C147   C     0.08106   0.82066   0.18300   0.00000  Uiso   1.00
C148   C     0.23463   0.19802   0.09862   0.00000  Uiso   1.00
C149   C     0.27985   0.10212   0.12055   0.00000  Uiso   1.00
C150   C     0.39539   0.07108   0.09640   0.00000  Uiso   1.00
C151   C     0.57773   0.98537   0.07205   0.00000  Uiso   1.00
C152   C     0.23534   0.36251   0.03680   0.00000  Uiso   1.00
C153   C     0.13298   0.28980   0.03200   0.00000  Uiso   1.00
C154   C     0.10601   0.28335   0.98918   0.00000  Uiso   1.00
C155   C     0.00874   0.21189   0.99241   0.00000  Uiso   1.00
C156   C     0.18513   0.45794   0.08035   0.00000  Uiso   1.00
C157   C     0.20203   0.59285   0.07820   0.00000  Uiso   1.00
C158   C     0.14868   0.66294   0.12214   0.00000  Uiso   1.00
C159   C     0.30240   0.26071   0.05415   0.00000  Uiso   1.00
C160   C     0.41790   0.22982   0.02997   0.00000  Uiso   1.00
C161   C     0.46329   0.13388   0.05186   0.00000  Uiso   1.00
H162   H     0.05781   0.19829   0.15329   0.00000  Uiso   1.00
H163   H     0.91553   0.10716   0.11418   0.00000  Uiso   1.00
H164   H     0.01155   0.41661   0.20318   0.00000  Uiso   1.00
H165   H     0.22738   0.05363   0.15496   0.00000  Uiso   1.00
H166   H     0.78766   0.03381   0.05121   0.00000  Uiso   1.00
H167   H     0.99015   0.68630   0.23888   0.00000  Uiso   1.00
H168   H     0.44528   0.92089   0.13720   0.00000  Uiso   1.00
H169   H     0.28811   0.41132   0.00218   0.00000  Uiso   1.00
H170   H     0.15847   0.33187   0.95478   0.00000  Uiso   1.00
H171   H     0.25449   0.64133   0.04378   0.00000  Uiso   1.00
H172   H     0.47032   0.27835   0.99556   0.00000  Uiso   1.00
H173   H     0.98483   0.21620   0.92184   0.00000  Uiso   1.00
H174   H     0.18733   0.86870   0.10951   0.00000  Uiso   1.00
H175   H     0.64245   0.10328   0.00783   0.00000  Uiso   1.00
O176   O     0.79678   0.06894   0.95808   0.00000  Uiso   1.00
O177   O     0.06247   0.92497   0.20429   0.00000  Uiso   1.00
O178   O     0.65958   0.92077   0.07089   0.00000  Uiso   1.00
N179   N     0.85186   0.08762   0.02727   0.00000  Uiso   1.00
N180   N     0.04117   0.69766   0.20272   0.00000  Uiso   1.00
N181   N     0.46668   0.98209   0.10767   0.00000  Uiso   1.00
N182   N     0.95796   0.18576   0.95765   0.00000  Uiso   1.00
N183   N     0.14727   0.79580   0.13311   0.00000  Uiso   1.00
N184   N     0.57278   0.08023   0.03806   0.00000  Uiso   1.00
