data_job_01656
_audit_creation_date              2018-12-19
_audit_creation_method            'Materials Studio'
_symmetry_space_group_name_H-M    'P1'
_symmetry_Int_Tables_number       1
_symmetry_cell_setting            triclinic
loop_
_symmetry_equiv_pos_as_xyz
  x,y,z
_cell_length_a                    13.3678
_cell_length_b                    18.5620
_cell_length_c                    10.3586
_cell_angle_alpha                 90.0000
_cell_angle_beta                  90.0000
_cell_angle_gamma                 90.0000
loop_
_atom_site_label
_atom_site_type_symbol
_atom_site_fract_x
_atom_site_fract_y
_atom_site_fract_z
_atom_site_U_iso_or_equiv
_atom_site_adp_type
_atom_site_occupancy
C1     C     0.22682   0.45361   0.92753   0.00000  Uiso   1.00
C2     C     0.14894   0.41572   0.01095   0.00000  Uiso   1.00
C3     C     0.06151   0.38387   0.96665   0.00000  Uiso   1.00
C4     C     0.00004   0.35199   0.05834   0.00000  Uiso   1.00
C5     C     0.87525   0.29319   0.16792   0.00000  Uiso   1.00
C6     C     0.23740   0.52938   0.98273   0.00000  Uiso   1.00
C7     C     0.22437   0.59310   0.91468   0.00000  Uiso   1.00
C8     C     0.23738   0.65690   0.98261   0.00000  Uiso   1.00
C9     C     0.25001   0.77457   0.04835   0.00000  Uiso   1.00
C10    C     0.32586   0.41572   0.95449   0.00000  Uiso   1.00
C11    C     0.38722   0.38389   0.86270   0.00000  Uiso   1.00
C12    C     0.47473   0.35201   0.90685   0.00000  Uiso   1.00
C13    C     0.62470   0.29320   0.92874   0.00000  Uiso   1.00
C14    C     0.27313   0.45360   0.16915   0.00000  Uiso   1.00
C15    C     0.17409   0.41572   0.14219   0.00000  Uiso   1.00
C16    C     0.11274   0.38387   0.23398   0.00000  Uiso   1.00
C17    C     0.02524   0.35198   0.18982   0.00000  Uiso   1.00
C18    C     0.26255   0.52938   0.11396   0.00000  Uiso   1.00
C19    C     0.27560   0.59310   0.18201   0.00000  Uiso   1.00
C20    C     0.26258   0.65690   0.11409   0.00000  Uiso   1.00
C21    C     0.35101   0.41572   0.08573   0.00000  Uiso   1.00
C22    C     0.43845   0.38389   0.13003   0.00000  Uiso   1.00
C23    C     0.49993   0.35201   0.03833   0.00000  Uiso   1.00
H24    H     0.20724   0.45361   0.82535   0.00000  Uiso   1.00
H25    H     0.04207   0.38389   0.86508   0.00000  Uiso   1.00
H26    H     0.20491   0.59309   0.81312   0.00000  Uiso   1.00
H27    H     0.36774   0.38390   0.76115   0.00000  Uiso   1.00
H28    H     0.87001   0.30662   0.96700   0.00000  Uiso   1.00
H29    H     0.21341   0.74772   0.85743   0.00000  Uiso   1.00
H30    H     0.55676   0.30661   0.74783   0.00000  Uiso   1.00
H31    H     0.29271   0.45361   0.27133   0.00000  Uiso   1.00
H32    H     0.13222   0.38388   0.33553   0.00000  Uiso   1.00
H33    H     0.29507   0.59308   0.28357   0.00000  Uiso   1.00
H34    H     0.45789   0.38389   0.23159   0.00000  Uiso   1.00
H35    H     0.94318   0.30661   0.34884   0.00000  Uiso   1.00
H36    H     0.28659   0.74771   0.23927   0.00000  Uiso   1.00
H37    H     0.62993   0.30661   0.12967   0.00000  Uiso   1.00
O38    O     0.79946   0.26077   0.19211   0.00000  Uiso   1.00
O39    O     0.25001   0.83947   0.04835   0.00000  Uiso   1.00
O40    O     0.70047   0.26075   0.90456   0.00000  Uiso   1.00
N41    N     0.90927   0.31617   0.04805   0.00000  Uiso   1.00
N42    N     0.23031   0.72858   0.94562   0.00000  Uiso   1.00
N43    N     0.55133   0.31619   0.84315   0.00000  Uiso   1.00
N44    N     0.94864   0.31617   0.25352   0.00000  Uiso   1.00
N45    N     0.26968   0.72857   0.15108   0.00000  Uiso   1.00
N46    N     0.59070   0.31619   0.04861   0.00000  Uiso   1.00
C47    C     0.77318   0.54639   0.42753   0.00000  Uiso   1.00
C48    C     0.85106   0.58428   0.51095   0.00000  Uiso   1.00
C49    C     0.93849   0.61613   0.46665   0.00000  Uiso   1.00
C50    C     0.99996   0.64801   0.55834   0.00000  Uiso   1.00
C51    C     0.12475   0.70681   0.66792   0.00000  Uiso   1.00
C52    C     0.76260   0.47062   0.48273   0.00000  Uiso   1.00
C53    C     0.77563   0.40690   0.41468   0.00000  Uiso   1.00
C54    C     0.76262   0.34310   0.48261   0.00000  Uiso   1.00
C55    C     0.74999   0.22543   0.54835   0.00000  Uiso   1.00
C56    C     0.67414   0.58428   0.45449   0.00000  Uiso   1.00
C57    C     0.61278   0.61611   0.36270   0.00000  Uiso   1.00
C58    C     0.52527   0.64799   0.40685   0.00000  Uiso   1.00
C59    C     0.37530   0.70680   0.42874   0.00000  Uiso   1.00
C60    C     0.72687   0.54640   0.66915   0.00000  Uiso   1.00
C61    C     0.82591   0.58428   0.64219   0.00000  Uiso   1.00
C62    C     0.88726   0.61613   0.73398   0.00000  Uiso   1.00
C63    C     0.97476   0.64802   0.68982   0.00000  Uiso   1.00
C64    C     0.73745   0.47062   0.61396   0.00000  Uiso   1.00
C65    C     0.72440   0.40690   0.68201   0.00000  Uiso   1.00
C66    C     0.73742   0.34310   0.61409   0.00000  Uiso   1.00
C67    C     0.64899   0.58428   0.58573   0.00000  Uiso   1.00
C68    C     0.56155   0.61611   0.63003   0.00000  Uiso   1.00
C69    C     0.50007   0.64799   0.53833   0.00000  Uiso   1.00
H70    H     0.79276   0.54639   0.32535   0.00000  Uiso   1.00
H71    H     0.95793   0.61611   0.36508   0.00000  Uiso   1.00
H72    H     0.79509   0.40691   0.31312   0.00000  Uiso   1.00
H73    H     0.63226   0.61610   0.26115   0.00000  Uiso   1.00
H74    H     0.12999   0.69338   0.46700   0.00000  Uiso   1.00
H75    H     0.78659   0.25228   0.35743   0.00000  Uiso   1.00
H76    H     0.44324   0.69339   0.24783   0.00000  Uiso   1.00
H77    H     0.70729   0.54639   0.77133   0.00000  Uiso   1.00
H78    H     0.86778   0.61612   0.83553   0.00000  Uiso   1.00
H79    H     0.70493   0.40692   0.78357   0.00000  Uiso   1.00
H80    H     0.54211   0.61611   0.73159   0.00000  Uiso   1.00
H81    H     0.05682   0.69339   0.84884   0.00000  Uiso   1.00
H82    H     0.71341   0.25229   0.73927   0.00000  Uiso   1.00
H83    H     0.37007   0.69339   0.62967   0.00000  Uiso   1.00
O84    O     0.20054   0.73923   0.69211   0.00000  Uiso   1.00
O85    O     0.74999   0.16053   0.54835   0.00000  Uiso   1.00
O86    O     0.29953   0.73925   0.40456   0.00000  Uiso   1.00
N87    N     0.09073   0.68383   0.54805   0.00000  Uiso   1.00
N88    N     0.76969   0.27142   0.44562   0.00000  Uiso   1.00
N89    N     0.44867   0.68381   0.34315   0.00000  Uiso   1.00
N90    N     0.05136   0.68383   0.75352   0.00000  Uiso   1.00
N91    N     0.73032   0.27143   0.65108   0.00000  Uiso   1.00
N92    N     0.40930   0.68381   0.54861   0.00000  Uiso   1.00
C93    C     0.72682   0.04639   0.92753   0.00000  Uiso   1.00
C94    C     0.64894   0.08428   0.01095   0.00000  Uiso   1.00
C95    C     0.56151   0.11613   0.96665   0.00000  Uiso   1.00
C96    C     0.50004   0.14801   0.05834   0.00000  Uiso   1.00
C97    C     0.37525   0.20681   0.16792   0.00000  Uiso   1.00
C98    C     0.73740   0.97062   0.98273   0.00000  Uiso   1.00
C99    C     0.72437   0.90690   0.91468   0.00000  Uiso   1.00
C100   C     0.73738   0.84310   0.98261   0.00000  Uiso   1.00
C101   C     0.75001   0.72543   0.04835   0.00000  Uiso   1.00
C102   C     0.82586   0.08428   0.95449   0.00000  Uiso   1.00
C103   C     0.88722   0.11611   0.86270   0.00000  Uiso   1.00
C104   C     0.97473   0.14799   0.90685   0.00000  Uiso   1.00
C105   C     0.12470   0.20680   0.92874   0.00000  Uiso   1.00
C106   C     0.77313   0.04640   0.16915   0.00000  Uiso   1.00
C107   C     0.67409   0.08428   0.14219   0.00000  Uiso   1.00
C108   C     0.61274   0.11613   0.23398   0.00000  Uiso   1.00
C109   C     0.52524   0.14802   0.18982   0.00000  Uiso   1.00
C110   C     0.76255   0.97062   0.11396   0.00000  Uiso   1.00
C111   C     0.77560   0.90690   0.18201   0.00000  Uiso   1.00
C112   C     0.76258   0.84310   0.11409   0.00000  Uiso   1.00
C113   C     0.85101   0.08428   0.08573   0.00000  Uiso   1.00
C114   C     0.93845   0.11611   0.13003   0.00000  Uiso   1.00
C115   C     0.99993   0.14799   0.03833   0.00000  Uiso   1.00
H116   H     0.70724   0.04639   0.82535   0.00000  Uiso   1.00
H117   H     0.54207   0.11611   0.86508   0.00000  Uiso   1.00
H118   H     0.70491   0.90691   0.81312   0.00000  Uiso   1.00
H119   H     0.86774   0.11610   0.76115   0.00000  Uiso   1.00
H120   H     0.37001   0.19338   0.96700   0.00000  Uiso   1.00
H121   H     0.71341   0.75228   0.85743   0.00000  Uiso   1.00
H122   H     0.05676   0.19339   0.74783   0.00000  Uiso   1.00
H123   H     0.79271   0.04639   0.27133   0.00000  Uiso   1.00
H124   H     0.63222   0.11612   0.33553   0.00000  Uiso   1.00
H125   H     0.79507   0.90692   0.28357   0.00000  Uiso   1.00
H126   H     0.95789   0.11611   0.23159   0.00000  Uiso   1.00
H127   H     0.44318   0.19339   0.34884   0.00000  Uiso   1.00
H128   H     0.78659   0.75229   0.23927   0.00000  Uiso   1.00
H129   H     0.12993   0.19339   0.12967   0.00000  Uiso   1.00
O130   O     0.29946   0.23923   0.19211   0.00000  Uiso   1.00
O131   O     0.75001   0.66053   0.04835   0.00000  Uiso   1.00
O132   O     0.20047   0.23925   0.90456   0.00000  Uiso   1.00
N133   N     0.40927   0.18383   0.04805   0.00000  Uiso   1.00
N134   N     0.73031   0.77142   0.94562   0.00000  Uiso   1.00
N135   N     0.05133   0.18381   0.84315   0.00000  Uiso   1.00
N136   N     0.44864   0.18383   0.25352   0.00000  Uiso   1.00
N137   N     0.76968   0.77143   0.15108   0.00000  Uiso   1.00
N138   N     0.09070   0.18381   0.04861   0.00000  Uiso   1.00
C139   C     0.27318   0.95361   0.42753   0.00000  Uiso   1.00
C140   C     0.35106   0.91572   0.51095   0.00000  Uiso   1.00
C141   C     0.43849   0.88387   0.46665   0.00000  Uiso   1.00
C142   C     0.49996   0.85199   0.55834   0.00000  Uiso   1.00
C143   C     0.62475   0.79319   0.66792   0.00000  Uiso   1.00
C144   C     0.26260   0.02938   0.48273   0.00000  Uiso   1.00
C145   C     0.27563   0.09310   0.41468   0.00000  Uiso   1.00
C146   C     0.26262   0.15690   0.48261   0.00000  Uiso   1.00
C147   C     0.24999   0.27457   0.54835   0.00000  Uiso   1.00
C148   C     0.17414   0.91572   0.45449   0.00000  Uiso   1.00
C149   C     0.11278   0.88389   0.36270   0.00000  Uiso   1.00
C150   C     0.02527   0.85201   0.40685   0.00000  Uiso   1.00
C151   C     0.87530   0.79320   0.42874   0.00000  Uiso   1.00
C152   C     0.22687   0.95360   0.66915   0.00000  Uiso   1.00
C153   C     0.32591   0.91572   0.64219   0.00000  Uiso   1.00
C154   C     0.38726   0.88387   0.73398   0.00000  Uiso   1.00
C155   C     0.47476   0.85198   0.68982   0.00000  Uiso   1.00
C156   C     0.23745   0.02938   0.61396   0.00000  Uiso   1.00
C157   C     0.22440   0.09310   0.68201   0.00000  Uiso   1.00
C158   C     0.23742   0.15690   0.61409   0.00000  Uiso   1.00
C159   C     0.14899   0.91572   0.58573   0.00000  Uiso   1.00
C160   C     0.06155   0.88389   0.63003   0.00000  Uiso   1.00
C161   C     0.00007   0.85201   0.53833   0.00000  Uiso   1.00
H162   H     0.29276   0.95361   0.32535   0.00000  Uiso   1.00
H163   H     0.45793   0.88389   0.36508   0.00000  Uiso   1.00
H164   H     0.29509   0.09309   0.31312   0.00000  Uiso   1.00
H165   H     0.13226   0.88390   0.26115   0.00000  Uiso   1.00
H166   H     0.62999   0.80662   0.46700   0.00000  Uiso   1.00
H167   H     0.28659   0.24772   0.35743   0.00000  Uiso   1.00
H168   H     0.94324   0.80661   0.24783   0.00000  Uiso   1.00
H169   H     0.20729   0.95361   0.77133   0.00000  Uiso   1.00
H170   H     0.36778   0.88388   0.83553   0.00000  Uiso   1.00
H171   H     0.20493   0.09308   0.78357   0.00000  Uiso   1.00
H172   H     0.04211   0.88389   0.73159   0.00000  Uiso   1.00
H173   H     0.55682   0.80661   0.84884   0.00000  Uiso   1.00
H174   H     0.21341   0.24771   0.73927   0.00000  Uiso   1.00
H175   H     0.87007   0.80661   0.62967   0.00000  Uiso   1.00
O176   O     0.70054   0.76077   0.69211   0.00000  Uiso   1.00
O177   O     0.24999   0.33947   0.54835   0.00000  Uiso   1.00
O178   O     0.79953   0.76075   0.40456   0.00000  Uiso   1.00
N179   N     0.59073   0.81617   0.54805   0.00000  Uiso   1.00
N180   N     0.26969   0.22858   0.44562   0.00000  Uiso   1.00
N181   N     0.94867   0.81619   0.34315   0.00000  Uiso   1.00
N182   N     0.55136   0.81617   0.75352   0.00000  Uiso   1.00
N183   N     0.23032   0.22857   0.65108   0.00000  Uiso   1.00
N184   N     0.90930   0.81619   0.54861   0.00000  Uiso   1.00
