data_job_06111
_audit_creation_date              2018-12-19
_audit_creation_method            'Materials Studio'
_symmetry_space_group_name_H-M    'P1'
_symmetry_Int_Tables_number       1
_symmetry_cell_setting            triclinic
loop_
_symmetry_equiv_pos_as_xyz
  x,y,z
_cell_length_a                    17.3698
_cell_length_b                    17.4651
_cell_length_c                    17.4921
_cell_angle_alpha                 108.5400
_cell_angle_beta                  108.7570
_cell_angle_gamma                 108.7510
loop_
_atom_site_label
_atom_site_type_symbol
_atom_site_fract_x
_atom_site_fract_y
_atom_site_fract_z
_atom_site_U_iso_or_equiv
_atom_site_adp_type
_atom_site_occupancy
C1     C     0.34791   0.65835   0.92066   0.00000  Uiso   1.00
C2     C     0.32809   0.65629   0.99902   0.00000  Uiso   1.00
C3     C     0.32385   0.59064   0.02831   0.00000  Uiso   1.00
C4     C     0.30482   0.60087   0.10113   0.00000  Uiso   1.00
C5     C     0.27617   0.58649   0.21639   0.00000  Uiso   1.00
C6     C     0.26660   0.65990   0.85461   0.00000  Uiso   1.00
C7     C     0.21067   0.59730   0.76248   0.00000  Uiso   1.00
C8     C     0.13988   0.61059   0.71373   0.00000  Uiso   1.00
C9     C     0.01581   0.60186   0.60478   0.00000  Uiso   1.00
C10    C     0.43104   0.75132   0.96128   0.00000  Uiso   1.00
C11    C     0.51336   0.76558   0.95882   0.00000  Uiso   1.00
C12    C     0.58101   0.85584   0.99986   0.00000  Uiso   1.00
C13    C     0.71225   0.98904   0.05653   0.00000  Uiso   1.00
C14    C     0.32166   0.79326   0.99790   0.00000  Uiso   1.00
C15    C     0.31383   0.72956   0.04097   0.00000  Uiso   1.00
C16    C     0.29481   0.73990   0.11377   0.00000  Uiso   1.00
C17    C     0.29054   0.67428   0.14316   0.00000  Uiso   1.00
C18    C     0.25234   0.73318   0.89656   0.00000  Uiso   1.00
C19    C     0.18162   0.74656   0.84794   0.00000  Uiso   1.00
C20    C     0.12560   0.68400   0.75576   0.00000  Uiso   1.00
C21    C     0.41678   0.82459   0.00324   0.00000  Uiso   1.00
C22    C     0.48431   0.91484   0.04428   0.00000  Uiso   1.00
C23    C     0.56673   0.92924   0.04189   0.00000  Uiso   1.00
H24    H     0.35901   0.60131   0.88800   0.00000  Uiso   1.00
H25    H     0.33488   0.53394   0.99582   0.00000  Uiso   1.00
H26    H     0.22173   0.54061   0.73003   0.00000  Uiso   1.00
H27    H     0.52437   0.70886   0.92635   0.00000  Uiso   1.00
H28    H     0.30182   0.49155   0.13384   0.00000  Uiso   1.00
H29    H     0.06324   0.50563   0.57341   0.00000  Uiso   1.00
H30    H     0.70142   0.86042   0.98737   0.00000  Uiso   1.00
H31    H     0.31055   0.85031   0.03057   0.00000  Uiso   1.00
H32    H     0.28377   0.79661   0.14622   0.00000  Uiso   1.00
H33    H     0.17061   0.80328   0.88043   0.00000  Uiso   1.00
H34    H     0.47326   0.97153   0.07674   0.00000  Uiso   1.00
H35    H     0.26032   0.70474   0.25591   0.00000  Uiso   1.00
H36    H     0.02175   0.71882   0.69547   0.00000  Uiso   1.00
H37    H     0.65993   0.07362   0.10944   0.00000  Uiso   1.00
O38    O     0.26430   0.55831   0.26836   0.00000  Uiso   1.00
O39    O     0.95130   0.57679   0.53309   0.00000  Uiso   1.00
O40    O     0.78859   0.04227   0.07620   0.00000  Uiso   1.00
N41    N     0.29574   0.54910   0.14671   0.00000  Uiso   1.00
N42    N     0.07268   0.56226   0.62274   0.00000  Uiso   1.00
N43    N     0.66932   0.89396   0.00974   0.00000  Uiso   1.00
N44    N     0.27342   0.66382   0.21240   0.00000  Uiso   1.00
N45    N     0.05035   0.67698   0.68842   0.00000  Uiso   1.00
N46    N     0.64700   0.00868   0.07542   0.00000  Uiso   1.00
C47    C     0.92016   0.34641   0.65801   0.00000  Uiso   1.00
C48    C     0.99941   0.32713   0.65648   0.00000  Uiso   1.00
C49    C     0.02903   0.32315   0.59115   0.00000  Uiso   1.00
C50    C     0.10268   0.30460   0.60186   0.00000  Uiso   1.00
C51    C     0.21926   0.27675   0.58828   0.00000  Uiso   1.00
C52    C     0.85377   0.26547   0.65956   0.00000  Uiso   1.00
C53    C     0.76093   0.20965   0.59682   0.00000  Uiso   1.00
C54    C     0.71198   0.13921   0.61013   0.00000  Uiso   1.00
C55    C     0.60243   0.01567   0.60138   0.00000  Uiso   1.00
C56    C     0.96083   0.42892   0.75064   0.00000  Uiso   1.00
C57    C     0.95799   0.51053   0.76448   0.00000  Uiso   1.00
C58    C     0.99916   0.57769   0.85448   0.00000  Uiso   1.00
C59    C     0.05584   0.70793   0.98713   0.00000  Uiso   1.00
C60    C     0.99830   0.32056   0.79321   0.00000  Uiso   1.00
C61    C     0.04186   0.31308   0.72991   0.00000  Uiso   1.00
C62    C     0.11549   0.29454   0.74073   0.00000  Uiso   1.00
C63    C     0.14521   0.29054   0.67542   0.00000  Uiso   1.00
C64    C     0.89621   0.25142   0.73299   0.00000  Uiso   1.00
C65    C     0.84739   0.18105   0.74640   0.00000  Uiso   1.00
C66    C     0.75450   0.12514   0.68370   0.00000  Uiso   1.00
C67    C     0.00328   0.41488   0.82407   0.00000  Uiso   1.00
C68    C     0.04445   0.48192   0.91406   0.00000  Uiso   1.00
C69    C     0.04168   0.56362   0.92804   0.00000  Uiso   1.00
H70    H     0.88711   0.35734   0.60084   0.00000  Uiso   1.00
H71    H     0.99616   0.33401   0.53433   0.00000  Uiso   1.00
H72    H     0.72810   0.22054   0.54001   0.00000  Uiso   1.00
H73    H     0.92514   0.52137   0.70764   0.00000  Uiso   1.00
H74    H     0.13575   0.30192   0.49295   0.00000  Uiso   1.00
H75    H     0.57053   0.06268   0.50494   0.00000  Uiso   1.00
H76    H     0.98602   0.69703   0.85843   0.00000  Uiso   1.00
H77    H     0.03135   0.30962   0.85038   0.00000  Uiso   1.00
H78    H     0.14832   0.28368   0.79756   0.00000  Uiso   1.00
H79    H     0.88026   0.17020   0.80324   0.00000  Uiso   1.00
H80    H     0.07730   0.47103   0.97087   0.00000  Uiso   1.00
H81    H     0.25925   0.26106   0.70659   0.00000  Uiso   1.00
H82    H     0.69403   0.02182   0.71859   0.00000  Uiso   1.00
H83    H     0.10952   0.65618   0.07208   0.00000  Uiso   1.00
O84    O     0.27182   0.26525   0.56050   0.00000  Uiso   1.00
O85    O     0.53028   0.95140   0.57625   0.00000  Uiso   1.00
O86    O     0.07539   0.78365   0.04002   0.00000  Uiso   1.00
N87    N     0.14878   0.29588   0.55049   0.00000  Uiso   1.00
N88    N     0.62033   0.07220   0.56170   0.00000  Uiso   1.00
N89    N     0.00876   0.66526   0.89218   0.00000  Uiso   1.00
N90    N     0.21523   0.27390   0.66545   0.00000  Uiso   1.00
N91    N     0.68679   0.05022   0.67666   0.00000  Uiso   1.00
N92    N     0.07521   0.64327   0.00714   0.00000  Uiso   1.00
C93    C     0.65714   0.91947   0.34536   0.00000  Uiso   1.00
C94    C     0.65525   0.99809   0.32574   0.00000  Uiso   1.00
C95    C     0.58912   0.02716   0.32126   0.00000  Uiso   1.00
C96    C     0.59962   0.10027   0.30247   0.00000  Uiso   1.00
C97    C     0.58541   0.21586   0.27406   0.00000  Uiso   1.00
C98    C     0.65900   0.85375   0.26488   0.00000  Uiso   1.00
C99    C     0.59601   0.76146   0.20925   0.00000  Uiso   1.00
C100   C     0.60967   0.71307   0.13925   0.00000  Uiso   1.00
C101   C     0.60131   0.60456   0.01640   0.00000  Uiso   1.00
C102   C     0.75055   0.96014   0.42803   0.00000  Uiso   1.00
C103   C     0.76455   0.95727   0.50957   0.00000  Uiso   1.00
C104   C     0.85529   0.99844   0.57692   0.00000  Uiso   1.00
C105   C     0.98907   0.05509   0.70738   0.00000  Uiso   1.00
C106   C     0.79340   0.99764   0.31996   0.00000  Uiso   1.00
C107   C     0.72927   0.04054   0.31194   0.00000  Uiso   1.00
C108   C     0.73988   0.11364   0.29316   0.00000  Uiso   1.00
C109   C     0.67377   0.14281   0.28865   0.00000  Uiso   1.00
C110   C     0.73300   0.89620   0.25108   0.00000  Uiso   1.00
C111   C     0.74677   0.84794   0.18115   0.00000  Uiso   1.00
C112   C     0.68382   0.75560   0.12542   0.00000  Uiso   1.00
C113   C     0.82456   0.00259   0.41424   0.00000  Uiso   1.00
C114   C     0.91530   0.04376   0.48147   0.00000  Uiso   1.00
C115   C     0.92944   0.04096   0.56309   0.00000  Uiso   1.00
H116   H     0.59952   0.88642   0.35609   0.00000  Uiso   1.00
H117   H     0.53185   0.99428   0.33193   0.00000  Uiso   1.00
H118   H     0.53875   0.72863   0.21995   0.00000  Uiso   1.00
H119   H     0.70726   0.92442   0.52022   0.00000  Uiso   1.00
H120   H     0.48944   0.13257   0.29903   0.00000  Uiso   1.00
H121   H     0.50401   0.57241   0.06293   0.00000  Uiso   1.00
H122   H     0.85934   0.98527   0.69611   0.00000  Uiso   1.00
H123   H     0.85103   0.03069   0.30921   0.00000  Uiso   1.00
H124   H     0.79716   0.14648   0.28248   0.00000  Uiso   1.00
H125   H     0.80405   0.88082   0.17050   0.00000  Uiso   1.00
H126   H     0.97256   0.07661   0.47077   0.00000  Uiso   1.00
H127   H     0.70477   0.25609   0.25889   0.00000  Uiso   1.00
H128   H     0.71934   0.69593   0.02279   0.00000  Uiso   1.00
H129   H     0.07467   0.10879   0.65596   0.00000  Uiso   1.00
O130   O     0.55712   0.26787   0.26219   0.00000  Uiso   1.00
O131   O     0.57623   0.53297   0.95245   0.00000  Uiso   1.00
O132   O     0.04242   0.07463   0.78316   0.00000  Uiso   1.00
N133   N     0.54752   0.14576   0.29327   0.00000  Uiso   1.00
N134   N     0.56113   0.62205   0.07252   0.00000  Uiso   1.00
N135   N     0.89334   0.00801   0.66448   0.00000  Uiso   1.00
N136   N     0.66339   0.21223   0.27167   0.00000  Uiso   1.00
N137   N     0.67700   0.68852   0.05092   0.00000  Uiso   1.00
N138   N     0.00921   0.07448   0.64288   0.00000  Uiso   1.00
C139   C     0.65209   0.34165   0.07934   0.00000  Uiso   1.00
C140   C     0.67191   0.34371   0.00098   0.00000  Uiso   1.00
C141   C     0.67615   0.40936   0.97169   0.00000  Uiso   1.00
C142   C     0.69518   0.39913   0.89887   0.00000  Uiso   1.00
C143   C     0.72383   0.41351   0.78361   0.00000  Uiso   1.00
C144   C     0.73340   0.34010   0.14539   0.00000  Uiso   1.00
C145   C     0.78933   0.40270   0.23752   0.00000  Uiso   1.00
C146   C     0.86012   0.38941   0.28627   0.00000  Uiso   1.00
C147   C     0.98419   0.39814   0.39522   0.00000  Uiso   1.00
C148   C     0.56896   0.24868   0.03872   0.00000  Uiso   1.00
C149   C     0.48664   0.23442   0.04118   0.00000  Uiso   1.00
C150   C     0.41899   0.14416   0.00014   0.00000  Uiso   1.00
C151   C     0.28775   0.01096   0.94347   0.00000  Uiso   1.00
C152   C     0.67834   0.20674   0.00210   0.00000  Uiso   1.00
C153   C     0.68617   0.27044   0.95903   0.00000  Uiso   1.00
C154   C     0.70520   0.26010   0.88623   0.00000  Uiso   1.00
C155   C     0.70946   0.32572   0.85684   0.00000  Uiso   1.00
C156   C     0.74766   0.26682   0.10344   0.00000  Uiso   1.00
C157   C     0.81838   0.25344   0.15206   0.00000  Uiso   1.00
C158   C     0.87440   0.31600   0.24424   0.00000  Uiso   1.00
C159   C     0.58322   0.17541   0.99676   0.00000  Uiso   1.00
C160   C     0.51569   0.08516   0.95572   0.00000  Uiso   1.00
C161   C     0.43327   0.07076   0.95811   0.00000  Uiso   1.00
H162   H     0.64099   0.39870   0.11200   0.00000  Uiso   1.00
H163   H     0.66512   0.46606   0.00418   0.00000  Uiso   1.00
H164   H     0.77827   0.45939   0.26997   0.00000  Uiso   1.00
H165   H     0.47563   0.29114   0.07365   0.00000  Uiso   1.00
H166   H     0.69818   0.50845   0.86616   0.00000  Uiso   1.00
H167   H     0.93676   0.49437   0.42659   0.00000  Uiso   1.00
H168   H     0.29858   0.13958   0.01263   0.00000  Uiso   1.00
H169   H     0.68945   0.14969   0.96944   0.00000  Uiso   1.00
H170   H     0.71623   0.20339   0.85378   0.00000  Uiso   1.00
H171   H     0.82939   0.19672   0.11957   0.00000  Uiso   1.00
H172   H     0.52674   0.02847   0.92326   0.00000  Uiso   1.00
H173   H     0.73968   0.29526   0.74409   0.00000  Uiso   1.00
H174   H     0.97825   0.28118   0.30453   0.00000  Uiso   1.00
H175   H     0.34007   0.92639   0.89056   0.00000  Uiso   1.00
O176   O     0.73570   0.44169   0.73164   0.00000  Uiso   1.00
O177   O     0.04870   0.42321   0.46691   0.00000  Uiso   1.00
O178   O     0.21141   0.95773   0.92380   0.00000  Uiso   1.00
N179   N     0.70426   0.45090   0.85329   0.00000  Uiso   1.00
N180   N     0.92732   0.43774   0.37726   0.00000  Uiso   1.00
N181   N     0.33068   0.10604   0.99026   0.00000  Uiso   1.00
N182   N     0.72658   0.33618   0.78760   0.00000  Uiso   1.00
N183   N     0.94965   0.32302   0.31158   0.00000  Uiso   1.00
N184   N     0.35300   0.99132   0.92458   0.00000  Uiso   1.00
C185   C     0.07984   0.65359   0.34199   0.00000  Uiso   1.00
C186   C     0.00059   0.67287   0.34352   0.00000  Uiso   1.00
C187   C     0.97097   0.67685   0.40885   0.00000  Uiso   1.00
C188   C     0.89732   0.69540   0.39814   0.00000  Uiso   1.00
C189   C     0.78074   0.72326   0.41172   0.00000  Uiso   1.00
C190   C     0.14623   0.73453   0.34044   0.00000  Uiso   1.00
C191   C     0.23907   0.79035   0.40318   0.00000  Uiso   1.00
C192   C     0.28802   0.86079   0.38987   0.00000  Uiso   1.00
C193   C     0.39757   0.98433   0.39862   0.00000  Uiso   1.00
C194   C     0.03917   0.57108   0.24936   0.00000  Uiso   1.00
C195   C     0.04201   0.48947   0.23552   0.00000  Uiso   1.00
C196   C     0.00084   0.42231   0.14552   0.00000  Uiso   1.00
C197   C     0.94416   0.29207   0.01287   0.00000  Uiso   1.00
C198   C     0.00170   0.67944   0.20679   0.00000  Uiso   1.00
C199   C     0.95814   0.68692   0.27009   0.00000  Uiso   1.00
C200   C     0.88451   0.70546   0.25927   0.00000  Uiso   1.00
C201   C     0.85479   0.70947   0.32458   0.00000  Uiso   1.00
C202   C     0.10379   0.74858   0.26701   0.00000  Uiso   1.00
C203   C     0.15261   0.81895   0.25360   0.00000  Uiso   1.00
C204   C     0.24550   0.87486   0.31630   0.00000  Uiso   1.00
C205   C     0.99672   0.58512   0.17593   0.00000  Uiso   1.00
C206   C     0.95555   0.51808   0.08594   0.00000  Uiso   1.00
C207   C     0.95832   0.43638   0.07196   0.00000  Uiso   1.00
H208   H     0.11289   0.64266   0.39916   0.00000  Uiso   1.00
H209   H     0.00384   0.66599   0.46567   0.00000  Uiso   1.00
H210   H     0.27190   0.77946   0.45999   0.00000  Uiso   1.00
H211   H     0.07486   0.47863   0.29236   0.00000  Uiso   1.00
H212   H     0.86425   0.69809   0.50705   0.00000  Uiso   1.00
H213   H     0.42947   0.93732   0.49506   0.00000  Uiso   1.00
H214   H     0.01398   0.30297   0.14157   0.00000  Uiso   1.00
H215   H     0.96865   0.69038   0.14962   0.00000  Uiso   1.00
H216   H     0.85168   0.71632   0.20244   0.00000  Uiso   1.00
H217   H     0.11974   0.82979   0.19676   0.00000  Uiso   1.00
H218   H     0.92270   0.52897   0.02913   0.00000  Uiso   1.00
H219   H     0.74075   0.73894   0.29341   0.00000  Uiso   1.00
H220   H     0.30597   0.97818   0.28141   0.00000  Uiso   1.00
H221   H     0.89048   0.34382   0.92792   0.00000  Uiso   1.00
O222   O     0.72818   0.73475   0.43950   0.00000  Uiso   1.00
O223   O     0.46972   0.04860   0.42375   0.00000  Uiso   1.00
O224   O     0.92461   0.21635   0.95998   0.00000  Uiso   1.00
N225   N     0.85122   0.70412   0.44951   0.00000  Uiso   1.00
N226   N     0.37967   0.92780   0.43830   0.00000  Uiso   1.00
N227   N     0.99124   0.33474   0.10782   0.00000  Uiso   1.00
N228   N     0.78477   0.72610   0.33455   0.00000  Uiso   1.00
N229   N     0.31321   0.94978   0.32334   0.00000  Uiso   1.00
N230   N     0.92479   0.35673   0.99286   0.00000  Uiso   1.00
C231   C     0.34286   0.08053   0.65464   0.00000  Uiso   1.00
C232   C     0.34474   0.00191   0.67426   0.00000  Uiso   1.00
C233   C     0.41088   0.97284   0.67874   0.00000  Uiso   1.00
C234   C     0.40038   0.89973   0.69753   0.00000  Uiso   1.00
C235   C     0.41459   0.78414   0.72594   0.00000  Uiso   1.00
C236   C     0.34100   0.14625   0.73512   0.00000  Uiso   1.00
C237   C     0.40399   0.23854   0.79075   0.00000  Uiso   1.00
C238   C     0.39033   0.28693   0.86075   0.00000  Uiso   1.00
C239   C     0.39869   0.39544   0.98360   0.00000  Uiso   1.00
C240   C     0.24945   0.03986   0.57197   0.00000  Uiso   1.00
C241   C     0.23545   0.04273   0.49043   0.00000  Uiso   1.00
C242   C     0.14471   0.00156   0.42308   0.00000  Uiso   1.00
C243   C     0.01093   0.94491   0.29262   0.00000  Uiso   1.00
C244   C     0.20660   0.00236   0.68005   0.00000  Uiso   1.00
C245   C     0.27073   0.95946   0.68806   0.00000  Uiso   1.00
C246   C     0.26012   0.88636   0.70684   0.00000  Uiso   1.00
C247   C     0.32623   0.85719   0.71135   0.00000  Uiso   1.00
C248   C     0.26700   0.10380   0.74892   0.00000  Uiso   1.00
C249   C     0.25323   0.15206   0.81885   0.00000  Uiso   1.00
C250   C     0.31618   0.24440   0.87458   0.00000  Uiso   1.00
C251   C     0.17544   0.99741   0.58576   0.00000  Uiso   1.00
C252   C     0.08470   0.95624   0.51853   0.00000  Uiso   1.00
C253   C     0.07056   0.95904   0.43691   0.00000  Uiso   1.00
H254   H     0.40048   0.11358   0.64391   0.00000  Uiso   1.00
H255   H     0.46815   0.00572   0.66807   0.00000  Uiso   1.00
H256   H     0.46125   0.27137   0.78005   0.00000  Uiso   1.00
H257   H     0.29274   0.07559   0.47978   0.00000  Uiso   1.00
H258   H     0.51056   0.86743   0.70097   0.00000  Uiso   1.00
H259   H     0.49599   0.42759   0.93707   0.00000  Uiso   1.00
H260   H     0.14066   0.01473   0.30389   0.00000  Uiso   1.00
H261   H     0.14897   0.96931   0.69079   0.00000  Uiso   1.00
H262   H     0.20284   0.85352   0.71752   0.00000  Uiso   1.00
H263   H     0.19595   0.11918   0.82950   0.00000  Uiso   1.00
H264   H     0.02744   0.92340   0.52923   0.00000  Uiso   1.00
H265   H     0.29523   0.74391   0.74111   0.00000  Uiso   1.00
H266   H     0.28066   0.30407   0.97721   0.00000  Uiso   1.00
H267   H     0.92533   0.89121   0.34404   0.00000  Uiso   1.00
O268   O     0.44288   0.73213   0.73781   0.00000  Uiso   1.00
O269   O     0.42377   0.46703   0.04755   0.00000  Uiso   1.00
O270   O     0.95758   0.92537   0.21684   0.00000  Uiso   1.00
N271   N     0.45248   0.85424   0.70673   0.00000  Uiso   1.00
N272   N     0.43887   0.37795   0.92748   0.00000  Uiso   1.00
N273   N     0.10666   0.99198   0.33552   0.00000  Uiso   1.00
N274   N     0.33661   0.78777   0.72833   0.00000  Uiso   1.00
N275   N     0.32300   0.31148   0.94908   0.00000  Uiso   1.00
N276   N     0.99079   0.92552   0.35712   0.00000  Uiso   1.00
