data_job_01209
_audit_creation_date              2018-12-19
_audit_creation_method            'Materials Studio'
_symmetry_space_group_name_H-M    'P1'
_symmetry_Int_Tables_number       1
_symmetry_cell_setting            triclinic
loop_
_symmetry_equiv_pos_as_xyz
  x,y,z
_cell_length_a                    33.2310
_cell_length_b                    9.3725
_cell_length_c                    20.1826
_cell_angle_alpha                 90.0000
_cell_angle_beta                  90.0000
_cell_angle_gamma                 90.0000
loop_
_atom_site_label
_atom_site_type_symbol
_atom_site_fract_x
_atom_site_fract_y
_atom_site_fract_z
_atom_site_U_iso_or_equiv
_atom_site_adp_type
_atom_site_occupancy
C1     C     0.16240   0.61677   0.39909   0.00000  Uiso   1.00
C2     C     0.16327   0.45489   0.40656   0.00000  Uiso   1.00
C3     C     0.18240   0.38003   0.45683   0.00000  Uiso   1.00
C4     C     0.17969   0.23227   0.45486   0.00000  Uiso   1.00
C5     C     0.18427   0.99160   0.47411   0.00000  Uiso   1.00
C6     C     0.17925   0.64838   0.33036   0.00000  Uiso   1.00
C7     C     0.21182   0.73621   0.31657   0.00000  Uiso   1.00
C8     C     0.22256   0.75133   0.25047   0.00000  Uiso   1.00
C9     C     0.25193   0.81113   0.15142   0.00000  Uiso   1.00
C10    C     0.11806   0.65844   0.39669   0.00000  Uiso   1.00
C11    C     0.09918   0.75477   0.43865   0.00000  Uiso   1.00
C12    C     0.05841   0.77839   0.42837   0.00000  Uiso   1.00
C13    C     0.99278   0.85382   0.43230   0.00000  Uiso   1.00
C14    C     0.12357   0.48749   0.30620   0.00000  Uiso   1.00
C15    C     0.14218   0.38468   0.35610   0.00000  Uiso   1.00
C16    C     0.13944   0.23699   0.35406   0.00000  Uiso   1.00
C17    C     0.15856   0.16192   0.40432   0.00000  Uiso   1.00
C18    C     0.15816   0.57816   0.27991   0.00000  Uiso   1.00
C19    C     0.16886   0.59317   0.21381   0.00000  Uiso   1.00
C20    C     0.20143   0.68098   0.19992   0.00000  Uiso   1.00
C21    C     0.09697   0.58822   0.34623   0.00000  Uiso   1.00
C22    C     0.05622   0.61172   0.33588   0.00000  Uiso   1.00
C23    C     0.03728   0.70805   0.37783   0.00000  Uiso   1.00
H24    H     0.17882   0.67145   0.43836   0.00000  Uiso   1.00
H25    H     0.19872   0.43441   0.49586   0.00000  Uiso   1.00
H26    H     0.22813   0.79054   0.35563   0.00000  Uiso   1.00
H27    H     0.11551   0.80909   0.47769   0.00000  Uiso   1.00
H28    H     0.21150   0.14065   0.53734   0.00000  Uiso   1.00
H29    H     0.27350   0.89160   0.24165   0.00000  Uiso   1.00
H30    H     0.03603   0.93072   0.49904   0.00000  Uiso   1.00
H31    H     0.10715   0.43282   0.26692   0.00000  Uiso   1.00
H32    H     0.12312   0.18268   0.31501   0.00000  Uiso   1.00
H33    H     0.15253   0.53881   0.17478   0.00000  Uiso   1.00
H34    H     0.03991   0.55736   0.29684   0.00000  Uiso   1.00
H35    H     0.15014   0.93633   0.39056   0.00000  Uiso   1.00
H36    H     0.21214   0.68730   0.09486   0.00000  Uiso   1.00
H37    H     0.97467   0.72640   0.35225   0.00000  Uiso   1.00
O38    O     0.19263   0.87824   0.49867   0.00000  Uiso   1.00
O39    O     0.27397   0.86350   0.11073   0.00000  Uiso   1.00
O40    O     0.96241   0.91480   0.44842   0.00000  Uiso   1.00
N41    N     0.19486   0.12689   0.49620   0.00000  Uiso   1.00
N42    N     0.25283   0.82897   0.21975   0.00000  Uiso   1.00
N43    N     0.03081   0.86557   0.46037   0.00000  Uiso   1.00
N44    N     0.16184   0.01695   0.41722   0.00000  Uiso   1.00
N45    N     0.21981   0.71903   0.14077   0.00000  Uiso   1.00
N46    N     0.99780   0.75563   0.38139   0.00000  Uiso   1.00
C47    C     0.33760   0.38323   0.89909   0.00000  Uiso   1.00
C48    C     0.33673   0.54511   0.90656   0.00000  Uiso   1.00
C49    C     0.31760   0.61997   0.95683   0.00000  Uiso   1.00
C50    C     0.32031   0.76773   0.95486   0.00000  Uiso   1.00
C51    C     0.31573   0.00840   0.97411   0.00000  Uiso   1.00
C52    C     0.32075   0.35162   0.83036   0.00000  Uiso   1.00
C53    C     0.28818   0.26379   0.81657   0.00000  Uiso   1.00
C54    C     0.27744   0.24867   0.75047   0.00000  Uiso   1.00
C55    C     0.24807   0.18887   0.65142   0.00000  Uiso   1.00
C56    C     0.38194   0.34156   0.89669   0.00000  Uiso   1.00
C57    C     0.40082   0.24523   0.93865   0.00000  Uiso   1.00
C58    C     0.44159   0.22161   0.92837   0.00000  Uiso   1.00
C59    C     0.50722   0.14618   0.93230   0.00000  Uiso   1.00
C60    C     0.37643   0.51251   0.80620   0.00000  Uiso   1.00
C61    C     0.35782   0.61532   0.85610   0.00000  Uiso   1.00
C62    C     0.36056   0.76301   0.85406   0.00000  Uiso   1.00
C63    C     0.34144   0.83808   0.90432   0.00000  Uiso   1.00
C64    C     0.34184   0.42184   0.77991   0.00000  Uiso   1.00
C65    C     0.33114   0.40683   0.71381   0.00000  Uiso   1.00
C66    C     0.29857   0.31902   0.69992   0.00000  Uiso   1.00
C67    C     0.40303   0.41178   0.84623   0.00000  Uiso   1.00
C68    C     0.44378   0.38828   0.83588   0.00000  Uiso   1.00
C69    C     0.46272   0.29195   0.87783   0.00000  Uiso   1.00
H70    H     0.32118   0.32855   0.93836   0.00000  Uiso   1.00
H71    H     0.30128   0.56559   0.99586   0.00000  Uiso   1.00
H72    H     0.27187   0.20946   0.85563   0.00000  Uiso   1.00
H73    H     0.38449   0.19091   0.97769   0.00000  Uiso   1.00
H74    H     0.28850   0.85935   0.03734   0.00000  Uiso   1.00
H75    H     0.22650   0.10840   0.74165   0.00000  Uiso   1.00
H76    H     0.46397   0.06928   0.99904   0.00000  Uiso   1.00
H77    H     0.39285   0.56718   0.76692   0.00000  Uiso   1.00
H78    H     0.37688   0.81732   0.81501   0.00000  Uiso   1.00
H79    H     0.34747   0.46119   0.67478   0.00000  Uiso   1.00
H80    H     0.46009   0.44264   0.79684   0.00000  Uiso   1.00
H81    H     0.34986   0.06367   0.89056   0.00000  Uiso   1.00
H82    H     0.28786   0.31270   0.59486   0.00000  Uiso   1.00
H83    H     0.52533   0.27360   0.85225   0.00000  Uiso   1.00
O84    O     0.30737   0.12176   0.99867   0.00000  Uiso   1.00
O85    O     0.22603   0.13650   0.61073   0.00000  Uiso   1.00
O86    O     0.53759   0.08520   0.94842   0.00000  Uiso   1.00
N87    N     0.30514   0.87311   0.99620   0.00000  Uiso   1.00
N88    N     0.24717   0.17103   0.71975   0.00000  Uiso   1.00
N89    N     0.46919   0.13443   0.96037   0.00000  Uiso   1.00
N90    N     0.33816   0.98305   0.91722   0.00000  Uiso   1.00
N91    N     0.28019   0.28097   0.64077   0.00000  Uiso   1.00
N92    N     0.50220   0.24437   0.88139   0.00000  Uiso   1.00
C93    C     0.83760   0.11677   0.10091   0.00000  Uiso   1.00
C94    C     0.83673   0.95489   0.09344   0.00000  Uiso   1.00
C95    C     0.81760   0.88003   0.04317   0.00000  Uiso   1.00
C96    C     0.82031   0.73227   0.04514   0.00000  Uiso   1.00
C97    C     0.81573   0.49160   0.02589   0.00000  Uiso   1.00
C98    C     0.82075   0.14838   0.16964   0.00000  Uiso   1.00
C99    C     0.78818   0.23621   0.18343   0.00000  Uiso   1.00
C100   C     0.77744   0.25133   0.24953   0.00000  Uiso   1.00
C101   C     0.74807   0.31113   0.34858   0.00000  Uiso   1.00
C102   C     0.88194   0.15844   0.10331   0.00000  Uiso   1.00
C103   C     0.90082   0.25477   0.06135   0.00000  Uiso   1.00
C104   C     0.94159   0.27839   0.07163   0.00000  Uiso   1.00
C105   C     0.00722   0.35382   0.06770   0.00000  Uiso   1.00
C106   C     0.87643   0.98749   0.19380   0.00000  Uiso   1.00
C107   C     0.85782   0.88468   0.14390   0.00000  Uiso   1.00
C108   C     0.86056   0.73699   0.14594   0.00000  Uiso   1.00
C109   C     0.84144   0.66192   0.09568   0.00000  Uiso   1.00
C110   C     0.84184   0.07816   0.22009   0.00000  Uiso   1.00
C111   C     0.83114   0.09317   0.28619   0.00000  Uiso   1.00
C112   C     0.79857   0.18098   0.30008   0.00000  Uiso   1.00
C113   C     0.90303   0.08822   0.15377   0.00000  Uiso   1.00
C114   C     0.94378   0.11172   0.16412   0.00000  Uiso   1.00
C115   C     0.96272   0.20805   0.12217   0.00000  Uiso   1.00
H116   H     0.82118   0.17145   0.06164   0.00000  Uiso   1.00
H117   H     0.80128   0.93441   0.00414   0.00000  Uiso   1.00
H118   H     0.77187   0.29054   0.14437   0.00000  Uiso   1.00
H119   H     0.88449   0.30909   0.02231   0.00000  Uiso   1.00
H120   H     0.78850   0.64065   0.96266   0.00000  Uiso   1.00
H121   H     0.72650   0.39160   0.25835   0.00000  Uiso   1.00
H122   H     0.96397   0.43072   0.00096   0.00000  Uiso   1.00
H123   H     0.89285   0.93282   0.23308   0.00000  Uiso   1.00
H124   H     0.87688   0.68268   0.18499   0.00000  Uiso   1.00
H125   H     0.84747   0.03881   0.32522   0.00000  Uiso   1.00
H126   H     0.96009   0.05736   0.20316   0.00000  Uiso   1.00
H127   H     0.84986   0.43633   0.10944   0.00000  Uiso   1.00
H128   H     0.78786   0.18730   0.40514   0.00000  Uiso   1.00
H129   H     0.02533   0.22640   0.14775   0.00000  Uiso   1.00
O130   O     0.80737   0.37824   0.00133   0.00000  Uiso   1.00
O131   O     0.72603   0.36350   0.38927   0.00000  Uiso   1.00
O132   O     0.03759   0.41480   0.05158   0.00000  Uiso   1.00
N133   N     0.80514   0.62689   0.00380   0.00000  Uiso   1.00
N134   N     0.74717   0.32897   0.28025   0.00000  Uiso   1.00
N135   N     0.96919   0.36557   0.03963   0.00000  Uiso   1.00
N136   N     0.83816   0.51695   0.08278   0.00000  Uiso   1.00
N137   N     0.78019   0.21903   0.35923   0.00000  Uiso   1.00
N138   N     0.00220   0.25563   0.11861   0.00000  Uiso   1.00
C139   C     0.66240   0.88323   0.60091   0.00000  Uiso   1.00
C140   C     0.66327   0.04511   0.59344   0.00000  Uiso   1.00
C141   C     0.68240   0.11997   0.54317   0.00000  Uiso   1.00
C142   C     0.67969   0.26773   0.54514   0.00000  Uiso   1.00
C143   C     0.68427   0.50840   0.52589   0.00000  Uiso   1.00
C144   C     0.67925   0.85162   0.66964   0.00000  Uiso   1.00
C145   C     0.71182   0.76379   0.68343   0.00000  Uiso   1.00
C146   C     0.72256   0.74867   0.74953   0.00000  Uiso   1.00
C147   C     0.75193   0.68887   0.84858   0.00000  Uiso   1.00
C148   C     0.61806   0.84156   0.60331   0.00000  Uiso   1.00
C149   C     0.59918   0.74523   0.56135   0.00000  Uiso   1.00
C150   C     0.55841   0.72161   0.57163   0.00000  Uiso   1.00
C151   C     0.49278   0.64618   0.56770   0.00000  Uiso   1.00
C152   C     0.62357   0.01251   0.69380   0.00000  Uiso   1.00
C153   C     0.64218   0.11532   0.64390   0.00000  Uiso   1.00
C154   C     0.63944   0.26301   0.64594   0.00000  Uiso   1.00
C155   C     0.65856   0.33808   0.59568   0.00000  Uiso   1.00
C156   C     0.65816   0.92184   0.72009   0.00000  Uiso   1.00
C157   C     0.66886   0.90683   0.78619   0.00000  Uiso   1.00
C158   C     0.70143   0.81902   0.80008   0.00000  Uiso   1.00
C159   C     0.59697   0.91178   0.65377   0.00000  Uiso   1.00
C160   C     0.55622   0.88828   0.66412   0.00000  Uiso   1.00
C161   C     0.53728   0.79195   0.62217   0.00000  Uiso   1.00
H162   H     0.67882   0.82855   0.56164   0.00000  Uiso   1.00
H163   H     0.69872   0.06559   0.50414   0.00000  Uiso   1.00
H164   H     0.72813   0.70946   0.64437   0.00000  Uiso   1.00
H165   H     0.61551   0.69091   0.52231   0.00000  Uiso   1.00
H166   H     0.71150   0.35935   0.46266   0.00000  Uiso   1.00
H167   H     0.77350   0.60840   0.75835   0.00000  Uiso   1.00
H168   H     0.53603   0.56928   0.50096   0.00000  Uiso   1.00
H169   H     0.60715   0.06718   0.73308   0.00000  Uiso   1.00
H170   H     0.62312   0.31732   0.68499   0.00000  Uiso   1.00
H171   H     0.65253   0.96119   0.82522   0.00000  Uiso   1.00
H172   H     0.53991   0.94264   0.70316   0.00000  Uiso   1.00
H173   H     0.65014   0.56367   0.60944   0.00000  Uiso   1.00
H174   H     0.71214   0.81270   0.90514   0.00000  Uiso   1.00
H175   H     0.47467   0.77360   0.64775   0.00000  Uiso   1.00
O176   O     0.69263   0.62176   0.50133   0.00000  Uiso   1.00
O177   O     0.77397   0.63650   0.88927   0.00000  Uiso   1.00
O178   O     0.46241   0.58520   0.55158   0.00000  Uiso   1.00
N179   N     0.69486   0.37311   0.50380   0.00000  Uiso   1.00
N180   N     0.75283   0.67103   0.78025   0.00000  Uiso   1.00
N181   N     0.53081   0.63443   0.53963   0.00000  Uiso   1.00
N182   N     0.66184   0.48305   0.58278   0.00000  Uiso   1.00
N183   N     0.71981   0.78097   0.85923   0.00000  Uiso   1.00
N184   N     0.49780   0.74437   0.61861   0.00000  Uiso   1.00
C185   C     0.83760   0.38323   0.60091   0.00000  Uiso   1.00
C186   C     0.83673   0.54511   0.59344   0.00000  Uiso   1.00
C187   C     0.81760   0.61997   0.54317   0.00000  Uiso   1.00
C188   C     0.82031   0.76773   0.54514   0.00000  Uiso   1.00
C189   C     0.81573   0.00840   0.52589   0.00000  Uiso   1.00
C190   C     0.82075   0.35162   0.66964   0.00000  Uiso   1.00
C191   C     0.78818   0.26379   0.68343   0.00000  Uiso   1.00
C192   C     0.77744   0.24867   0.74953   0.00000  Uiso   1.00
C193   C     0.74807   0.18887   0.84858   0.00000  Uiso   1.00
C194   C     0.88194   0.34156   0.60331   0.00000  Uiso   1.00
C195   C     0.90082   0.24523   0.56135   0.00000  Uiso   1.00
C196   C     0.94159   0.22161   0.57163   0.00000  Uiso   1.00
C197   C     0.00722   0.14618   0.56770   0.00000  Uiso   1.00
C198   C     0.87643   0.51251   0.69380   0.00000  Uiso   1.00
C199   C     0.85782   0.61532   0.64390   0.00000  Uiso   1.00
C200   C     0.86056   0.76301   0.64594   0.00000  Uiso   1.00
C201   C     0.84144   0.83808   0.59568   0.00000  Uiso   1.00
C202   C     0.84184   0.42184   0.72009   0.00000  Uiso   1.00
C203   C     0.83114   0.40683   0.78619   0.00000  Uiso   1.00
C204   C     0.79857   0.31902   0.80008   0.00000  Uiso   1.00
C205   C     0.90303   0.41178   0.65377   0.00000  Uiso   1.00
C206   C     0.94378   0.38828   0.66412   0.00000  Uiso   1.00
C207   C     0.96272   0.29195   0.62217   0.00000  Uiso   1.00
H208   H     0.82118   0.32855   0.56164   0.00000  Uiso   1.00
H209   H     0.80128   0.56559   0.50414   0.00000  Uiso   1.00
H210   H     0.77187   0.20946   0.64437   0.00000  Uiso   1.00
H211   H     0.88449   0.19091   0.52231   0.00000  Uiso   1.00
H212   H     0.78850   0.85935   0.46266   0.00000  Uiso   1.00
H213   H     0.72650   0.10840   0.75835   0.00000  Uiso   1.00
H214   H     0.96397   0.06928   0.50096   0.00000  Uiso   1.00
H215   H     0.89285   0.56718   0.73308   0.00000  Uiso   1.00
H216   H     0.87688   0.81732   0.68499   0.00000  Uiso   1.00
H217   H     0.84747   0.46119   0.82522   0.00000  Uiso   1.00
H218   H     0.96009   0.44264   0.70316   0.00000  Uiso   1.00
H219   H     0.84986   0.06367   0.60944   0.00000  Uiso   1.00
H220   H     0.78786   0.31270   0.90514   0.00000  Uiso   1.00
H221   H     0.02533   0.27360   0.64775   0.00000  Uiso   1.00
O222   O     0.80737   0.12176   0.50133   0.00000  Uiso   1.00
O223   O     0.72603   0.13650   0.88927   0.00000  Uiso   1.00
O224   O     0.03759   0.08520   0.55158   0.00000  Uiso   1.00
N225   N     0.80514   0.87311   0.50380   0.00000  Uiso   1.00
N226   N     0.74717   0.17103   0.78025   0.00000  Uiso   1.00
N227   N     0.96919   0.13443   0.53963   0.00000  Uiso   1.00
N228   N     0.83816   0.98305   0.58278   0.00000  Uiso   1.00
N229   N     0.78019   0.28097   0.85923   0.00000  Uiso   1.00
N230   N     0.00220   0.24437   0.61861   0.00000  Uiso   1.00
C231   C     0.66240   0.61677   0.10091   0.00000  Uiso   1.00
C232   C     0.66327   0.45489   0.09344   0.00000  Uiso   1.00
C233   C     0.68240   0.38003   0.04317   0.00000  Uiso   1.00
C234   C     0.67969   0.23227   0.04514   0.00000  Uiso   1.00
C235   C     0.68427   0.99160   0.02589   0.00000  Uiso   1.00
C236   C     0.67925   0.64838   0.16964   0.00000  Uiso   1.00
C237   C     0.71182   0.73621   0.18343   0.00000  Uiso   1.00
C238   C     0.72256   0.75133   0.24953   0.00000  Uiso   1.00
C239   C     0.75193   0.81113   0.34858   0.00000  Uiso   1.00
C240   C     0.61806   0.65844   0.10331   0.00000  Uiso   1.00
C241   C     0.59918   0.75477   0.06135   0.00000  Uiso   1.00
C242   C     0.55841   0.77839   0.07163   0.00000  Uiso   1.00
C243   C     0.49278   0.85382   0.06770   0.00000  Uiso   1.00
C244   C     0.62357   0.48749   0.19380   0.00000  Uiso   1.00
C245   C     0.64218   0.38468   0.14390   0.00000  Uiso   1.00
C246   C     0.63944   0.23699   0.14594   0.00000  Uiso   1.00
C247   C     0.65856   0.16192   0.09568   0.00000  Uiso   1.00
C248   C     0.65816   0.57816   0.22009   0.00000  Uiso   1.00
C249   C     0.66886   0.59317   0.28619   0.00000  Uiso   1.00
C250   C     0.70143   0.68098   0.30008   0.00000  Uiso   1.00
C251   C     0.59697   0.58822   0.15377   0.00000  Uiso   1.00
C252   C     0.55622   0.61172   0.16412   0.00000  Uiso   1.00
C253   C     0.53728   0.70805   0.12217   0.00000  Uiso   1.00
H254   H     0.67882   0.67145   0.06164   0.00000  Uiso   1.00
H255   H     0.69872   0.43441   0.00414   0.00000  Uiso   1.00
H256   H     0.72813   0.79054   0.14437   0.00000  Uiso   1.00
H257   H     0.61551   0.80909   0.02231   0.00000  Uiso   1.00
H258   H     0.71150   0.14065   0.96266   0.00000  Uiso   1.00
H259   H     0.77350   0.89160   0.25835   0.00000  Uiso   1.00
H260   H     0.53603   0.93072   0.00096   0.00000  Uiso   1.00
H261   H     0.60715   0.43282   0.23308   0.00000  Uiso   1.00
H262   H     0.62312   0.18268   0.18499   0.00000  Uiso   1.00
H263   H     0.65253   0.53881   0.32522   0.00000  Uiso   1.00
H264   H     0.53991   0.55736   0.20316   0.00000  Uiso   1.00
H265   H     0.65014   0.93633   0.10944   0.00000  Uiso   1.00
H266   H     0.71214   0.68730   0.40514   0.00000  Uiso   1.00
H267   H     0.47467   0.72640   0.14775   0.00000  Uiso   1.00
O268   O     0.69263   0.87824   0.00133   0.00000  Uiso   1.00
O269   O     0.77397   0.86350   0.38927   0.00000  Uiso   1.00
O270   O     0.46241   0.91480   0.05158   0.00000  Uiso   1.00
N271   N     0.69486   0.12689   0.00380   0.00000  Uiso   1.00
N272   N     0.75283   0.82897   0.28025   0.00000  Uiso   1.00
N273   N     0.53081   0.86557   0.03963   0.00000  Uiso   1.00
N274   N     0.66184   0.01695   0.08278   0.00000  Uiso   1.00
N275   N     0.71981   0.71903   0.35923   0.00000  Uiso   1.00
N276   N     0.49780   0.75563   0.11861   0.00000  Uiso   1.00
C277   C     0.16240   0.88323   0.89909   0.00000  Uiso   1.00
C278   C     0.16327   0.04511   0.90656   0.00000  Uiso   1.00
C279   C     0.18240   0.11997   0.95683   0.00000  Uiso   1.00
C280   C     0.17969   0.26773   0.95486   0.00000  Uiso   1.00
C281   C     0.18427   0.50840   0.97411   0.00000  Uiso   1.00
C282   C     0.17925   0.85162   0.83036   0.00000  Uiso   1.00
C283   C     0.21182   0.76379   0.81657   0.00000  Uiso   1.00
C284   C     0.22256   0.74867   0.75047   0.00000  Uiso   1.00
C285   C     0.25193   0.68887   0.65142   0.00000  Uiso   1.00
C286   C     0.11806   0.84156   0.89669   0.00000  Uiso   1.00
C287   C     0.09918   0.74523   0.93865   0.00000  Uiso   1.00
C288   C     0.05841   0.72161   0.92837   0.00000  Uiso   1.00
C289   C     0.99278   0.64618   0.93230   0.00000  Uiso   1.00
C290   C     0.12357   0.01251   0.80620   0.00000  Uiso   1.00
C291   C     0.14218   0.11532   0.85610   0.00000  Uiso   1.00
C292   C     0.13944   0.26301   0.85406   0.00000  Uiso   1.00
C293   C     0.15856   0.33808   0.90432   0.00000  Uiso   1.00
C294   C     0.15816   0.92184   0.77991   0.00000  Uiso   1.00
C295   C     0.16886   0.90683   0.71381   0.00000  Uiso   1.00
C296   C     0.20143   0.81902   0.69992   0.00000  Uiso   1.00
C297   C     0.09697   0.91178   0.84623   0.00000  Uiso   1.00
C298   C     0.05622   0.88828   0.83588   0.00000  Uiso   1.00
C299   C     0.03728   0.79195   0.87783   0.00000  Uiso   1.00
H300   H     0.17882   0.82855   0.93836   0.00000  Uiso   1.00
H301   H     0.19872   0.06559   0.99586   0.00000  Uiso   1.00
H302   H     0.22813   0.70946   0.85563   0.00000  Uiso   1.00
H303   H     0.11551   0.69091   0.97769   0.00000  Uiso   1.00
H304   H     0.21150   0.35935   0.03734   0.00000  Uiso   1.00
H305   H     0.27350   0.60840   0.74165   0.00000  Uiso   1.00
H306   H     0.03603   0.56928   0.99904   0.00000  Uiso   1.00
H307   H     0.10715   0.06718   0.76692   0.00000  Uiso   1.00
H308   H     0.12312   0.31732   0.81501   0.00000  Uiso   1.00
H309   H     0.15253   0.96119   0.67478   0.00000  Uiso   1.00
H310   H     0.03991   0.94264   0.79684   0.00000  Uiso   1.00
H311   H     0.15014   0.56367   0.89056   0.00000  Uiso   1.00
H312   H     0.21214   0.81270   0.59486   0.00000  Uiso   1.00
H313   H     0.97467   0.77360   0.85225   0.00000  Uiso   1.00
O314   O     0.19263   0.62176   0.99867   0.00000  Uiso   1.00
O315   O     0.27397   0.63650   0.61073   0.00000  Uiso   1.00
O316   O     0.96241   0.58520   0.94842   0.00000  Uiso   1.00
N317   N     0.19486   0.37311   0.99620   0.00000  Uiso   1.00
N318   N     0.25283   0.67103   0.71975   0.00000  Uiso   1.00
N319   N     0.03081   0.63443   0.96037   0.00000  Uiso   1.00
N320   N     0.16184   0.48305   0.91722   0.00000  Uiso   1.00
N321   N     0.21981   0.78097   0.64077   0.00000  Uiso   1.00
N322   N     0.99780   0.74437   0.88139   0.00000  Uiso   1.00
C323   C     0.33760   0.11677   0.39909   0.00000  Uiso   1.00
C324   C     0.33673   0.95489   0.40656   0.00000  Uiso   1.00
C325   C     0.31760   0.88003   0.45683   0.00000  Uiso   1.00
C326   C     0.32031   0.73227   0.45486   0.00000  Uiso   1.00
C327   C     0.31573   0.49160   0.47411   0.00000  Uiso   1.00
C328   C     0.32075   0.14838   0.33036   0.00000  Uiso   1.00
C329   C     0.28818   0.23621   0.31657   0.00000  Uiso   1.00
C330   C     0.27744   0.25133   0.25047   0.00000  Uiso   1.00
C331   C     0.24807   0.31113   0.15142   0.00000  Uiso   1.00
C332   C     0.38194   0.15844   0.39669   0.00000  Uiso   1.00
C333   C     0.40082   0.25477   0.43865   0.00000  Uiso   1.00
C334   C     0.44159   0.27839   0.42837   0.00000  Uiso   1.00
C335   C     0.50722   0.35382   0.43230   0.00000  Uiso   1.00
C336   C     0.37643   0.98749   0.30620   0.00000  Uiso   1.00
C337   C     0.35782   0.88468   0.35610   0.00000  Uiso   1.00
C338   C     0.36056   0.73699   0.35406   0.00000  Uiso   1.00
C339   C     0.34144   0.66192   0.40432   0.00000  Uiso   1.00
C340   C     0.34184   0.07816   0.27991   0.00000  Uiso   1.00
C341   C     0.33114   0.09317   0.21381   0.00000  Uiso   1.00
C342   C     0.29857   0.18098   0.19992   0.00000  Uiso   1.00
C343   C     0.40303   0.08822   0.34623   0.00000  Uiso   1.00
C344   C     0.44378   0.11172   0.33588   0.00000  Uiso   1.00
C345   C     0.46272   0.20805   0.37783   0.00000  Uiso   1.00
H346   H     0.32118   0.17145   0.43836   0.00000  Uiso   1.00
H347   H     0.30128   0.93441   0.49586   0.00000  Uiso   1.00
H348   H     0.27187   0.29054   0.35563   0.00000  Uiso   1.00
H349   H     0.38449   0.30909   0.47769   0.00000  Uiso   1.00
H350   H     0.28850   0.64065   0.53734   0.00000  Uiso   1.00
H351   H     0.22650   0.39160   0.24165   0.00000  Uiso   1.00
H352   H     0.46397   0.43072   0.49904   0.00000  Uiso   1.00
H353   H     0.39285   0.93282   0.26692   0.00000  Uiso   1.00
H354   H     0.37688   0.68268   0.31501   0.00000  Uiso   1.00
H355   H     0.34747   0.03881   0.17478   0.00000  Uiso   1.00
H356   H     0.46009   0.05736   0.29684   0.00000  Uiso   1.00
H357   H     0.34986   0.43633   0.39056   0.00000  Uiso   1.00
H358   H     0.28786   0.18730   0.09486   0.00000  Uiso   1.00
H359   H     0.52533   0.22640   0.35225   0.00000  Uiso   1.00
O360   O     0.30737   0.37824   0.49867   0.00000  Uiso   1.00
O361   O     0.22603   0.36350   0.11073   0.00000  Uiso   1.00
O362   O     0.53759   0.41480   0.44842   0.00000  Uiso   1.00
N363   N     0.30514   0.62689   0.49620   0.00000  Uiso   1.00
N364   N     0.24717   0.32897   0.21975   0.00000  Uiso   1.00
N365   N     0.46919   0.36557   0.46037   0.00000  Uiso   1.00
N366   N     0.33816   0.51695   0.41722   0.00000  Uiso   1.00
N367   N     0.28019   0.21903   0.14077   0.00000  Uiso   1.00
N368   N     0.50220   0.25563   0.38139   0.00000  Uiso   1.00
