data_job_06913
_audit_creation_date              2018-12-19
_audit_creation_method            'Materials Studio'
_symmetry_space_group_name_H-M    'P1'
_symmetry_Int_Tables_number       1
_symmetry_cell_setting            triclinic
loop_
_symmetry_equiv_pos_as_xyz
  x,y,z
_cell_length_a                    19.4009
_cell_length_b                    21.7837
_cell_length_c                    23.5723
_cell_angle_alpha                 77.0510
_cell_angle_beta                  108.9358
_cell_angle_gamma                 88.6672
loop_
_atom_site_label
_atom_site_type_symbol
_atom_site_fract_x
_atom_site_fract_y
_atom_site_fract_z
_atom_site_U_iso_or_equiv
_atom_site_adp_type
_atom_site_occupancy
C1     C     0.79460   0.75462   0.29071   0.00000  Uiso   1.00
C2     C     0.87122   0.77026   0.29199   0.00000  Uiso   1.00
C3     C     0.92010   0.79608   0.33566   0.00000  Uiso   1.00
C4     C     0.98751   0.80689   0.32875   0.00000  Uiso   1.00
C5     C     0.10375   0.83342   0.33815   0.00000  Uiso   1.00
C6     C     0.74241   0.79070   0.22742   0.00000  Uiso   1.00
C7     C     0.68299   0.83369   0.21681   0.00000  Uiso   1.00
C8     C     0.64197   0.86169   0.15554   0.00000  Uiso   1.00
C9     C     0.55820   0.91990   0.06471   0.00000  Uiso   1.00
C10    C     0.79265   0.68460   0.29108   0.00000  Uiso   1.00
C11    C     0.77544   0.63837   0.33397   0.00000  Uiso   1.00
C12    C     0.77669   0.57705   0.32629   0.00000  Uiso   1.00
C13    C     0.77092   0.47052   0.33429   0.00000  Uiso   1.00
C14    C     0.82739   0.72790   0.20078   0.00000  Uiso   1.00
C15    C     0.88902   0.75575   0.24314   0.00000  Uiso   1.00
C16    C     0.95638   0.76652   0.23616   0.00000  Uiso   1.00
C17    C     0.00535   0.79235   0.27982   0.00000  Uiso   1.00
C18    C     0.76022   0.77619   0.17858   0.00000  Uiso   1.00
C19    C     0.71927   0.80413   0.11732   0.00000  Uiso   1.00
C20    C     0.65980   0.84715   0.10661   0.00000  Uiso   1.00
C21    C     0.81046   0.67008   0.24223   0.00000  Uiso   1.00
C22    C     0.81172   0.60882   0.23448   0.00000  Uiso   1.00
C23    C     0.79453   0.56251   0.27736   0.00000  Uiso   1.00
H24    H     0.78073   0.76592   0.32873   0.00000  Uiso   1.00
H25    H     0.90629   0.80731   0.37345   0.00000  Uiso   1.00
H26    H     0.66922   0.84490   0.25462   0.00000  Uiso   1.00
H27    H     0.76166   0.64962   0.37177   0.00000  Uiso   1.00
H28    H     0.05334   0.84682   0.40147   0.00000  Uiso   1.00
H29    H     0.55345   0.92607   0.15091   0.00000  Uiso   1.00
H30    H     0.74837   0.51428   0.39794   0.00000  Uiso   1.00
H31    H     0.84126   0.71660   0.16275   0.00000  Uiso   1.00
H32    H     0.97014   0.75529   0.19836   0.00000  Uiso   1.00
H33    H     0.73306   0.79288   0.07953   0.00000  Uiso   1.00
H34    H     0.82551   0.59760   0.19668   0.00000  Uiso   1.00
H35    H     0.10516   0.80460   0.25936   0.00000  Uiso   1.00
H36    H     0.60526   0.88385   0.00880   0.00000  Uiso   1.00
H37    H     0.80019   0.47206   0.25583   0.00000  Uiso   1.00
O38    O     0.16294   0.85207   0.35682   0.00000  Uiso   1.00
O39    O     0.50708   0.95603   0.02810   0.00000  Uiso   1.00
O40    O     0.76283   0.41578   0.35220   0.00000  Uiso   1.00
N41    N     0.04786   0.83156   0.36314   0.00000  Uiso   1.00
N42    N     0.58049   0.90567   0.12889   0.00000  Uiso   1.00
N43    N     0.76271   0.52068   0.35983   0.00000  Uiso   1.00
N44    N     0.07574   0.80884   0.28668   0.00000  Uiso   1.00
N45    N     0.60837   0.88295   0.05242   0.00000  Uiso   1.00
N46    N     0.79060   0.49796   0.28336   0.00000  Uiso   1.00
C47    C     0.99087   0.92294   0.55817   0.00000  Uiso   1.00
C48    C     0.03250   0.95836   0.51835   0.00000  Uiso   1.00
C49    C     0.00715   0.01526   0.47407   0.00000  Uiso   1.00
C50    C     0.05350   0.03999   0.44256   0.00000  Uiso   1.00
C51    C     0.10760   0.09971   0.37882   0.00000  Uiso   1.00
C52    C     0.98698   0.85675   0.54664   0.00000  Uiso   1.00
C53    C     0.92337   0.82822   0.52617   0.00000  Uiso   1.00
C54    C     0.93141   0.76741   0.51849   0.00000  Uiso   1.00
C55    C     0.91484   0.66937   0.49873   0.00000  Uiso   1.00
C56    C     0.04043   0.91446   0.62512   0.00000  Uiso   1.00
C57    C     0.02175   0.93443   0.67064   0.00000  Uiso   1.00
C58    C     0.07479   0.92220   0.72903   0.00000  Uiso   1.00
C59    C     0.14121   0.91375   0.83110   0.00000  Uiso   1.00
C60    C     0.11826   0.86569   0.58093   0.00000  Uiso   1.00
C61    C     0.10169   0.92726   0.53071   0.00000  Uiso   1.00
C62    C     0.14810   0.95192   0.49925   0.00000  Uiso   1.00
C63    C     0.12282   0.00885   0.45494   0.00000  Uiso   1.00
C64    C     0.05617   0.82566   0.55900   0.00000  Uiso   1.00
C65    C     0.06431   0.76488   0.55135   0.00000  Uiso   1.00
C66    C     0.00072   0.73626   0.53087   0.00000  Uiso   1.00
C67    C     0.10963   0.88337   0.63748   0.00000  Uiso   1.00
C68    C     0.16270   0.87110   0.69581   0.00000  Uiso   1.00
C69    C     0.14411   0.89105   0.74141   0.00000  Uiso   1.00
H70    H     0.93700   0.94714   0.54855   0.00000  Uiso   1.00
H71    H     0.95360   0.03930   0.46452   0.00000  Uiso   1.00
H72    H     0.86983   0.85229   0.51662   0.00000  Uiso   1.00
H73    H     0.96820   0.95849   0.66105   0.00000  Uiso   1.00
H74    H     0.00250   0.12776   0.37679   0.00000  Uiso   1.00
H75    H     0.82587   0.73342   0.48667   0.00000  Uiso   1.00
H76    H     0.03331   0.95736   0.79124   0.00000  Uiso   1.00
H77    H     0.17214   0.84148   0.59055   0.00000  Uiso   1.00
H78    H     0.20164   0.92785   0.50883   0.00000  Uiso   1.00
H79    H     0.11787   0.74083   0.56093   0.00000  Uiso   1.00
H80    H     0.21624   0.84703   0.70536   0.00000  Uiso   1.00
H81    H     0.20382   0.03730   0.41275   0.00000  Uiso   1.00
H82    H     0.02718   0.64296   0.52263   0.00000  Uiso   1.00
H83    H     0.23463   0.86690   0.82720   0.00000  Uiso   1.00
O84    O     0.11832   0.14124   0.34024   0.00000  Uiso   1.00
O85    O     0.88658   0.62388   0.48440   0.00000  Uiso   1.00
O86    O     0.15874   0.91769   0.88399   0.00000  Uiso   1.00
N87    N     0.04584   0.09462   0.39648   0.00000  Uiso   1.00
N88    N     0.88070   0.72594   0.49920   0.00000  Uiso   1.00
N89    N     0.07463   0.93530   0.78395   0.00000  Uiso   1.00
N90    N     0.15417   0.04594   0.41583   0.00000  Uiso   1.00
N91    N     0.98902   0.67727   0.51855   0.00000  Uiso   1.00
N92    N     0.18296   0.88662   0.80330   0.00000  Uiso   1.00
C93    C     0.76330   0.00408   0.20605   0.00000  Uiso   1.00
C94    C     0.83626   0.00418   0.19458   0.00000  Uiso   1.00
C95    C     0.87210   0.95353   0.18511   0.00000  Uiso   1.00
C96    C     0.93832   0.96313   0.17544   0.00000  Uiso   1.00
C97    C     0.04719   0.95444   0.15769   0.00000  Uiso   1.00
C98    C     0.77763   0.02277   0.26715   0.00000  Uiso   1.00
C99    C     0.76416   0.98775   0.31869   0.00000  Uiso   1.00
C100   C     0.78102   0.01300   0.37009   0.00000  Uiso   1.00
C101   C     0.79881   0.03318   0.46499   0.00000  Uiso   1.00
C102   C     0.71292   0.05868   0.15619   0.00000  Uiso   1.00
C103   C     0.64502   0.05386   0.11445   0.00000  Uiso   1.00
C104   C     0.60738   0.10935   0.07245   0.00000  Uiso   1.00
C105   C     0.52469   0.18528   0.99507   0.00000  Uiso   1.00
C106   C     0.81718   0.11119   0.20571   0.00000  Uiso   1.00
C107   C     0.86553   0.06236   0.19440   0.00000  Uiso   1.00
C108   C     0.93171   0.07204   0.18473   0.00000  Uiso   1.00
C109   C     0.96764   0.02142   0.17525   0.00000  Uiso   1.00
C110   C     0.80690   0.08095   0.26696   0.00000  Uiso   1.00
C111   C     0.82378   0.10626   0.31830   0.00000  Uiso   1.00
C112   C     0.81034   0.07128   0.36991   0.00000  Uiso   1.00
C113   C     0.74218   0.11686   0.15600   0.00000  Uiso   1.00
C114   C     0.70464   0.17237   0.11406   0.00000  Uiso   1.00
C115   C     0.63670   0.16763   0.07226   0.00000  Uiso   1.00
H116   H     0.74051   0.95878   0.20620   0.00000  Uiso   1.00
H117   H     0.84943   0.90851   0.18527   0.00000  Uiso   1.00
H118   H     0.74151   0.94273   0.31882   0.00000  Uiso   1.00
H119   H     0.62239   0.00883   0.11461   0.00000  Uiso   1.00
H120   H     0.98312   0.87843   0.16200   0.00000  Uiso   1.00
H121   H     0.75552   0.95059   0.44358   0.00000  Uiso   1.00
H122   H     0.50433   0.08997   0.01297   0.00000  Uiso   1.00
H123   H     0.83996   0.15649   0.20556   0.00000  Uiso   1.00
H124   H     0.95435   0.11707   0.18459   0.00000  Uiso   1.00
H125   H     0.84642   0.15128   0.31814   0.00000  Uiso   1.00
H126   H     0.72730   0.21738   0.11393   0.00000  Uiso   1.00
H127   H     0.06827   0.04770   0.16145   0.00000  Uiso   1.00
H128   H     0.84067   0.11986   0.44304   0.00000  Uiso   1.00
H129   H     0.58949   0.25924   0.01242   0.00000  Uiso   1.00
O130   O     0.09916   0.93356   0.14796   0.00000  Uiso   1.00
O131   O     0.80055   0.02823   0.51739   0.00000  Uiso   1.00
O132   O     0.47100   0.21110   0.95243   0.00000  Uiso   1.00
N133   N     0.98745   0.92369   0.16474   0.00000  Uiso   1.00
N134   N     0.77468   0.99114   0.42801   0.00000  Uiso   1.00
N135   N     0.53983   0.12145   0.02543   0.00000  Uiso   1.00
N136   N     0.03327   0.01477   0.16444   0.00000  Uiso   1.00
N137   N     0.82050   0.08222   0.42771   0.00000  Uiso   1.00
N138   N     0.58565   0.21254   0.02513   0.00000  Uiso   1.00
C139   C     0.10916   0.24936   0.06320   0.00000  Uiso   1.00
C140   C     0.16917   0.26552   0.03527   0.00000  Uiso   1.00
C141   C     0.20028   0.32234   0.03026   0.00000  Uiso   1.00
C142   C     0.25443   0.32783   0.00329   0.00000  Uiso   1.00
C143   C     0.34426   0.36044   0.96317   0.00000  Uiso   1.00
C144   C     0.13960   0.18901   0.11444   0.00000  Uiso   1.00
C145   C     0.14583   0.18152   0.17601   0.00000  Uiso   1.00
C146   C     0.17508   0.12260   0.21569   0.00000  Uiso   1.00
C147   C     0.21894   0.03643   0.29848   0.00000  Uiso   1.00
C148   C     0.04672   0.23099   0.01317   0.00000  Uiso   1.00
C149   C     0.97486   0.25877   0.98959   0.00000  Uiso   1.00
C150   C     0.92591   0.23519   0.94401   0.00000  Uiso   1.00
C151   C     0.82558   0.21419   0.86956   0.00000  Uiso   1.00
C152   C     0.15002   0.15806   0.02420   0.00000  Uiso   1.00
C153   C     0.19136   0.21592   0.01409   0.00000  Uiso   1.00
C154   C     0.24548   0.22133   0.98712   0.00000  Uiso   1.00
C155   C     0.27666   0.27815   0.98207   0.00000  Uiso   1.00
C156   C     0.16179   0.13942   0.09327   0.00000  Uiso   1.00
C157   C     0.19103   0.08050   0.13286   0.00000  Uiso   1.00
C158   C     0.19731   0.07292   0.19447   0.00000  Uiso   1.00
C159   C     0.06891   0.18140   0.99199   0.00000  Uiso   1.00
C160   C     0.02007   0.15776   0.94644   0.00000  Uiso   1.00
C161   C     0.94815   0.18551   0.92279   0.00000  Uiso   1.00
H162   H     0.09188   0.28797   0.07969   0.00000  Uiso   1.00
H163   H     0.18309   0.36071   0.04666   0.00000  Uiso   1.00
H164   H     0.12864   0.21990   0.19238   0.00000  Uiso   1.00
H165   H     0.95771   0.29715   0.00599   0.00000  Uiso   1.00
H166   H     0.29402   0.41947   0.00072   0.00000  Uiso   1.00
H167   H     0.17919   0.12256   0.30798   0.00000  Uiso   1.00
H168   H     0.81873   0.28546   0.91494   0.00000  Uiso   1.00
H169   H     0.16730   0.11945   0.00772   0.00000  Uiso   1.00
H170   H     0.26264   0.18294   0.97073   0.00000  Uiso   1.00
H171   H     0.20820   0.04214   0.11646   0.00000  Uiso   1.00
H172   H     0.03726   0.11939   0.93006   0.00000  Uiso   1.00
H173   H     0.35859   0.27519   0.93910   0.00000  Uiso   1.00
H174   H     0.24376   0.97828   0.24636   0.00000  Uiso   1.00
H175   H     0.88330   0.14118   0.85331   0.00000  Uiso   1.00
O176   O     0.38768   0.39213   0.94690   0.00000  Uiso   1.00
O177   O     0.23702   0.00260   0.35000   0.00000  Uiso   1.00
O178   O     0.76411   0.21631   0.83434   0.00000  Uiso   1.00
N179   N     0.29612   0.37680   0.99128   0.00000  Uiso   1.00
N180   N     0.18877   0.09922   0.27855   0.00000  Uiso   1.00
N181   N     0.85177   0.25150   0.91110   0.00000  Uiso   1.00
N182   N     0.33086   0.29917   0.95812   0.00000  Uiso   1.00
N183   N     0.22352   0.02158   0.24539   0.00000  Uiso   1.00
N184   N     0.88651   0.17387   0.87794   0.00000  Uiso   1.00
C185   C     0.17495   0.34229   0.23459   0.00000  Uiso   1.00
C186   C     0.23449   0.35338   0.20529   0.00000  Uiso   1.00
C187   C     0.28439   0.30695   0.20487   0.00000  Uiso   1.00
C188   C     0.33454   0.32674   0.17565   0.00000  Uiso   1.00
C189   C     0.42693   0.33423   0.13436   0.00000  Uiso   1.00
C190   C     0.10284   0.37012   0.18315   0.00000  Uiso   1.00
C191   C     0.04205   0.33776   0.16412   0.00000  Uiso   1.00
C192   C     0.98136   0.37164   0.11627   0.00000  Uiso   1.00
C193   C     0.86934   0.40512   0.04063   0.00000  Uiso   1.00
C194   C     0.18774   0.38405   0.28029   0.00000  Uiso   1.00
C195   C     0.19832   0.36340   0.34293   0.00000  Uiso   1.00
C196   C     0.20910   0.40901   0.37687   0.00000  Uiso   1.00
C197   C     0.22890   0.46411   0.45205   0.00000  Uiso   1.00
C198   C     0.17526   0.46000   0.18347   0.00000  Uiso   1.00
C199   C     0.23465   0.41732   0.17752   0.00000  Uiso   1.00
C200   C     0.28473   0.43718   0.14830   0.00000  Uiso   1.00
C201   C     0.33470   0.39079   0.14784   0.00000  Uiso   1.00
C202   C     0.10300   0.43405   0.15538   0.00000  Uiso   1.00
C203   C     0.04238   0.46799   0.10755   0.00000  Uiso   1.00
C204   C     0.98152   0.43569   0.08845   0.00000  Uiso   1.00
C205   C     0.18791   0.44798   0.25252   0.00000  Uiso   1.00
C206   C     0.19866   0.49363   0.28636   0.00000  Uiso   1.00
C207   C     0.20926   0.47306   0.34904   0.00000  Uiso   1.00
H208   H     0.17482   0.29252   0.25621   0.00000  Uiso   1.00
H209   H     0.28424   0.25748   0.22636   0.00000  Uiso   1.00
H210   H     0.04193   0.28828   0.18562   0.00000  Uiso   1.00
H211   H     0.19819   0.31392   0.36441   0.00000  Uiso   1.00
H212   H     0.40562   0.24682   0.18100   0.00000  Uiso   1.00
H213   H     0.89468   0.31178   0.09511   0.00000  Uiso   1.00
H214   H     0.22417   0.36584   0.47211   0.00000  Uiso   1.00
H215   H     0.17538   0.50978   0.16185   0.00000  Uiso   1.00
H216   H     0.28485   0.48666   0.12682   0.00000  Uiso   1.00
H217   H     0.04253   0.51746   0.08608   0.00000  Uiso   1.00
H218   H     0.19878   0.54310   0.26486   0.00000  Uiso   1.00
H219   H     0.40610   0.43283   0.10020   0.00000  Uiso   1.00
H220   H     0.89516   0.49779   0.01432   0.00000  Uiso   1.00
H221   H     0.22466   0.55185   0.39132   0.00000  Uiso   1.00
O222   O     0.47784   0.32069   0.11924   0.00000  Uiso   1.00
O223   O     0.80751   0.40592   0.00657   0.00000  Uiso   1.00
O224   O     0.23979   0.47685   0.50119   0.00000  Uiso   1.00
N225   N     0.39072   0.29377   0.16680   0.00000  Uiso   1.00
N226   N     0.91303   0.35450   0.08650   0.00000  Uiso   1.00
N227   N     0.22105   0.40505   0.43896   0.00000  Uiso   1.00
N228   N     0.39098   0.39386   0.12333   0.00000  Uiso   1.00
N229   N     0.91329   0.45459   0.04302   0.00000  Uiso   1.00
N230   N     0.22131   0.50514   0.39548   0.00000  Uiso   1.00
C231   C     0.41955   0.05308   0.37714   0.00000  Uiso   1.00
C232   C     0.43162   0.08309   0.31660   0.00000  Uiso   1.00
C233   C     0.39344   0.07291   0.25909   0.00000  Uiso   1.00
C234   C     0.41266   0.10483   0.20935   0.00000  Uiso   1.00
C235   C     0.42296   0.14527   0.11418   0.00000  Uiso   1.00
C236   C     0.40334   0.10791   0.40290   0.00000  Uiso   1.00
C237   C     0.34138   0.11859   0.41796   0.00000  Uiso   1.00
C238   C     0.33680   0.17140   0.44087   0.00000  Uiso   1.00
C239   C     0.30321   0.25036   0.47973   0.00000  Uiso   1.00
C240   C     0.49359   0.01949   0.42148   0.00000  Uiso   1.00
C241   C     0.50752   0.95582   0.45219   0.00000  Uiso   1.00
C242   C     0.57891   0.93418   0.49076   0.00000  Uiso   1.00
C243   C     0.68545   0.87585   0.55847   0.00000  Uiso   1.00
C244   C     0.52158   0.12786   0.39106   0.00000  Uiso   1.00
C245   C     0.48704   0.12371   0.32416   0.00000  Uiso   1.00
C246   C     0.50633   0.15565   0.27449   0.00000  Uiso   1.00
C247   C     0.46818   0.14552   0.21692   0.00000  Uiso   1.00
C248   C     0.45875   0.14853   0.41046   0.00000  Uiso   1.00
C249   C     0.45427   0.20133   0.43336   0.00000  Uiso   1.00
C250   C     0.39232   0.21209   0.44845   0.00000  Uiso   1.00
C251   C     0.54901   0.06011   0.42904   0.00000  Uiso   1.00
C252   C     0.62040   0.03856   0.46758   0.00000  Uiso   1.00
C253   C     0.63443   0.97488   0.49833   0.00000  Uiso   1.00
H254   H     0.37640   0.02146   0.37126   0.00000  Uiso   1.00
H255   H     0.35055   0.04148   0.25326   0.00000  Uiso   1.00
H256   H     0.29851   0.08715   0.41211   0.00000  Uiso   1.00
H257   H     0.46462   0.92441   0.44632   0.00000  Uiso   1.00
H258   H     0.34632   0.08160   0.12577   0.00000  Uiso   1.00
H259   H     0.23659   0.17789   0.46073   0.00000  Uiso   1.00
H260   H     0.58686   0.83471   0.53288   0.00000  Uiso   1.00
H261   H     0.56472   0.15949   0.39695   0.00000  Uiso   1.00
H262   H     0.54921   0.18708   0.28036   0.00000  Uiso   1.00
H263   H     0.49716   0.23275   0.43920   0.00000  Uiso   1.00
H264   H     0.66327   0.07001   0.47342   0.00000  Uiso   1.00
H265   H     0.50756   0.19978   0.14776   0.00000  Uiso   1.00
H266   H     0.39783   0.29607   0.48272   0.00000  Uiso   1.00
H267   H     0.74810   0.95289   0.55487   0.00000  Uiso   1.00
O268   O     0.41332   0.15637   0.05960   0.00000  Uiso   1.00
O269   O     0.26937   0.28269   0.49906   0.00000  Uiso   1.00
O270   O     0.72891   0.83245   0.59372   0.00000  Uiso   1.00
N271   N     0.38641   0.10562   0.14694   0.00000  Uiso   1.00
N272   N     0.28381   0.19565   0.46010   0.00000  Uiso   1.00
N273   N     0.61128   0.87481   0.52757   0.00000  Uiso   1.00
N274   N     0.47317   0.16921   0.15878   0.00000  Uiso   1.00
N275   N     0.37057   0.25924   0.47194   0.00000  Uiso   1.00
N276   N     0.69804   0.93840   0.53941   0.00000  Uiso   1.00
C277   C     0.33783   0.32228   0.68290   0.00000  Uiso   1.00
C278   C     0.29899   0.27841   0.71983   0.00000  Uiso   1.00
C279   C     0.23058   0.25825   0.69580   0.00000  Uiso   1.00
C280   C     0.20458   0.21817   0.73721   0.00000  Uiso   1.00
C281   C     0.13805   0.15295   0.78494   0.00000  Uiso   1.00
C282   C     0.41181   0.28640   0.69555   0.00000  Uiso   1.00
C283   C     0.43826   0.27297   0.65109   0.00000  Uiso   1.00
C284   C     0.50725   0.23963   0.67207   0.00000  Uiso   1.00
C285   C     0.61590   0.18685   0.68209   0.00000  Uiso   1.00
C286   C     0.35443   0.37780   0.71301   0.00000  Uiso   1.00
C287   C     0.33266   0.44124   0.68324   0.00000  Uiso   1.00
C288   C     0.35335   0.48485   0.71892   0.00000  Uiso   1.00
C289   C     0.37291   0.57399   0.75607   0.00000  Uiso   1.00
C290   C     0.41332   0.28694   0.79918   0.00000  Uiso   1.00
C291   C     0.34000   0.25921   0.78299   0.00000  Uiso   1.00
C292   C     0.31410   0.21916   0.82445   0.00000  Uiso   1.00
C293   C     0.24566   0.19895   0.80049   0.00000  Uiso   1.00
C294   C     0.45282   0.26720   0.75870   0.00000  Uiso   1.00
C295   C     0.52178   0.23388   0.77975   0.00000  Uiso   1.00
C296   C     0.54833   0.22040   0.73534   0.00000  Uiso   1.00
C297   C     0.39544   0.35861   0.77617   0.00000  Uiso   1.00
C298   C     0.41618   0.40214   0.81190   0.00000  Uiso   1.00
C299   C     0.39443   0.46562   0.78220   0.00000  Uiso   1.00
H300   H     0.30591   0.33722   0.63372   0.00000  Uiso   1.00
H301   H     0.19886   0.27311   0.64691   0.00000  Uiso   1.00
H302   H     0.40652   0.28783   0.60222   0.00000  Uiso   1.00
H303   H     0.30093   0.45607   0.63437   0.00000  Uiso   1.00
H304   H     0.09827   0.19355   0.68938   0.00000  Uiso   1.00
H305   H     0.53614   0.22462   0.59514   0.00000  Uiso   1.00
H306   H     0.31348   0.57938   0.66293   0.00000  Uiso   1.00
H307   H     0.44525   0.27200   0.84836   0.00000  Uiso   1.00
H308   H     0.34584   0.20431   0.87333   0.00000  Uiso   1.00
H309   H     0.55350   0.21904   0.82863   0.00000  Uiso   1.00
H310   H     0.44791   0.38727   0.86078   0.00000  Uiso   1.00
H311   H     0.21757   0.13771   0.87315   0.00000  Uiso   1.00
H312   H     0.65544   0.16878   0.77891   0.00000  Uiso   1.00
H313   H     0.43277   0.52353   0.84670   0.00000  Uiso   1.00
O314   O     0.09002   0.12227   0.79382   0.00000  Uiso   1.00
O315   O     0.66449   0.16304   0.67017   0.00000  Uiso   1.00
O316   O     0.37236   0.62847   0.75911   0.00000  Uiso   1.00
N317   N     0.13998   0.18971   0.72921   0.00000  Uiso   1.00
N318   N     0.54936   0.21875   0.64110   0.00000  Uiso   1.00
N319   N     0.34121   0.55042   0.70447   0.00000  Uiso   1.00
N320   N     0.20418   0.15966   0.82809   0.00000  Uiso   1.00
N321   N     0.61355   0.18870   0.73998   0.00000  Uiso   1.00
N322   N     0.40540   0.52037   0.80335   0.00000  Uiso   1.00
C323   C     0.04914   0.26748   0.49676   0.00000  Uiso   1.00
C324   C     0.01073   0.22835   0.53737   0.00000  Uiso   1.00
C325   C     0.04270   0.17563   0.58579   0.00000  Uiso   1.00
C326   C     0.99832   0.14641   0.61731   0.00000  Uiso   1.00
C327   C     0.94989   0.08221   0.68288   0.00000  Uiso   1.00
C328   C     0.03933   0.33544   0.50193   0.00000  Uiso   1.00
C329   C     0.09534   0.37277   0.52054   0.00000  Uiso   1.00
C330   C     0.07503   0.43369   0.52222   0.00000  Uiso   1.00
C331   C     0.07100   0.53577   0.53272   0.00000  Uiso   1.00
C332   C     0.00440   0.26733   0.43033   0.00000  Uiso   1.00
C333   C     0.03105   0.24741   0.38874   0.00000  Uiso   1.00
C334   C     0.98134   0.25101   0.33014   0.00000  Uiso   1.00
C335   C     0.92308   0.24733   0.22948   0.00000  Uiso   1.00
C336   C     0.91348   0.30931   0.46664   0.00000  Uiso   1.00
C337   C     0.93705   0.25107   0.52101   0.00000  Uiso   1.00
C338   C     0.89260   0.22192   0.55247   0.00000  Uiso   1.00
C339   C     0.92450   0.16917   0.60092   0.00000  Uiso   1.00
C340   C     0.96565   0.35816   0.48557   0.00000  Uiso   1.00
C341   C     0.94525   0.41905   0.48722   0.00000  Uiso   1.00
C342   C     0.00121   0.45646   0.50583   0.00000  Uiso   1.00
C343   C     0.93072   0.29005   0.41398   0.00000  Uiso   1.00
C344   C     0.88095   0.29369   0.35542   0.00000  Uiso   1.00
C345   C     0.90752   0.27377   0.31375   0.00000  Uiso   1.00
H346   H     0.10651   0.24979   0.50949   0.00000  Uiso   1.00
H347   H     0.09973   0.15807   0.59844   0.00000  Uiso   1.00
H348   H     0.15236   0.35517   0.53319   0.00000  Uiso   1.00
H349   H     0.08808   0.22983   0.40142   0.00000  Uiso   1.00
H350   H     0.05971   0.06641   0.68985   0.00000  Uiso   1.00
H351   H     0.17069   0.48202   0.55226   0.00000  Uiso   1.00
H352   H     0.03514   0.21771   0.27438   0.00000  Uiso   1.00
H353   H     0.85611   0.32701   0.45390   0.00000  Uiso   1.00
H354   H     0.83558   0.23951   0.53980   0.00000  Uiso   1.00
H355   H     0.88822   0.43662   0.47455   0.00000  Uiso   1.00
H356   H     0.82393   0.31127   0.34278   0.00000  Uiso   1.00
H357   H     0.84532   0.13251   0.64226   0.00000  Uiso   1.00
H358   H     0.95630   0.54812   0.50466   0.00000  Uiso   1.00
H359   H     0.82075   0.28381   0.22679   0.00000  Uiso   1.00
O360   O     0.94354   0.04052   0.72357   0.00000  Uiso   1.00
O361   O     0.08914   0.58579   0.54305   0.00000  Uiso   1.00
O362   O     0.91130   0.23902   0.17849   0.00000  Uiso   1.00
N363   N     0.01207   0.09396   0.66685   0.00000  Uiso   1.00
N364   N     0.11583   0.48253   0.53822   0.00000  Uiso   1.00
N365   N     0.98911   0.23544   0.27843   0.00000  Uiso   1.00
N366   N     0.89671   0.12953   0.64124   0.00000  Uiso   1.00
N367   N     0.00047   0.51810   0.51261   0.00000  Uiso   1.00
N368   N     0.87375   0.27101   0.25282   0.00000  Uiso   1.00
C369   C     0.44044   0.05828   0.81543   0.00000  Uiso   1.00
C370   C     0.40503   0.04032   0.86511   0.00000  Uiso   1.00
C371   C     0.40427   0.07428   0.90821   0.00000  Uiso   1.00
C372   C     0.36900   0.04998   0.94977   0.00000  Uiso   1.00
C373   C     0.31904   0.03068   0.02711   0.00000  Uiso   1.00
C374   C     0.37994   0.06195   0.75393   0.00000  Uiso   1.00
C375   C     0.35811   0.11408   0.70355   0.00000  Uiso   1.00
C376   C     0.30173   0.10798   0.65151   0.00000  Uiso   1.00
C377   C     0.21286   0.12223   0.55623   0.00000  Uiso   1.00
C378   C     0.49435   0.00160   0.82531   0.00000  Uiso   1.00
C379   C     0.56870   0.00300   0.83495   0.00000  Uiso   1.00
C380   C     0.60864   0.94608   0.84300   0.00000  Uiso   1.00
C381   C     0.69741   0.86664   0.85856   0.00000  Uiso   1.00
C382   C     0.37915   0.95472   0.81259   0.00000  Uiso   1.00
C383   C     0.37173   0.98408   0.86356   0.00000  Uiso   1.00
C384   C     0.33646   0.95971   0.90506   0.00000  Uiso   1.00
C385   C     0.33565   0.99363   0.94822   0.00000  Uiso   1.00
C386   C     0.34665   0.00570   0.75238   0.00000  Uiso   1.00
C387   C     0.29029   0.99952   0.70040   0.00000  Uiso   1.00
C388   C     0.26837   0.05163   0.64997   0.00000  Uiso   1.00
C389   C     0.46106   0.94535   0.82377   0.00000  Uiso   1.00
C390   C     0.50089   0.88843   0.83181   0.00000  Uiso   1.00
C391   C     0.57529   0.88974   0.84145   0.00000  Uiso   1.00
H392   H     0.46636   0.10207   0.81663   0.00000  Uiso   1.00
H393   H     0.43003   0.11781   0.90939   0.00000  Uiso   1.00
H394   H     0.38388   0.15760   0.70476   0.00000  Uiso   1.00
H395   H     0.59444   0.04653   0.83614   0.00000  Uiso   1.00
H396   H     0.37506   0.11048   0.01153   0.00000  Uiso   1.00
H397   H     0.27776   0.19437   0.58005   0.00000  Uiso   1.00
H398   H     0.72178   0.96016   0.85709   0.00000  Uiso   1.00
H399   H     0.35323   0.91093   0.81138   0.00000  Uiso   1.00
H400   H     0.31070   0.91619   0.90386   0.00000  Uiso   1.00
H401   H     0.26455   0.95598   0.69922   0.00000  Uiso   1.00
H402   H     0.47511   0.84491   0.83061   0.00000  Uiso   1.00
H403   H     0.27820   0.94683   0.00704   0.00000  Uiso   1.00
H404   H     0.18091   0.03073   0.57555   0.00000  Uiso   1.00
H405   H     0.62492   0.79651   0.85260   0.00000  Uiso   1.00
O406   O     0.30068   0.03557   0.07019   0.00000  Uiso   1.00
O407   O     0.17304   0.14563   0.50411   0.00000  Uiso   1.00
O408   O     0.75557   0.83835   0.86758   0.00000  Uiso   1.00
N409   N     0.35811   0.07123   0.99779   0.00000  Uiso   1.00
N410   N     0.26714   0.14967   0.59438   0.00000  Uiso   1.00
N411   N     0.68225   0.93071   0.85338   0.00000  Uiso   1.00
N412   N     0.30600   0.98318   0.99537   0.00000  Uiso   1.00
N413   N     0.21502   0.06162   0.59197   0.00000  Uiso   1.00
N414   N     0.63013   0.84265   0.85096   0.00000  Uiso   1.00
C415   C     0.88215   0.47311   0.77747   0.00000  Uiso   1.00
C416   C     0.82493   0.45364   0.80782   0.00000  Uiso   1.00
C417   C     0.79362   0.39690   0.81028   0.00000  Uiso   1.00
C418   C     0.74229   0.38809   0.84014   0.00000  Uiso   1.00
C419   C     0.65634   0.35084   0.88322   0.00000  Uiso   1.00
C420   C     0.84997   0.53590   0.73030   0.00000  Uiso   1.00
C421   C     0.83972   0.54832   0.66758   0.00000  Uiso   1.00
C422   C     0.80948   0.60876   0.63219   0.00000  Uiso   1.00
C423   C     0.76246   0.69923   0.55492   0.00000  Uiso   1.00
C424   C     0.94722   0.48821   0.82764   0.00000  Uiso   1.00
C425   C     0.01876   0.46053   0.84676   0.00000  Uiso   1.00
C426   C     0.07040   0.48083   0.89331   0.00000  Uiso   1.00
C427   C     0.17438   0.49724   0.96718   0.00000  Uiso   1.00
C428   C     0.84666   0.55836   0.82614   0.00000  Uiso   1.00
C429   C     0.80565   0.49995   0.83426   0.00000  Uiso   1.00
C430   C     0.75435   0.49123   0.86413   0.00000  Uiso   1.00
C431   C     0.72298   0.43448   0.86663   0.00000  Uiso   1.00
C432   C     0.83069   0.58221   0.75673   0.00000  Uiso   1.00
C433   C     0.80046   0.64265   0.72143   0.00000  Uiso   1.00
C434   C     0.79017   0.65515   0.65867   0.00000  Uiso   1.00
C435   C     0.92795   0.53451   0.85408   0.00000  Uiso   1.00
C436   C     0.97949   0.55486   0.90061   0.00000  Uiso   1.00
C437   C     0.05109   0.52722   0.91979   0.00000  Uiso   1.00
H438   H     0.89715   0.43706   0.75689   0.00000  Uiso   1.00
H439   H     0.80855   0.36108   0.78981   0.00000  Uiso   1.00
H440   H     0.85465   0.51248   0.64713   0.00000  Uiso   1.00
H441   H     0.03365   0.42470   0.82629   0.00000  Uiso   1.00
H442   H     0.70179   0.29727   0.83795   0.00000  Uiso   1.00
H443   H     0.79903   0.61651   0.53711   0.00000  Uiso   1.00
H444   H     0.17649   0.43142   0.91489   0.00000  Uiso   1.00
H445   H     0.83165   0.59442   0.84672   0.00000  Uiso   1.00
H446   H     0.73945   0.52707   0.88458   0.00000  Uiso   1.00
H447   H     0.78555   0.67847   0.74190   0.00000  Uiso   1.00
H448   H     0.96455   0.59069   0.92105   0.00000  Uiso   1.00
H449   H     0.64570   0.43200   0.91487   0.00000  Uiso   1.00
H450   H     0.74294   0.75124   0.61403   0.00000  Uiso   1.00
H451   H     0.12040   0.56614   0.99181   0.00000  Uiso   1.00
O452   O     0.61426   0.31750   0.89967   0.00000  Uiso   1.00
O453   O     0.74184   0.73633   0.50499   0.00000  Uiso   1.00
O454   O     0.23706   0.49349   0.00062   0.00000  Uiso   1.00
N455   N     0.70125   0.33821   0.85087   0.00000  Uiso   1.00
N456   N     0.79215   0.63668   0.56960   0.00000  Uiso   1.00
N457   N     0.14505   0.46365   0.92278   0.00000  Uiso   1.00
N458   N     0.67107   0.41071   0.89226   0.00000  Uiso   1.00
N459   N     0.76197   0.70918   0.61099   0.00000  Uiso   1.00
N460   N     0.11488   0.53614   0.96417   0.00000  Uiso   1.00
C461   C     0.78003   0.40642   0.60121   0.00000  Uiso   1.00
C462   C     0.72344   0.41486   0.63184   0.00000  Uiso   1.00
C463   C     0.68838   0.47218   0.62931   0.00000  Uiso   1.00
C464   C     0.63841   0.46987   0.66041   0.00000  Uiso   1.00
C465   C     0.55275   0.49173   0.70308   0.00000  Uiso   1.00
C466   C     0.84808   0.37022   0.65286   0.00000  Uiso   1.00
C467   C     0.91782   0.39001   0.66799   0.00000  Uiso   1.00
C468   C     0.97276   0.35011   0.71678   0.00000  Uiso   1.00
C469   C     0.08062   0.30265   0.79204   0.00000  Uiso   1.00
C470   C     0.75048   0.36153   0.55987   0.00000  Uiso   1.00
C471   C     0.73817   0.37399   0.49681   0.00000  Uiso   1.00
C472   C     0.71095   0.32677   0.46732   0.00000  Uiso   1.00
C473   C     0.66726   0.26581   0.39820   0.00000  Uiso   1.00
C474   C     0.75362   0.30039   0.66097   0.00000  Uiso   1.00
C475   C     0.70910   0.35727   0.66431   0.00000  Uiso   1.00
C476   C     0.65916   0.35487   0.69542   0.00000  Uiso   1.00
C477   C     0.62403   0.41217   0.69293   0.00000  Uiso   1.00
C478   C     0.83374   0.31263   0.68532   0.00000  Uiso   1.00
C479   C     0.88859   0.27269   0.73410   0.00000  Uiso   1.00
C480   C     0.95839   0.29241   0.74930   0.00000  Uiso   1.00
C481   C     0.73613   0.30393   0.59233   0.00000  Uiso   1.00
C482   C     0.70894   0.25668   0.56293   0.00000  Uiso   1.00
C483   C     0.69658   0.26907   0.49984   0.00000  Uiso   1.00
H484   H     0.79121   0.45126   0.57594   0.00000  Uiso   1.00
H485   H     0.69951   0.51674   0.60418   0.00000  Uiso   1.00
H486   H     0.92890   0.43458   0.64285   0.00000  Uiso   1.00
H487   H     0.74928   0.41856   0.47171   0.00000  Uiso   1.00
H488   H     0.59153   0.56394   0.64984   0.00000  Uiso   1.00
H489   H     0.07523   0.39068   0.73136   0.00000  Uiso   1.00
H490   H     0.69646   0.35692   0.37046   0.00000  Uiso   1.00
H491   H     0.74245   0.25555   0.68624   0.00000  Uiso   1.00
H492   H     0.64807   0.31029   0.72054   0.00000  Uiso   1.00
H493   H     0.87747   0.22812   0.75921   0.00000  Uiso   1.00
H494   H     0.69784   0.21211   0.58807   0.00000  Uiso   1.00
H495   H     0.54979   0.39638   0.74428   0.00000  Uiso   1.00
H496   H     0.03349   0.22311   0.82580   0.00000  Uiso   1.00
H497   H     0.65471   0.18935   0.46490   0.00000  Uiso   1.00
O498   O     0.50947   0.51970   0.71765   0.00000  Uiso   1.00
O499   O     0.14407   0.29239   0.82459   0.00000  Uiso   1.00
O500   O     0.64712   0.24809   0.35111   0.00000  Uiso   1.00
N501   N     0.59465   0.51699   0.66734   0.00000  Uiso   1.00
N502   N     0.04688   0.35501   0.74357   0.00000  Uiso   1.00
N503   N     0.69277   0.32344   0.40617   0.00000  Uiso   1.00
N504   N     0.57219   0.42683   0.71816   0.00000  Uiso   1.00
N505   N     0.02442   0.26484   0.79439   0.00000  Uiso   1.00
N506   N     0.67031   0.23327   0.45698   0.00000  Uiso   1.00
C507   C     0.52496   0.66576   0.53024   0.00000  Uiso   1.00
C508   C     0.52401   0.67630   0.59180   0.00000  Uiso   1.00
C509   C     0.58363   0.68841   0.63819   0.00000  Uiso   1.00
C510   C     0.57150   0.69666   0.69103   0.00000  Uiso   1.00
C511   C     0.58057   0.71356   0.78570   0.00000  Uiso   1.00
C512   C     0.49679   0.60149   0.52656   0.00000  Uiso   1.00
C513   C     0.53353   0.55072   0.51809   0.00000  Uiso   1.00
C514   C     0.49849   0.49600   0.51600   0.00000  Uiso   1.00
C515   C     0.46529   0.39677   0.50933   0.00000  Uiso   1.00
C516   C     0.46667   0.71476   0.48014   0.00000  Uiso   1.00
C517   C     0.47806   0.75922   0.43262   0.00000  Uiso   1.00
C518   C     0.41765   0.79985   0.39144   0.00000  Uiso   1.00
C519   C     0.33767   0.87650   0.31269   0.00000  Uiso   1.00
C520   C     0.39740   0.65887   0.54159   0.00000  Uiso   1.00
C521   C     0.45472   0.67255   0.59797   0.00000  Uiso   1.00
C522   C     0.44250   0.68079   0.65075   0.00000  Uiso   1.00
C523   C     0.50209   0.69291   0.69721   0.00000  Uiso   1.00
C524   C     0.42751   0.59775   0.53273   0.00000  Uiso   1.00
C525   C     0.39240   0.54309   0.53065   0.00000  Uiso   1.00
C526   C     0.42908   0.49224   0.52218   0.00000  Uiso   1.00
C527   C     0.39738   0.71102   0.48631   0.00000  Uiso   1.00
C528   C     0.33694   0.75159   0.44518   0.00000  Uiso   1.00
C529   C     0.34824   0.79610   0.39761   0.00000  Uiso   1.00
H530   H     0.57890   0.66867   0.52544   0.00000  Uiso   1.00
H531   H     0.63724   0.69130   0.63340   0.00000  Uiso   1.00
H532   H     0.58714   0.55363   0.51331   0.00000  Uiso   1.00
H533   H     0.53169   0.76210   0.42786   0.00000  Uiso   1.00
H534   H     0.67137   0.71472   0.75583   0.00000  Uiso   1.00
H535   H     0.56574   0.42444   0.50259   0.00000  Uiso   1.00
H536   H     0.44879   0.86403   0.32240   0.00000  Uiso   1.00
H537   H     0.34346   0.65595   0.54639   0.00000  Uiso   1.00
H538   H     0.38888   0.67789   0.65551   0.00000  Uiso   1.00
H539   H     0.33879   0.54021   0.53542   0.00000  Uiso   1.00
H540   H     0.28333   0.74868   0.44997   0.00000  Uiso   1.00
H541   H     0.46979   0.70382   0.77378   0.00000  Uiso   1.00
H542   H     0.36416   0.41354   0.52053   0.00000  Uiso   1.00
H543   H     0.24721   0.85314   0.34034   0.00000  Uiso   1.00
O544   O     0.60471   0.72391   0.83621   0.00000  Uiso   1.00
O545   O     0.46612   0.34308   0.50396   0.00000  Uiso   1.00
O546   O     0.31270   0.91982   0.26756   0.00000  Uiso   1.00
N547   N     0.61769   0.70916   0.74507   0.00000  Uiso   1.00
N548   N     0.51894   0.43776   0.50832   0.00000  Uiso   1.00
N549   N     0.40960   0.84873   0.33984   0.00000  Uiso   1.00
N550   N     0.50922   0.70330   0.75473   0.00000  Uiso   1.00
N551   N     0.41047   0.43190   0.51798   0.00000  Uiso   1.00
N552   N     0.30113   0.84287   0.34950   0.00000  Uiso   1.00
