data_job_06692
_audit_creation_date              2018-12-19
_audit_creation_method            'Materials Studio'
_symmetry_space_group_name_H-M    'P1'
_symmetry_Int_Tables_number       1
_symmetry_cell_setting            triclinic
loop_
_symmetry_equiv_pos_as_xyz
  x,y,z
_cell_length_a                    19.5488
_cell_length_b                    21.5627
_cell_length_c                    23.8758
_cell_angle_alpha                 116.5540
_cell_angle_beta                  100.9661
_cell_angle_gamma                 103.1643
loop_
_atom_site_label
_atom_site_type_symbol
_atom_site_fract_x
_atom_site_fract_y
_atom_site_fract_z
_atom_site_U_iso_or_equiv
_atom_site_adp_type
_atom_site_occupancy
C1     C     0.60156   0.59500   0.92769   0.00000  Uiso   1.00
C2     C     0.60291   0.58543   0.98737   0.00000  Uiso   1.00
C3     C     0.60413   0.52259   0.98985   0.00000  Uiso   1.00
C4     C     0.60524   0.52479   0.04904   0.00000  Uiso   1.00
C5     C     0.60732   0.50035   0.13339   0.00000  Uiso   1.00
C6     C     0.53290   0.61471   0.91255   0.00000  Uiso   1.00
C7     C     0.47526   0.57650   0.85212   0.00000  Uiso   1.00
C8     C     0.41743   0.60336   0.84832   0.00000  Uiso   1.00
C9     C     0.31084   0.62442   0.81649   0.00000  Uiso   1.00
C10    C     0.66873   0.66413   0.95215   0.00000  Uiso   1.00
C11    C     0.72529   0.66747   0.92499   0.00000  Uiso   1.00
C12    C     0.78181   0.73595   0.95452   0.00000  Uiso   1.00
C13    C     0.88611   0.83373   0.98417   0.00000  Uiso   1.00
C14    C     0.60136   0.71066   0.02839   0.00000  Uiso   1.00
C15    C     0.60280   0.64825   0.04207   0.00000  Uiso   1.00
C16    C     0.60391   0.65055   0.10127   0.00000  Uiso   1.00
C17    C     0.60514   0.58772   0.10384   0.00000  Uiso   1.00
C18    C     0.53279   0.67753   0.96725   0.00000  Uiso   1.00
C19    C     0.47504   0.70446   0.96354   0.00000  Uiso   1.00
C20    C     0.41732   0.66630   0.90312   0.00000  Uiso   1.00
C21    C     0.66862   0.72695   0.00685   0.00000  Uiso   1.00
C22    C     0.72507   0.79543   0.03642   0.00000  Uiso   1.00
C23    C     0.78170   0.79888   0.00932   0.00000  Uiso   1.00
H24    H     0.60164   0.54609   0.88510   0.00000  Uiso   1.00
H25    H     0.60421   0.47398   0.94751   0.00000  Uiso   1.00
H26    H     0.47536   0.52789   0.80979   0.00000  Uiso   1.00
H27    H     0.72535   0.61885   0.88266   0.00000  Uiso   1.00
H28    H     0.60698   0.42172   0.04081   0.00000  Uiso   1.00
H29    H     0.33531   0.53541   0.75043   0.00000  Uiso   1.00
H30    H     0.86246   0.72721   0.90409   0.00000  Uiso   1.00
H31    H     0.60128   0.75957   0.07098   0.00000  Uiso   1.00
H32    H     0.60383   0.69917   0.14360   0.00000  Uiso   1.00
H33    H     0.47498   0.75308   0.00588   0.00000  Uiso   1.00
H34    H     0.72496   0.84403   0.07875   0.00000  Uiso   1.00
H35    H     0.60667   0.60449   0.19997   0.00000  Uiso   1.00
H36    H     0.33499   0.71818   0.90958   0.00000  Uiso   1.00
H37    H     0.86214   0.90998   0.06324   0.00000  Uiso   1.00
O38    O     0.60849   0.46951   0.16480   0.00000  Uiso   1.00
O39    O     0.25207   0.61867   0.78382   0.00000  Uiso   1.00
O40    O     0.94368   0.87031   0.98542   0.00000  Uiso   1.00
N41    N     0.60658   0.47303   0.06831   0.00000  Uiso   1.00
N42    N     0.35257   0.57931   0.79682   0.00000  Uiso   1.00
N43    N     0.84540   0.75863   0.94047   0.00000  Uiso   1.00
N44    N     0.60641   0.57138   0.15395   0.00000  Uiso   1.00
N45    N     0.35240   0.67766   0.88246   0.00000  Uiso   1.00
N46    N     0.84523   0.85698   0.02611   0.00000  Uiso   1.00
C47    C     0.40647   0.85544   0.59575   0.00000  Uiso   1.00
C48    C     0.33481   0.79572   0.58080   0.00000  Uiso   1.00
C49    C     0.27802   0.75053   0.51981   0.00000  Uiso   1.00
C50    C     0.21703   0.69932   0.51631   0.00000  Uiso   1.00
C51    C     0.10634   0.60750   0.48466   0.00000  Uiso   1.00
C52    C     0.40932   0.92728   0.65348   0.00000  Uiso   1.00
C53    C     0.41519   0.99271   0.65359   0.00000  Uiso   1.00
C54    C     0.41693   0.05226   0.71128   0.00000  Uiso   1.00
C55    C     0.42197   0.16470   0.79248   0.00000  Uiso   1.00
C56    C     0.47026   0.83606   0.62303   0.00000  Uiso   1.00
C57    C     0.52739   0.82481   0.59755   0.00000  Uiso   1.00
C58    C     0.58046   0.80757   0.62961   0.00000  Uiso   1.00
C59    C     0.68013   0.77839   0.66353   0.00000  Uiso   1.00
C60    C     0.39913   0.84486   0.69799   0.00000  Uiso   1.00
C61    C     0.33082   0.78998   0.63633   0.00000  Uiso   1.00
C62    C     0.26990   0.73882   0.63292   0.00000  Uiso   1.00
C63    C     0.21304   0.69356   0.57194   0.00000  Uiso   1.00
C64    C     0.40533   0.92154   0.70901   0.00000  Uiso   1.00
C65    C     0.40707   0.98100   0.76671   0.00000  Uiso   1.00
C66    C     0.41294   0.04650   0.76691   0.00000  Uiso   1.00
C67    C     0.46627   0.83031   0.67856   0.00000  Uiso   1.00
C68    C     0.51926   0.81310   0.71067   0.00000  Uiso   1.00
C69    C     0.57646   0.80182   0.68524   0.00000  Uiso   1.00
H70    H     0.40958   0.85991   0.55252   0.00000  Uiso   1.00
H71    H     0.28113   0.75500   0.47685   0.00000  Uiso   1.00
H72    H     0.41828   0.99714   0.61061   0.00000  Uiso   1.00
H73    H     0.53046   0.82926   0.55458   0.00000  Uiso   1.00
H74    H     0.13694   0.63616   0.41745   0.00000  Uiso   1.00
H75    H     0.42617   0.14674   0.69951   0.00000  Uiso   1.00
H76    H     0.66272   0.79274   0.58135   0.00000  Uiso   1.00
H77    H     0.39603   0.84038   0.74122   0.00000  Uiso   1.00
H78    H     0.26683   0.73439   0.67591   0.00000  Uiso   1.00
H79    H     0.40398   0.97654   0.80967   0.00000  Uiso   1.00
H80    H     0.51616   0.80866   0.75364   0.00000  Uiso   1.00
H81    H     0.12534   0.61944   0.57902   0.00000  Uiso   1.00
H82    H     0.41456   0.13002   0.86108   0.00000  Uiso   1.00
H83    H     0.65112   0.77602   0.74292   0.00000  Uiso   1.00
O84    O     0.04638   0.55844   0.45187   0.00000  Uiso   1.00
O85    O     0.42585   0.22831   0.82192   0.00000  Uiso   1.00
O86    O     0.73620   0.76386   0.66690   0.00000  Uiso   1.00
N87    N     0.15195   0.64676   0.46444   0.00000  Uiso   1.00
N88    N     0.42234   0.12412   0.72814   0.00000  Uiso   1.00
N89    N     0.64351   0.79318   0.61768   0.00000  Uiso   1.00
N90    N     0.14570   0.63776   0.55137   0.00000  Uiso   1.00
N91    N     0.41610   0.11512   0.81508   0.00000  Uiso   1.00
N92    N     0.63727   0.78418   0.70462   0.00000  Uiso   1.00
C93    C     0.82201   0.31365   0.39674   0.00000  Uiso   1.00
C94    C     0.82033   0.37566   0.38254   0.00000  Uiso   1.00
C95    C     0.87788   0.44323   0.41120   0.00000  Uiso   1.00
C96    C     0.86541   0.49255   0.39164   0.00000  Uiso   1.00
C97    C     0.87307   0.59154   0.37668   0.00000  Uiso   1.00
C98    C     0.75535   0.29821   0.41923   0.00000  Uiso   1.00
C99    C     0.75828   0.30065   0.47875   0.00000  Uiso   1.00
C100   C     0.69111   0.28476   0.49007   0.00000  Uiso   1.00
C101   C     0.59789   0.26346   0.53206   0.00000  Uiso   1.00
C102   C     0.80502   0.24476   0.32972   0.00000  Uiso   1.00
C103   C     0.84970   0.20225   0.31398   0.00000  Uiso   1.00
C104   C     0.82434   0.14135   0.24994   0.00000  Uiso   1.00
C105   C     0.80824   0.03706   0.15296   0.00000  Uiso   1.00
C106   C     0.69750   0.28108   0.31102   0.00000  Uiso   1.00
C107   C     0.75270   0.35797   0.33597   0.00000  Uiso   1.00
C108   C     0.74013   0.40720   0.31636   0.00000  Uiso   1.00
C109   C     0.79766   0.47483   0.34499   0.00000  Uiso   1.00
C110   C     0.68773   0.28052   0.37267   0.00000  Uiso   1.00
C111   C     0.62053   0.26462   0.38390   0.00000  Uiso   1.00
C112   C     0.62336   0.26704   0.44342   0.00000  Uiso   1.00
C113   C     0.73740   0.22707   0.28316   0.00000  Uiso   1.00
C114   C     0.71195   0.16622   0.21913   0.00000  Uiso   1.00
C115   C     0.75659   0.12363   0.20330   0.00000  Uiso   1.00
H116   H     0.87466   0.32742   0.43300   0.00000  Uiso   1.00
H117   H     0.93021   0.45690   0.44724   0.00000  Uiso   1.00
H118   H     0.81063   0.31433   0.51477   0.00000  Uiso   1.00
H119   H     0.90203   0.21596   0.35003   0.00000  Uiso   1.00
H120   H     0.96196   0.59266   0.44251   0.00000  Uiso   1.00
H121   H     0.70981   0.29203   0.58489   0.00000  Uiso   1.00
H122   H     0.90256   0.08457   0.23751   0.00000  Uiso   1.00
H123   H     0.64485   0.26731   0.27477   0.00000  Uiso   1.00
H124   H     0.68779   0.39349   0.28032   0.00000  Uiso   1.00
H125   H     0.56821   0.25093   0.34786   0.00000  Uiso   1.00
H126   H     0.65962   0.15255   0.18311   0.00000  Uiso   1.00
H127   H     0.76521   0.54120   0.30704   0.00000  Uiso   1.00
H128   H     0.51306   0.24056   0.44942   0.00000  Uiso   1.00
H129   H     0.70581   0.03311   0.10203   0.00000  Uiso   1.00
O130   O     0.89597   0.65104   0.38130   0.00000  Uiso   1.00
O131   O     0.56516   0.25660   0.56810   0.00000  Uiso   1.00
O132   O     0.81804   0.98443   0.11233   0.00000  Uiso   1.00
N133   N     0.90977   0.56323   0.40986   0.00000  Uiso   1.00
N134   N     0.67403   0.28217   0.54298   0.00000  Uiso   1.00
N135   N     0.85422   0.08820   0.21821   0.00000  Uiso   1.00
N136   N     0.80390   0.53554   0.33696   0.00000  Uiso   1.00
N137   N     0.56815   0.25448   0.47008   0.00000  Uiso   1.00
N138   N     0.74835   0.06051   0.14531   0.00000  Uiso   1.00
C139   C     0.26656   0.36386   0.27253   0.00000  Uiso   1.00
C140   C     0.27229   0.36209   0.33636   0.00000  Uiso   1.00
C141   C     0.33779   0.37859   0.38369   0.00000  Uiso   1.00
C142   C     0.33125   0.37375   0.43862   0.00000  Uiso   1.00
C143   C     0.35074   0.37417   0.53664   0.00000  Uiso   1.00
C144   C     0.22548   0.41664   0.27445   0.00000  Uiso   1.00
C145   C     0.25162   0.47899   0.26972   0.00000  Uiso   1.00
C146   C     0.20566   0.52005   0.27252   0.00000  Uiso   1.00
C147   C     0.15245   0.60512   0.27438   0.00000  Uiso   1.00
C148   C     0.21411   0.28686   0.21595   0.00000  Uiso   1.00
C149   C     0.23068   0.24009   0.16202   0.00000  Uiso   1.00
C150   C     0.17514   0.17190   0.11557   0.00000  Uiso   1.00
C151   C     0.10429   0.05547   0.02660   0.00000  Uiso   1.00
C152   C     0.13845   0.32591   0.28590   0.00000  Uiso   1.00
C153   C     0.20271   0.34148   0.34362   0.00000  Uiso   1.00
C154   C     0.19606   0.33660   0.39849   0.00000  Uiso   1.00
C155   C     0.26154   0.35309   0.44590   0.00000  Uiso   1.00
C156   C     0.15590   0.39602   0.28171   0.00000  Uiso   1.00
C157   C     0.10989   0.43700   0.28451   0.00000  Uiso   1.00
C158   C     0.13595   0.49940   0.27980   0.00000  Uiso   1.00
C159   C     0.14453   0.26624   0.22321   0.00000  Uiso   1.00
C160   C     0.08895   0.19811   0.17683   0.00000  Uiso   1.00
C161   C     0.10544   0.15125   0.12284   0.00000  Uiso   1.00
H162   H     0.32073   0.37991   0.26687   0.00000  Uiso   1.00
H163   H     0.39163   0.39455   0.37805   0.00000  Uiso   1.00
H164   H     0.30547   0.49492   0.26409   0.00000  Uiso   1.00
H165   H     0.28454   0.25607   0.15642   0.00000  Uiso   1.00
H166   H     0.43956   0.40171   0.50454   0.00000  Uiso   1.00
H167   H     0.25787   0.61334   0.26422   0.00000  Uiso   1.00
H168   H     0.21373   0.10966   0.03717   0.00000  Uiso   1.00
H169   H     0.08427   0.30986   0.29156   0.00000  Uiso   1.00
H170   H     0.14220   0.32065   0.40410   0.00000  Uiso   1.00
H171   H     0.05604   0.42103   0.29013   0.00000  Uiso   1.00
H172   H     0.03511   0.18217   0.18246   0.00000  Uiso   1.00
H173   H     0.23711   0.34174   0.52568   0.00000  Uiso   1.00
H174   H     0.05542   0.55336   0.28535   0.00000  Uiso   1.00
H175   H     0.01128   0.04969   0.05831   0.00000  Uiso   1.00
O176   O     0.38071   0.38011   0.58871   0.00000  Uiso   1.00
O177   O     0.14233   0.65775   0.27340   0.00000  Uiso   1.00
O178   O     0.08443   0.99694   0.97552   0.00000  Uiso   1.00
N179   N     0.38396   0.38610   0.49406   0.00000  Uiso   1.00
N180   N     0.21410   0.58397   0.26939   0.00000  Uiso   1.00
N181   N     0.17282   0.11308   0.05710   0.00000  Uiso   1.00
N182   N     0.27503   0.35383   0.50544   0.00000  Uiso   1.00
N183   N     0.10516   0.55169   0.28076   0.00000  Uiso   1.00
N184   N     0.06389   0.08081   0.06848   0.00000  Uiso   1.00
C185   C     0.97294   0.01296   0.61828   0.00000  Uiso   1.00
C186   C     0.93009   0.06579   0.63790   0.00000  Uiso   1.00
C187   C     0.91987   0.11021   0.61166   0.00000  Uiso   1.00
C188   C     0.87895   0.15468   0.63619   0.00000  Uiso   1.00
C189   C     0.81689   0.23668   0.65918   0.00000  Uiso   1.00
C190   C     0.91861   0.93679   0.59639   0.00000  Uiso   1.00
C191   C     0.89874   0.87276   0.53525   0.00000  Uiso   1.00
C192   C     0.84815   0.80863   0.52483   0.00000  Uiso   1.00
C193   C     0.76831   0.69036   0.48339   0.00000  Uiso   1.00
C194   C     0.03277   0.03627   0.68236   0.00000  Uiso   1.00
C195   C     0.10889   0.05586   0.69350   0.00000  Uiso   1.00
C196   C     0.15442   0.07547   0.75546   0.00000  Uiso   1.00
C197   C     0.25183   0.11166   0.84750   0.00000  Uiso   1.00
C198   C     0.91845   0.01293   0.70849   0.00000  Uiso   1.00
C199   C     0.90049   0.06577   0.68690   0.00000  Uiso   1.00
C200   C     0.85958   0.11018   0.71147   0.00000  Uiso   1.00
C201   C     0.84930   0.15467   0.68527   0.00000  Uiso   1.00
C202   C     0.88901   0.93678   0.64538   0.00000  Uiso   1.00
C203   C     0.83845   0.87273   0.63506   0.00000  Uiso   1.00
C204   C     0.81850   0.80862   0.57392   0.00000  Uiso   1.00
C205   C     0.00317   0.03626   0.73136   0.00000  Uiso   1.00
C206   C     0.04860   0.05584   0.79331   0.00000  Uiso   1.00
C207   C     0.12477   0.07546   0.80455   0.00000  Uiso   1.00
H208   H     0.99598   0.01297   0.58013   0.00000  Uiso   1.00
H209   H     0.94278   0.11020   0.57374   0.00000  Uiso   1.00
H210   H     0.92166   0.87279   0.49734   0.00000  Uiso   1.00
H211   H     0.13177   0.05587   0.65557   0.00000  Uiso   1.00
H212   H     0.87072   0.21798   0.58825   0.00000  Uiso   1.00
H213   H     0.82620   0.71737   0.42717   0.00000  Uiso   1.00
H214   H     0.26927   0.10343   0.76083   0.00000  Uiso   1.00
H215   H     0.89540   0.01292   0.74664   0.00000  Uiso   1.00
H216   H     0.83668   0.11016   0.74939   0.00000  Uiso   1.00
H217   H     0.81556   0.87274   0.67299   0.00000  Uiso   1.00
H218   H     0.02567   0.05582   0.83122   0.00000  Uiso   1.00
H219   H     0.78460   0.21794   0.73081   0.00000  Uiso   1.00
H220   H     0.74009   0.71733   0.56973   0.00000  Uiso   1.00
H221   H     0.18316   0.10339   0.90339   0.00000  Uiso   1.00
O222   O     0.79082   0.28191   0.65832   0.00000  Uiso   1.00
O223   O     0.73243   0.62512   0.44699   0.00000  Uiso   1.00
O224   O     0.31373   0.13163   0.88474   0.00000  Uiso   1.00
N225   N     0.85852   0.20464   0.62143   0.00000  Uiso   1.00
N226   N     0.81689   0.73660   0.47083   0.00000  Uiso   1.00
N227   N     0.23113   0.09751   0.78276   0.00000  Uiso   1.00
N228   N     0.81218   0.20462   0.69814   0.00000  Uiso   1.00
N229   N     0.77055   0.73658   0.54754   0.00000  Uiso   1.00
N230   N     0.18479   0.09749   0.85947   0.00000  Uiso   1.00
C231   C     0.96299   0.59440   0.10811   0.00000  Uiso   1.00
C232   C     0.91327   0.52483   0.04190   0.00000  Uiso   1.00
C233   C     0.91753   0.45473   0.01888   0.00000  Uiso   1.00
C234   C     0.86702   0.39833   0.95702   0.00000  Uiso   1.00
C235   C     0.79783   0.28827   0.85991   0.00000  Uiso   1.00
C236   C     0.91053   0.62356   0.14395   0.00000  Uiso   1.00
C237   C     0.91250   0.63648   0.20673   0.00000  Uiso   1.00
C238   C     0.85970   0.66321   0.23078   0.00000  Uiso   1.00
C239   C     0.78629   0.70648   0.29212   0.00000  Uiso   1.00
C240   C     0.99851   0.65160   0.09126   0.00000  Uiso   1.00
C241   C     0.07445   0.68812   0.10977   0.00000  Uiso   1.00
C242   C     0.09572   0.73846   0.08947   0.00000  Uiso   1.00
C243   C     0.15892   0.82528   0.06901   0.00000  Uiso   1.00
C244   C     0.86573   0.61890   0.03918   0.00000  Uiso   1.00
C245   C     0.86044   0.53814   0.00446   0.00000  Uiso   1.00
C246   C     0.80991   0.48183   0.94261   0.00000  Uiso   1.00
C247   C     0.81410   0.41166   0.91951   0.00000  Uiso   1.00
C248   C     0.85770   0.63687   0.10651   0.00000  Uiso   1.00
C249   C     0.80489   0.66359   0.13046   0.00000  Uiso   1.00
C250   C     0.80677   0.67654   0.19327   0.00000  Uiso   1.00
C251   C     0.94568   0.66491   0.05382   0.00000  Uiso   1.00
C252   C     0.96684   0.71522   0.03349   0.00000  Uiso   1.00
C253   C     0.04280   0.75180   0.05196   0.00000  Uiso   1.00
H254   H     0.00412   0.58404   0.13727   0.00000  Uiso   1.00
H255   H     0.95842   0.44445   0.04787   0.00000  Uiso   1.00
H256   H     0.95340   0.62618   0.23570   0.00000  Uiso   1.00
H257   H     0.11532   0.67780   0.13874   0.00000  Uiso   1.00
H258   H     0.88443   0.29554   0.93226   0.00000  Uiso   1.00
H259   H     0.87386   0.67877   0.32831   0.00000  Uiso   1.00
H260   H     0.21531   0.78762   0.12386   0.00000  Uiso   1.00
H261   H     0.82459   0.62927   0.01003   0.00000  Uiso   1.00
H262   H     0.76904   0.49215   0.91365   0.00000  Uiso   1.00
H263   H     0.76401   0.67388   0.10148   0.00000  Uiso   1.00
H264   H     0.92594   0.72550   0.00452   0.00000  Uiso   1.00
H265   H     0.73072   0.33426   0.82332   0.00000  Uiso   1.00
H266   H     0.72015   0.71749   0.21937   0.00000  Uiso   1.00
H267   H     0.06160   0.82634   0.01492   0.00000  Uiso   1.00
O268   O     0.77425   0.22388   0.81670   0.00000  Uiso   1.00
O269   O     0.76039   0.72667   0.33630   0.00000  Uiso   1.00
O270   O     0.20837   0.86948   0.06807   0.00000  Uiso   1.00
N271   N     0.85589   0.32348   0.91984   0.00000  Uiso   1.00
N272   N     0.84600   0.68176   0.29012   0.00000  Uiso   1.00
N273   N     0.16522   0.78354   0.09899   0.00000  Uiso   1.00
N274   N     0.77318   0.34431   0.86122   0.00000  Uiso   1.00
N275   N     0.76329   0.70259   0.23150   0.00000  Uiso   1.00
N276   N     0.08251   0.80437   0.04037   0.00000  Uiso   1.00
C277   C     0.34137   0.44575   0.11229   0.00000  Uiso   1.00
C278   C     0.35927   0.42451   0.04817   0.00000  Uiso   1.00
C279   C     0.38988   0.47344   0.02907   0.00000  Uiso   1.00
C280   C     0.40204   0.44304   0.96857   0.00000  Uiso   1.00
C281   C     0.43257   0.42171   0.87510   0.00000  Uiso   1.00
C282   C     0.38354   0.41435   0.14710   0.00000  Uiso   1.00
C283   C     0.43455   0.45474   0.21117   0.00000  Uiso   1.00
C284   C     0.46714   0.41577   0.23395   0.00000  Uiso   1.00
C285   C     0.53531   0.37866   0.29408   0.00000  Uiso   1.00
C286   C     0.25881   0.40177   0.09125   0.00000  Uiso   1.00
C287   C     0.20495   0.43158   0.10839   0.00000  Uiso   1.00
C288   C     0.13252   0.38202   0.08416   0.00000  Uiso   1.00
C289   C     0.00703   0.32537   0.05758   0.00000  Uiso   1.00
C290   C     0.30852   0.30475   0.03882   0.00000  Uiso   1.00
C291   C     0.34143   0.34792   0.00827   0.00000  Uiso   1.00
C292   C     0.35354   0.31744   0.94778   0.00000  Uiso   1.00
C293   C     0.38416   0.36631   0.92859   0.00000  Uiso   1.00
C294   C     0.36570   0.33776   0.10719   0.00000  Uiso   1.00
C295   C     0.39821   0.29873   0.12988   0.00000  Uiso   1.00
C296   C     0.44926   0.33905   0.19397   0.00000  Uiso   1.00
C297   C     0.24096   0.32518   0.05134   0.00000  Uiso   1.00
C298   C     0.16861   0.27557   0.02709   0.00000  Uiso   1.00
C299   C     0.11464   0.30529   0.04418   0.00000  Uiso   1.00
H300   H     0.35527   0.50538   0.14336   0.00000  Uiso   1.00
H301   H     0.40369   0.53271   0.05997   0.00000  Uiso   1.00
H302   H     0.44834   0.51400   0.24205   0.00000  Uiso   1.00
H303   H     0.21878   0.49085   0.13927   0.00000  Uiso   1.00
H304   H     0.44953   0.52924   0.94993   0.00000  Uiso   1.00
H305   H     0.54367   0.48979   0.33385   0.00000  Uiso   1.00
H306   H     0.05958   0.44096   0.11714   0.00000  Uiso   1.00
H307   H     0.29463   0.24511   0.00775   0.00000  Uiso   1.00
H308   H     0.33972   0.25816   0.91691   0.00000  Uiso   1.00
H309   H     0.38439   0.23946   0.09899   0.00000  Uiso   1.00
H310   H     0.15482   0.21630   0.99621   0.00000  Uiso   1.00
H311   H     0.39762   0.30641   0.83382   0.00000  Uiso   1.00
H312   H     0.49176   0.26696   0.21774   0.00000  Uiso   1.00
H313   H     0.00767   0.21813   0.00102   0.00000  Uiso   1.00
O314   O     0.45435   0.43111   0.83458   0.00000  Uiso   1.00
O315   O     0.57785   0.37935   0.33827   0.00000  Uiso   1.00
O316   O     0.94274   0.31528   0.05394   0.00000  Uiso   1.00
N317   N     0.43111   0.47501   0.93506   0.00000  Uiso   1.00
N318   N     0.51914   0.43812   0.29400   0.00000  Uiso   1.00
N319   N     0.06656   0.39247   0.09141   0.00000  Uiso   1.00
N320   N     0.40317   0.35510   0.87258   0.00000  Uiso   1.00
N321   N     0.49120   0.31822   0.23152   0.00000  Uiso   1.00
N322   N     0.03862   0.27256   0.02893   0.00000  Uiso   1.00
C323   C     0.23605   0.89913   0.29900   0.00000  Uiso   1.00
C324   C     0.28753   0.96574   0.36643   0.00000  Uiso   1.00
C325   C     0.28752   0.97506   0.42782   0.00000  Uiso   1.00
C326   C     0.33899   0.03988   0.48371   0.00000  Uiso   1.00
C327   C     0.41140   0.13514   0.58923   0.00000  Uiso   1.00
C328   C     0.28688   0.86891   0.26149   0.00000  Uiso   1.00
C329   C     0.28629   0.79681   0.23465   0.00000  Uiso   1.00
C330   C     0.33720   0.78011   0.20219   0.00000  Uiso   1.00
C331   C     0.40855   0.72502   0.14475   0.00000  Uiso   1.00
C332   C     0.19642   0.93028   0.26228   0.00000  Uiso   1.00
C333   C     0.11977   0.90977   0.23607   0.00000  Uiso   1.00
C334   C     0.09452   0.94474   0.20426   0.00000  Uiso   1.00
C335   C     0.02541   0.98494   0.14804   0.00000  Uiso   1.00
C336   C     0.32749   0.99768   0.28908   0.00000  Uiso   1.00
C337   C     0.33720   0.01926   0.36104   0.00000  Uiso   1.00
C338   C     0.38868   0.08409   0.41685   0.00000  Uiso   1.00
C339   C     0.38874   0.09350   0.47831   0.00000  Uiso   1.00
C340   C     0.33654   0.92243   0.25610   0.00000  Uiso   1.00
C341   C     0.38746   0.90583   0.22367   0.00000  Uiso   1.00
C342   C     0.38696   0.83373   0.19679   0.00000  Uiso   1.00
C343   C     0.24608   0.98381   0.25689   0.00000  Uiso   1.00
C344   C     0.22094   0.01880   0.22510   0.00000  Uiso   1.00
C345   C     0.14428   0.99836   0.19886   0.00000  Uiso   1.00
H346   H     0.19739   0.85746   0.30319   0.00000  Uiso   1.00
H347   H     0.24907   0.93362   0.43197   0.00000  Uiso   1.00
H348   H     0.24784   0.75539   0.23882   0.00000  Uiso   1.00
H349   H     0.08135   0.86835   0.24025   0.00000  Uiso   1.00
H350   H     0.32830   0.04165   0.57237   0.00000  Uiso   1.00
H351   H     0.32569   0.66585   0.16508   0.00000  Uiso   1.00
H352   H     0.97461   0.90403   0.16810   0.00000  Uiso   1.00
H353   H     0.36616   0.03935   0.28488   0.00000  Uiso   1.00
H354   H     0.42711   0.12550   0.41266   0.00000  Uiso   1.00
H355   H     0.42588   0.94727   0.21951   0.00000  Uiso   1.00
H356   H     0.25939   0.06022   0.22094   0.00000  Uiso   1.00
H357   H     0.47281   0.19739   0.55670   0.00000  Uiso   1.00
H358   H     0.47020   0.82158   0.14941   0.00000  Uiso   1.00
H359   H     0.11912   0.05976   0.15243   0.00000  Uiso   1.00
O360   O     0.43762   0.17290   0.64893   0.00000  Uiso   1.00
O361   O     0.43419   0.67985   0.11457   0.00000  Uiso   1.00
O362   O     0.97358   0.99234   0.11853   0.00000  Uiso   1.00
N363   N     0.35394   0.06649   0.55115   0.00000  Uiso   1.00
N364   N     0.35151   0.71514   0.17037   0.00000  Uiso   1.00
N365   N     0.02327   0.93780   0.17317   0.00000  Uiso   1.00
N366   N     0.43169   0.15029   0.54272   0.00000  Uiso   1.00
N367   N     0.42926   0.79894   0.16193   0.00000  Uiso   1.00
N368   N     0.10103   0.02160   0.16474   0.00000  Uiso   1.00
C369   C     0.98947   0.72804   0.63184   0.00000  Uiso   1.00
C370   C     0.01888   0.67204   0.64050   0.00000  Uiso   1.00
C371   C     0.98773   0.59553   0.59902   0.00000  Uiso   1.00
C372   C     0.02297   0.55390   0.61544   0.00000  Uiso   1.00
C373   C     0.05891   0.46182   0.62037   0.00000  Uiso   1.00
C374   C     0.05395   0.78062   0.62910   0.00000  Uiso   1.00
C375   C     0.05227   0.79540   0.57803   0.00000  Uiso   1.00
C376   C     0.11703   0.84519   0.58486   0.00000  Uiso   1.00
C377   C     0.20740   0.92172   0.57211   0.00000  Uiso   1.00
C378   C     0.97645   0.77404   0.69646   0.00000  Uiso   1.00
C379   C     0.90961   0.78331   0.70203   0.00000  Uiso   1.00
C380   C     0.90913   0.82758   0.76558   0.00000  Uiso   1.00
C381   C     0.87916   0.89389   0.85741   0.00000  Uiso   1.00
C382   C     0.10747   0.79019   0.73478   0.00000  Uiso   1.00
C383   C     0.08298   0.70580   0.69641   0.00000  Uiso   1.00
C384   C     0.11828   0.66429   0.71291   0.00000  Uiso   1.00
C385   C     0.08718   0.58772   0.67146   0.00000  Uiso   1.00
C386   C     0.11804   0.81438   0.68501   0.00000  Uiso   1.00
C387   C     0.18282   0.86416   0.69192   0.00000  Uiso   1.00
C388   C     0.18124   0.87901   0.64088   0.00000  Uiso   1.00
C389   C     0.04054   0.80780   0.75237   0.00000  Uiso   1.00
C390   C     0.04016   0.85207   0.81592   0.00000  Uiso   1.00
C391   C     0.97334   0.86140   0.82159   0.00000  Uiso   1.00
H392   H     0.93957   0.70176   0.58831   0.00000  Uiso   1.00
H393   H     0.93813   0.56942   0.55575   0.00000  Uiso   1.00
H394   H     0.00266   0.76928   0.53477   0.00000  Uiso   1.00
H395   H     0.86002   0.75718   0.65875   0.00000  Uiso   1.00
H396   H     0.96481   0.43759   0.54430   0.00000  Uiso   1.00
H397   H     0.10087   0.85901   0.50007   0.00000  Uiso   1.00
H398   H     0.80009   0.83351   0.76151   0.00000  Uiso   1.00
H399   H     0.15737   0.81647   0.77831   0.00000  Uiso   1.00
H400   H     0.16787   0.69043   0.75618   0.00000  Uiso   1.00
H401   H     0.23241   0.89028   0.73520   0.00000  Uiso   1.00
H402   H     0.08977   0.87818   0.85918   0.00000  Uiso   1.00
H403   H     0.15128   0.53580   0.70697   0.00000  Uiso   1.00
H404   H     0.28734   0.95722   0.66275   0.00000  Uiso   1.00
H405   H     0.98656   0.93172   0.92418   0.00000  Uiso   1.00
O406   O     0.06104   0.40171   0.60764   0.00000  Uiso   1.00
O407   O     0.23954   0.95460   0.54962   0.00000  Uiso   1.00
O408   O     0.84492   0.92114   0.89262   0.00000  Uiso   1.00
N409   N     0.00724   0.47800   0.58563   0.00000  Uiso   1.00
N410   N     0.13445   0.87199   0.54427   0.00000  Uiso   1.00
N411   N     0.85326   0.84817   0.78869   0.00000  Uiso   1.00
N412   N     0.10758   0.53085   0.67316   0.00000  Uiso   1.00
N413   N     0.23479   0.92484   0.63181   0.00000  Uiso   1.00
N414   N     0.95360   0.90101   0.87623   0.00000  Uiso   1.00
C415   C     0.54009   0.57621   0.70596   0.00000  Uiso   1.00
C416   C     0.55300   0.57864   0.64584   0.00000  Uiso   1.00
C417   C     0.49779   0.55902   0.58860   0.00000  Uiso   1.00
C418   C     0.52104   0.56511   0.53924   0.00000  Uiso   1.00
C419   C     0.52955   0.56508   0.44472   0.00000  Uiso   1.00
C420   C     0.57989   0.52699   0.71613   0.00000  Uiso   1.00
C421   C     0.54729   0.46394   0.71799   0.00000  Uiso   1.00
C422   C     0.59318   0.42657   0.72782   0.00000  Uiso   1.00
C423   C     0.64346   0.34637   0.74247   0.00000  Uiso   1.00
C424   C     0.58297   0.65431   0.76559   0.00000  Uiso   1.00
C425   C     0.55296   0.69833   0.80904   0.00000  Uiso   1.00
C426   C     0.60145   0.76815   0.86051   0.00000  Uiso   1.00
C427   C     0.65650   0.88565   0.95194   0.00000  Uiso   1.00
C428   C     0.67957   0.62192   0.72011   0.00000  Uiso   1.00
C429   C     0.62876   0.60347   0.65353   0.00000  Uiso   1.00
C430   C     0.65210   0.60960   0.60425   0.00000  Uiso   1.00
C431   C     0.59693   0.58999   0.54694   0.00000  Uiso   1.00
C432   C     0.65565   0.55182   0.72382   0.00000  Uiso   1.00
C433   C     0.70160   0.51453   0.73365   0.00000  Uiso   1.00
C434   C     0.66908   0.45144   0.73552   0.00000  Uiso   1.00
C435   C     0.65873   0.67915   0.77327   0.00000  Uiso   1.00
C436   C     0.70727   0.74891   0.82469   0.00000  Uiso   1.00
C437   C     0.67734   0.79302   0.86821   0.00000  Uiso   1.00
H438   H     0.48111   0.55687   0.69998   0.00000  Uiso   1.00
H439   H     0.43916   0.53979   0.58267   0.00000  Uiso   1.00
H440   H     0.48866   0.44475   0.71205   0.00000  Uiso   1.00
H441   H     0.49433   0.67909   0.80308   0.00000  Uiso   1.00
H442   H     0.42607   0.53179   0.45599   0.00000  Uiso   1.00
H443   H     0.53044   0.33139   0.72882   0.00000  Uiso   1.00
H444   H     0.54239   0.82555   0.92077   0.00000  Uiso   1.00
H445   H     0.73855   0.64126   0.72609   0.00000  Uiso   1.00
H446   H     0.71073   0.62882   0.61021   0.00000  Uiso   1.00
H447   H     0.76023   0.53376   0.73959   0.00000  Uiso   1.00
H448   H     0.76589   0.76811   0.83062   0.00000  Uiso   1.00
H449   H     0.64648   0.60404   0.47834   0.00000  Uiso   1.00
H450   H     0.75085   0.40364   0.75118   0.00000  Uiso   1.00
H451   H     0.76280   0.89780   0.94313   0.00000  Uiso   1.00
O452   O     0.51332   0.55819   0.39045   0.00000  Uiso   1.00
O453   O     0.65026   0.29527   0.74842   0.00000  Uiso   1.00
O454   O     0.66594   0.94360   0.00025   0.00000  Uiso   1.00
N455   N     0.48176   0.55052   0.47715   0.00000  Uiso   1.00
N456   N     0.57934   0.36314   0.73223   0.00000  Uiso   1.00
N457   N     0.59051   0.82514   0.91170   0.00000  Uiso   1.00
N458   N     0.60036   0.58939   0.48918   0.00000  Uiso   1.00
N459   N     0.69794   0.40202   0.74426   0.00000  Uiso   1.00
N460   N     0.70912   0.86402   0.92373   0.00000  Uiso   1.00
C461   C     0.74720   0.08796   0.42155   0.00000  Uiso   1.00
C462   C     0.73530   0.01896   0.42734   0.00000  Uiso   1.00
C463   C     0.70962   0.00869   0.47401   0.00000  Uiso   1.00
C464   C     0.70255   0.94165   0.47106   0.00000  Uiso   1.00
C465   C     0.68137   0.84285   0.48736   0.00000  Uiso   1.00
C466   C     0.82841   0.11465   0.42612   0.00000  Uiso   1.00
C467   C     0.88102   0.18485   0.47176   0.00000  Uiso   1.00
C468   C     0.95233   0.19837   0.46777   0.00000  Uiso   1.00
C469   C     0.07570   0.24817   0.48215   0.00000  Uiso   1.00
C470   C     0.70059   0.06119   0.35071   0.00000  Uiso   1.00
C471   C     0.64573   0.08646   0.33296   0.00000  Uiso   1.00
C472   C     0.60943   0.05498   0.26548   0.00000  Uiso   1.00
C473   C     0.53432   0.02177   0.16278   0.00000  Uiso   1.00
C474   C     0.78031   0.98716   0.33329   0.00000  Uiso   1.00
C475   C     0.75328   0.96421   0.37940   0.00000  Uiso   1.00
C476   C     0.74625   0.89717   0.37637   0.00000  Uiso   1.00
C477   C     0.72056   0.88680   0.42303   0.00000  Uiso   1.00
C478   C     0.84640   0.05991   0.37818   0.00000  Uiso   1.00
C479   C     0.91765   0.07333   0.37412   0.00000  Uiso   1.00
C480   C     0.97035   0.14353   0.41975   0.00000  Uiso   1.00
C481   C     0.71856   0.00644   0.30277   0.00000  Uiso   1.00
C482   C     0.68235   0.97493   0.23531   0.00000  Uiso   1.00
C483   C     0.62744   0.00013   0.21745   0.00000  Uiso   1.00
H484   H     0.73321   0.13059   0.45887   0.00000  Uiso   1.00
H485   H     0.69572   0.05107   0.51111   0.00000  Uiso   1.00
H486   H     0.86709   0.22721   0.50885   0.00000  Uiso   1.00
H487   H     0.63183   0.12882   0.37007   0.00000  Uiso   1.00
H488   H     0.66211   0.93879   0.54790   0.00000  Uiso   1.00
H489   H     0.02344   0.31019   0.54312   0.00000  Uiso   1.00
H490   H     0.52735   0.10272   0.25047   0.00000  Uiso   1.00
H491   H     0.79431   0.94454   0.29596   0.00000  Uiso   1.00
H492   H     0.76017   0.85481   0.33926   0.00000  Uiso   1.00
H493   H     0.93154   0.03095   0.33701   0.00000  Uiso   1.00
H494   H     0.69628   0.93257   0.19822   0.00000  Uiso   1.00
H495   H     0.71442   0.77949   0.40843   0.00000  Uiso   1.00
H496   H     0.07576   0.15090   0.40365   0.00000  Uiso   1.00
H497   H     0.57967   0.94343   0.11100   0.00000  Uiso   1.00
O498   O     0.66473   0.80348   0.50960   0.00000  Uiso   1.00
O499   O     0.13878   0.29075   0.50333   0.00000  Uiso   1.00
O500   O     0.48792   0.01856   0.11937   0.00000  Uiso   1.00
N501   N     0.67909   0.91360   0.50912   0.00000  Uiso   1.00
N502   N     0.01692   0.26084   0.50467   0.00000  Uiso   1.00
N503   N     0.55313   0.06689   0.23106   0.00000  Uiso   1.00
N504   N     0.70724   0.82789   0.43407   0.00000  Uiso   1.00
N505   N     0.04507   0.17513   0.42962   0.00000  Uiso   1.00
N506   N     0.58128   0.98118   0.15601   0.00000  Uiso   1.00
C507   C     0.65723   0.21916   0.98245   0.00000  Uiso   1.00
C508   C     0.72036   0.27322   0.04840   0.00000  Uiso   1.00
C509   C     0.75590   0.34818   0.07291   0.00000  Uiso   1.00
C510   C     0.81234   0.38815   0.13422   0.00000  Uiso   1.00
C511   C     0.90733   0.47722   0.23121   0.00000  Uiso   1.00
C512   C     0.68382   0.15650   0.94429   0.00000  Uiso   1.00
C513   C     0.68863   0.13332   0.88125   0.00000  Uiso   1.00
C514   C     0.71430   0.07503   0.85493   0.00000  Uiso   1.00
C515   C     0.75251   0.98286   0.79026   0.00000  Uiso   1.00
C516   C     0.59290   0.18507   0.99942   0.00000  Uiso   1.00
C517   C     0.52125   0.18589   0.98273   0.00000  Uiso   1.00
C518   C     0.47037   0.15164   0.00280   0.00000  Uiso   1.00
C519   C     0.36740   0.10383   0.02374   0.00000  Uiso   1.00
C520   C     0.69426   0.15685   0.04776   0.00000  Uiso   1.00
C521   C     0.74047   0.23937   0.08387   0.00000  Uiso   1.00
C522   C     0.79688   0.27924   0.14516   0.00000  Uiso   1.00
C523   C     0.83250   0.35424   0.16976   0.00000  Uiso   1.00
C524   C     0.70393   0.12265   0.97976   0.00000  Uiso   1.00
C525   C     0.72960   0.06438   0.95351   0.00000  Uiso   1.00
C526   C     0.73445   0.04112   0.89046   0.00000  Uiso   1.00
C527   C     0.61301   0.15122   0.03489   0.00000  Uiso   1.00
C528   C     0.56223   0.11695   0.05499   0.00000  Uiso   1.00
C529   C     0.49052   0.11773   0.03834   0.00000  Uiso   1.00
H530   H     0.64157   0.24551   0.95483   0.00000  Uiso   1.00
H531   H     0.74032   0.37435   0.04544   0.00000  Uiso   1.00
H532   H     0.67305   0.15952   0.85381   0.00000  Uiso   1.00
H533   H     0.50570   0.21209   0.95528   0.00000  Uiso   1.00
H534   H     0.85870   0.50226   0.16153   0.00000  Uiso   1.00
H535   H     0.71683   0.04927   0.75747   0.00000  Uiso   1.00
H536   H     0.36394   0.16011   0.97142   0.00000  Uiso   1.00
H537   H     0.70992   0.13050   0.07538   0.00000  Uiso   1.00
H538   H     0.81243   0.25303   0.17260   0.00000  Uiso   1.00
H539   H     0.74516   0.03820   0.98098   0.00000  Uiso   1.00
H540   H     0.57781   0.09077   0.08244   0.00000  Uiso   1.00
H541   H     0.91723   0.40379   0.26474   0.00000  Uiso   1.00
H542   H     0.77535   0.95079   0.86067   0.00000  Uiso   1.00
H543   H     0.42247   0.06164   0.07463   0.00000  Uiso   1.00
O544   O     0.95418   0.53570   0.27490   0.00000  Uiso   1.00
O545   O     0.76803   0.94138   0.74479   0.00000  Uiso   1.00
O546   O     0.30506   0.08681   0.02549   0.00000  Uiso   1.00
N547   N     0.85840   0.46227   0.17248   0.00000  Uiso   1.00
N548   N     0.72577   0.03876   0.79471   0.00000  Uiso   1.00
N549   N     0.39584   0.14237   0.99472   0.00000  Uiso   1.00
N550   N     0.88989   0.40929   0.22802   0.00000  Uiso   1.00
N551   N     0.75726   0.98577   0.85025   0.00000  Uiso   1.00
N552   N     0.42733   0.08939   0.05026   0.00000  Uiso   1.00
