data_job_07036
_audit_creation_date              2018-12-19
_audit_creation_method            'Materials Studio'
_symmetry_space_group_name_H-M    'P1'
_symmetry_Int_Tables_number       1
_symmetry_cell_setting            triclinic
loop_
_symmetry_equiv_pos_as_xyz
  x,y,z
_cell_length_a                    20.6540
_cell_length_b                    21.5083
_cell_length_c                    23.3877
_cell_angle_alpha                 72.9345
_cell_angle_beta                  94.3141
_cell_angle_gamma                 64.5214
loop_
_atom_site_label
_atom_site_type_symbol
_atom_site_fract_x
_atom_site_fract_y
_atom_site_fract_z
_atom_site_U_iso_or_equiv
_atom_site_adp_type
_atom_site_occupancy
C1     C     0.49793   0.87881   0.93670   0.00000  Uiso   1.00
C2     C     0.49464   0.81091   0.97751   0.00000  Uiso   1.00
C3     C     0.55357   0.73997   0.00369   0.00000  Uiso   1.00
C4     C     0.53923   0.68540   0.03956   0.00000  Uiso   1.00
C5     C     0.54487   0.57754   0.10148   0.00000  Uiso   1.00
C6     C     0.44071   0.90982   0.87686   0.00000  Uiso   1.00
C7     C     0.45429   0.92206   0.81842   0.00000  Uiso   1.00
C8     C     0.39455   0.95077   0.76956   0.00000  Uiso   1.00
C9     C     0.31645   0.99654   0.67522   0.00000  Uiso   1.00
C10    C     0.46919   0.93572   0.96748   0.00000  Uiso   1.00
C11    C     0.50670   0.96975   0.98522   0.00000  Uiso   1.00
C12    C     0.47093   0.02028   0.01264   0.00000  Uiso   1.00
C13    C     0.43705   0.10625   0.05900   0.00000  Uiso   1.00
C14    C     0.36769   0.90803   0.95385   0.00000  Uiso   1.00
C15    C     0.42390   0.82678   0.98682   0.00000  Uiso   1.00
C16    C     0.40947   0.77230   0.02266   0.00000  Uiso   1.00
C17    C     0.46836   0.70130   0.04889   0.00000  Uiso   1.00
C18    C     0.36997   0.92570   0.88617   0.00000  Uiso   1.00
C19    C     0.31019   0.95440   0.83739   0.00000  Uiso   1.00
C20    C     0.32368   0.96667   0.77889   0.00000  Uiso   1.00
C21    C     0.39845   0.95159   0.97679   0.00000  Uiso   1.00
C22    C     0.36260   0.00208   0.00419   0.00000  Uiso   1.00
C23    C     0.40006   0.03618   0.02197   0.00000  Uiso   1.00
H24    H     0.55301   0.86645   0.92945   0.00000  Uiso   1.00
H25    H     0.60830   0.72771   0.99647   0.00000  Uiso   1.00
H26    H     0.50904   0.90978   0.81123   0.00000  Uiso   1.00
H27    H     0.56144   0.95746   0.97800   0.00000  Uiso   1.00
H28    H     0.63841   0.58088   0.07486   0.00000  Uiso   1.00
H29    H     0.42910   0.96481   0.68427   0.00000  Uiso   1.00
H30    H     0.53961   0.06535   0.03595   0.00000  Uiso   1.00
H31    H     0.31261   0.92039   0.96109   0.00000  Uiso   1.00
H32    H     0.35472   0.78461   0.02986   0.00000  Uiso   1.00
H33    H     0.25546   0.96668   0.84461   0.00000  Uiso   1.00
H34    H     0.30786   0.01435   0.01139   0.00000  Uiso   1.00
H35    H     0.43259   0.62706   0.10196   0.00000  Uiso   1.00
H36    H     0.22328   0.01100   0.71136   0.00000  Uiso   1.00
H37    H     0.33379   0.11153   0.06304   0.00000  Uiso   1.00
O38    O     0.56753   0.51366   0.13305   0.00000  Uiso   1.00
O39    O     0.29293   0.01739   0.62061   0.00000  Uiso   1.00
O40    O     0.43791   0.14928   0.08201   0.00000  Uiso   1.00
N41    N     0.58419   0.61038   0.07181   0.00000  Uiso   1.00
N42    N     0.38850   0.96933   0.70663   0.00000  Uiso   1.00
N43    N     0.49181   0.06334   0.03541   0.00000  Uiso   1.00
N44    N     0.47344   0.63523   0.08639   0.00000  Uiso   1.00
N45    N     0.27775   0.99418   0.72121   0.00000  Uiso   1.00
N46    N     0.38106   0.08819   0.04999   0.00000  Uiso   1.00
C47    C     0.75569   0.69923   0.99623   0.00000  Uiso   1.00
C48    C     0.73711   0.75800   0.02514   0.00000  Uiso   1.00
C49    C     0.69867   0.76391   0.07114   0.00000  Uiso   1.00
C50    C     0.68730   0.82156   0.09140   0.00000  Uiso   1.00
C51    C     0.65444   0.90525   0.14005   0.00000  Uiso   1.00
C52    C     0.72367   0.74101   0.92724   0.00000  Uiso   1.00
C53    C     0.67395   0.73262   0.89094   0.00000  Uiso   1.00
C54    C     0.65127   0.77596   0.82878   0.00000  Uiso   1.00
C55    C     0.59759   0.83322   0.72544   0.00000  Uiso   1.00
C56    C     0.83927   0.66162   0.00491   0.00000  Uiso   1.00
C57    C     0.88675   0.58649   0.03389   0.00000  Uiso   1.00
C58    C     0.96140   0.56299   0.03711   0.00000  Uiso   1.00
C59    C     0.08720   0.49701   0.05435   0.00000  Uiso   1.00
C60    C     0.80383   0.79107   0.95041   0.00000  Uiso   1.00
C61    C     0.76326   0.80789   0.00024   0.00000  Uiso   1.00
C62    C     0.75194   0.86553   0.02044   0.00000  Uiso   1.00
C63    C     0.71349   0.87153   0.06647   0.00000  Uiso   1.00
C64    C     0.74982   0.79089   0.90235   0.00000  Uiso   1.00
C65    C     0.72721   0.83424   0.84024   0.00000  Uiso   1.00
C66    C     0.67746   0.82593   0.80385   0.00000  Uiso   1.00
C67    C     0.86542   0.71151   0.98002   0.00000  Uiso   1.00
C68    C     0.94001   0.68812   0.98319   0.00000  Uiso   1.00
C69    C     0.98759   0.61297   0.01217   0.00000  Uiso   1.00
H70    H     0.73533   0.66039   0.01560   0.00000  Uiso   1.00
H71    H     0.67844   0.72530   0.09039   0.00000  Uiso   1.00
H72    H     0.65373   0.69401   0.91021   0.00000  Uiso   1.00
H73    H     0.86649   0.54791   0.05314   0.00000  Uiso   1.00
H74    H     0.62688   0.81928   0.16230   0.00000  Uiso   1.00
H75    H     0.57479   0.75329   0.78239   0.00000  Uiso   1.00
H76    H     0.02344   0.44519   0.08379   0.00000  Uiso   1.00
H77    H     0.82419   0.82992   0.93103   0.00000  Uiso   1.00
H78    H     0.77218   0.90413   0.00117   0.00000  Uiso   1.00
H79    H     0.74746   0.87284   0.82099   0.00000  Uiso   1.00
H80    H     0.96023   0.72674   0.96392   0.00000  Uiso   1.00
H81    H     0.70296   0.96443   0.08989   0.00000  Uiso   1.00
H82    H     0.65087   0.89843   0.70997   0.00000  Uiso   1.00
H83    H     0.09952   0.59034   0.01137   0.00000  Uiso   1.00
O84    O     0.62908   0.93763   0.17375   0.00000  Uiso   1.00
O85    O     0.56075   0.85104   0.67532   0.00000  Uiso   1.00
O86    O     0.14937   0.44683   0.07075   0.00000  Uiso   1.00
N87    N     0.65193   0.84325   0.13564   0.00000  Uiso   1.00
N88    N     0.60322   0.78155   0.78045   0.00000  Uiso   1.00
N89    N     0.02268   0.49351   0.06221   0.00000  Uiso   1.00
N90    N     0.69287   0.92135   0.09668   0.00000  Uiso   1.00
N91    N     0.64416   0.85966   0.74148   0.00000  Uiso   1.00
N92    N     0.06362   0.57162   0.02325   0.00000  Uiso   1.00
C93    C     0.65640   0.51421   0.93162   0.00000  Uiso   1.00
C94    C     0.72247   0.46049   0.98576   0.00000  Uiso   1.00
C95    C     0.75133   0.47873   0.02999   0.00000  Uiso   1.00
C96    C     0.81196   0.42162   0.07581   0.00000  Uiso   1.00
C97    C     0.90992   0.34927   0.15963   0.00000  Uiso   1.00
C98    C     0.68370   0.50646   0.87403   0.00000  Uiso   1.00
C99    C     0.67996   0.56336   0.82430   0.00000  Uiso   1.00
C100   C     0.70795   0.54495   0.77606   0.00000  Uiso   1.00
C101   C     0.74568   0.54399   0.68639   0.00000  Uiso   1.00
C102   C     0.60165   0.48393   0.93694   0.00000  Uiso   1.00
C103   C     0.52890   0.52191   0.94010   0.00000  Uiso   1.00
C104   C     0.48781   0.48453   0.94480   0.00000  Uiso   1.00
C105   C     0.39813   0.44859   0.95282   0.00000  Uiso   1.00
C106   C     0.71275   0.38033   0.93435   0.00000  Uiso   1.00
C107   C     0.75308   0.38777   0.98724   0.00000  Uiso   1.00
C108   C     0.81368   0.33061   0.03301   0.00000  Uiso   1.00
C109   C     0.84263   0.34877   0.07729   0.00000  Uiso   1.00
C110   C     0.71431   0.43375   0.87551   0.00000  Uiso   1.00
C111   C     0.74231   0.41524   0.82732   0.00000  Uiso   1.00
C112   C     0.73862   0.47210   0.77754   0.00000  Uiso   1.00
C113   C     0.63226   0.41122   0.93843   0.00000  Uiso   1.00
C114   C     0.59126   0.37378   0.94312   0.00000  Uiso   1.00
C115   C     0.51847   0.41168   0.94629   0.00000  Uiso   1.00
H116   H     0.63256   0.57082   0.93046   0.00000  Uiso   1.00
H117   H     0.72763   0.53502   0.02882   0.00000  Uiso   1.00
H118   H     0.65626   0.61963   0.82316   0.00000  Uiso   1.00
H119   H     0.50524   0.57818   0.93895   0.00000  Uiso   1.00
H120   H     0.84654   0.46325   0.13851   0.00000  Uiso   1.00
H121   H     0.69604   0.64168   0.70486   0.00000  Uiso   1.00
H122   H     0.37757   0.55426   0.94901   0.00000  Uiso   1.00
H123   H     0.73659   0.32371   0.93551   0.00000  Uiso   1.00
H124   H     0.83736   0.27434   0.03415   0.00000  Uiso   1.00
H125   H     0.76599   0.35897   0.82849   0.00000  Uiso   1.00
H126   H     0.61497   0.31751   0.94427   0.00000  Uiso   1.00
H127   H     0.93560   0.25168   0.14283   0.00000  Uiso   1.00
H128   H     0.78510   0.43011   0.70918   0.00000  Uiso   1.00
H129   H     0.46663   0.34269   0.95333   0.00000  Uiso   1.00
O130   O     0.95550   0.32946   0.20545   0.00000  Uiso   1.00
O131   O     0.75803   0.56355   0.63652   0.00000  Uiso   1.00
O132   O     0.34021   0.44886   0.95684   0.00000  Uiso   1.00
N133   N     0.85366   0.42023   0.12600   0.00000  Uiso   1.00
N134   N     0.71296   0.58705   0.72057   0.00000  Uiso   1.00
N135   N     0.41521   0.50533   0.94881   0.00000  Uiso   1.00
N136   N     0.90158   0.30639   0.12832   0.00000  Uiso   1.00
N137   N     0.76089   0.47320   0.72289   0.00000  Uiso   1.00
N138   N     0.46314   0.39148   0.95113   0.00000  Uiso   1.00
C139   C     0.31935   0.47391   0.54700   0.00000  Uiso   1.00
C140   C     0.27492   0.43690   0.57532   0.00000  Uiso   1.00
C141   C     0.23286   0.45507   0.61717   0.00000  Uiso   1.00
C142   C     0.19632   0.41467   0.63762   0.00000  Uiso   1.00
C143   C     0.12647   0.36582   0.68472   0.00000  Uiso   1.00
C144   C     0.29151   0.50128   0.47750   0.00000  Uiso   1.00
C145   C     0.26341   0.57358   0.43711   0.00000  Uiso   1.00
C146   C     0.24085   0.58738   0.37522   0.00000  Uiso   1.00
C147   C     0.19682   0.63847   0.27046   0.00000  Uiso   1.00
C148   C     0.39842   0.41227   0.56205   0.00000  Uiso   1.00
C149   C     0.46021   0.40973   0.59274   0.00000  Uiso   1.00
C150   C     0.52766   0.34859   0.60203   0.00000  Uiso   1.00
C151   C     0.64961   0.26147   0.62854   0.00000  Uiso   1.00
C152   C     0.32927   0.36987   0.50890   0.00000  Uiso   1.00
C153   C     0.28030   0.38039   0.55462   0.00000  Uiso   1.00
C154   C     0.24382   0.33995   0.57501   0.00000  Uiso   1.00
C155   C     0.20171   0.35805   0.61689   0.00000  Uiso   1.00
C156   C     0.29690   0.44477   0.45681   0.00000  Uiso   1.00
C157   C     0.27438   0.45847   0.39496   0.00000  Uiso   1.00
C158   C     0.24625   0.53077   0.35449   0.00000  Uiso   1.00
C159   C     0.40380   0.35575   0.54136   0.00000  Uiso   1.00
C160   C     0.47117   0.29461   0.55059   0.00000  Uiso   1.00
C161   C     0.53305   0.29198   0.58129   0.00000  Uiso   1.00
H162   H     0.31516   0.51792   0.56310   0.00000  Uiso   1.00
H163   H     0.22870   0.49881   0.63317   0.00000  Uiso   1.00
H164   H     0.25926   0.61730   0.45314   0.00000  Uiso   1.00
H165   H     0.45602   0.45347   0.60875   0.00000  Uiso   1.00
H166   H     0.13519   0.45272   0.70170   0.00000  Uiso   1.00
H167   H     0.19965   0.70257   0.32211   0.00000  Uiso   1.00
H168   H     0.61456   0.35710   0.65024   0.00000  Uiso   1.00
H169   H     0.33346   0.32587   0.49278   0.00000  Uiso   1.00
H170   H     0.24800   0.29622   0.55899   0.00000  Uiso   1.00
H171   H     0.27856   0.41472   0.37896   0.00000  Uiso   1.00
H172   H     0.47532   0.25089   0.53457   0.00000  Uiso   1.00
H173   H     0.15085   0.28830   0.64150   0.00000  Uiso   1.00
H174   H     0.21532   0.53814   0.26190   0.00000  Uiso   1.00
H175   H     0.63022   0.19267   0.59003   0.00000  Uiso   1.00
O176   O     0.08645   0.35449   0.71641   0.00000  Uiso   1.00
O177   O     0.17104   0.68227   0.21839   0.00000  Uiso   1.00
O178   O     0.71538   0.22903   0.64889   0.00000  Uiso   1.00
N179   N     0.15062   0.41808   0.67846   0.00000  Uiso   1.00
N180   N     0.21087   0.65168   0.32356   0.00000  Uiso   1.00
N181   N     0.59878   0.32870   0.63032   0.00000  Uiso   1.00
N182   N     0.15905   0.32961   0.64606   0.00000  Uiso   1.00
N183   N     0.21930   0.56320   0.29116   0.00000  Uiso   1.00
N184   N     0.60721   0.24023   0.59792   0.00000  Uiso   1.00
C185   C     0.12569   0.95226   0.45238   0.00000  Uiso   1.00
C186   C     0.17957   0.89160   0.51179   0.00000  Uiso   1.00
C187   C     0.19522   0.81810   0.53172   0.00000  Uiso   1.00
C188   C     0.24615   0.77124   0.58736   0.00000  Uiso   1.00
C189   C     0.32467   0.67311   0.67435   0.00000  Uiso   1.00
C190   C     0.16985   0.98502   0.41738   0.00000  Uiso   1.00
C191   C     0.17731   0.99009   0.35794   0.00000  Uiso   1.00
C192   C     0.22005   0.02189   0.33410   0.00000  Uiso   1.00
C193   C     0.28343   0.06886   0.27450   0.00000  Uiso   1.00
C194   C     0.07057   0.01269   0.47139   0.00000  Uiso   1.00
C195   C     0.99455   0.04104   0.45734   0.00000  Uiso   1.00
C196   C     0.95371   0.09615   0.47896   0.00000  Uiso   1.00
C197   C     0.86294   0.18608   0.50322   0.00000  Uiso   1.00
C198   C     0.18832   0.99974   0.51573   0.00000  Uiso   1.00
C199   C     0.21359   0.91738   0.54620   0.00000  Uiso   1.00
C200   C     0.26452   0.87063   0.60181   0.00000  Uiso   1.00
C201   C     0.28023   0.79707   0.62183   0.00000  Uiso   1.00
C202   C     0.20387   0.01081   0.45179   0.00000  Uiso   1.00
C203   C     0.24661   0.04262   0.42803   0.00000  Uiso   1.00
C204   C     0.25413   0.04772   0.36857   0.00000  Uiso   1.00
C205   C     0.10459   0.03848   0.50580   0.00000  Uiso   1.00
C206   C     0.06385   0.09356   0.52744   0.00000  Uiso   1.00
C207   C     0.98779   0.12199   0.51343   0.00000  Uiso   1.00
H208   H     0.09920   0.93219   0.42559   0.00000  Uiso   1.00
H209   H     0.16888   0.79816   0.50508   0.00000  Uiso   1.00
H210   H     0.15097   0.97013   0.33132   0.00000  Uiso   1.00
H211   H     0.96825   0.02107   0.43071   0.00000  Uiso   1.00
H212   H     0.26116   0.66094   0.60837   0.00000  Uiso   1.00
H213   H     0.22337   0.02357   0.24198   0.00000  Uiso   1.00
H214   H     0.83805   0.13099   0.45157   0.00000  Uiso   1.00
H215   H     0.21481   0.01981   0.54252   0.00000  Uiso   1.00
H216   H     0.29083   0.89060   0.62843   0.00000  Uiso   1.00
H217   H     0.27292   0.06257   0.45467   0.00000  Uiso   1.00
H218   H     0.09020   0.11351   0.55406   0.00000  Uiso   1.00
H219   H     0.36014   0.73596   0.70849   0.00000  Uiso   1.00
H220   H     0.32235   0.09860   0.34209   0.00000  Uiso   1.00
H221   H     0.93704   0.20601   0.55169   0.00000  Uiso   1.00
O222   O     0.35859   0.61186   0.71282   0.00000  Uiso   1.00
O223   O     0.30900   0.08764   0.23213   0.00000  Uiso   1.00
O224   O     0.80348   0.22856   0.50711   0.00000  Uiso   1.00
N225   N     0.27401   0.69633   0.62015   0.00000  Uiso   1.00
N226   N     0.23869   0.03536   0.27760   0.00000  Uiso   1.00
N227   N     0.87845   0.13580   0.47353   0.00000  Uiso   1.00
N228   N     0.32727   0.73670   0.67402   0.00000  Uiso   1.00
N229   N     0.29195   0.07573   0.33147   0.00000  Uiso   1.00
N230   N     0.93171   0.17617   0.52741   0.00000  Uiso   1.00
C231   C     0.97479   0.76617   0.46770   0.00000  Uiso   1.00
C232   C     0.95983   0.81950   0.50197   0.00000  Uiso   1.00
C233   C     0.01209   0.83265   0.52954   0.00000  Uiso   1.00
C234   C     0.98733   0.88350   0.55861   0.00000  Uiso   1.00
C235   C     0.97540   0.96081   0.61157   0.00000  Uiso   1.00
C236   C     0.92394   0.81188   0.40363   0.00000  Uiso   1.00
C237   C     0.94603   0.81860   0.34852   0.00000  Uiso   1.00
C238   C     0.89105   0.86303   0.29481   0.00000  Uiso   1.00
C239   C     0.82339   0.92846   0.19510   0.00000  Uiso   1.00
C240   C     0.94679   0.71301   0.49928   0.00000  Uiso   1.00
C241   C     0.98809   0.63659   0.52459   0.00000  Uiso   1.00
C242   C     0.95235   0.59777   0.55140   0.00000  Uiso   1.00
C243   C     0.92018   0.50968   0.60021   0.00000  Uiso   1.00
C244   C     0.83788   0.83311   0.47030   0.00000  Uiso   1.00
C245   C     0.88546   0.85586   0.50338   0.00000  Uiso   1.00
C246   C     0.86061   0.90671   0.53242   0.00000  Uiso   1.00
C247   C     0.91283   0.91992   0.56003   0.00000  Uiso   1.00
C248   C     0.84957   0.84823   0.40504   0.00000  Uiso   1.00
C249   C     0.79455   0.89266   0.35140   0.00000  Uiso   1.00
C250   C     0.81655   0.89945   0.29622   0.00000  Uiso   1.00
C251   C     0.87243   0.74936   0.50070   0.00000  Uiso   1.00
C252   C     0.83661   0.71065   0.52747   0.00000  Uiso   1.00
C253   C     0.87785   0.63419   0.55281   0.00000  Uiso   1.00
H254   H     0.03269   0.73787   0.46660   0.00000  Uiso   1.00
H255   H     0.06964   0.80451   0.52843   0.00000  Uiso   1.00
H256   H     0.00358   0.79046   0.34744   0.00000  Uiso   1.00
H257   H     0.04564   0.60848   0.52348   0.00000  Uiso   1.00
H258   H     0.07780   0.89445   0.59759   0.00000  Uiso   1.00
H259   H     0.93852   0.86479   0.21596   0.00000  Uiso   1.00
H260   H     0.02720   0.48105   0.58718   0.00000  Uiso   1.00
H261   H     0.77998   0.86141   0.47140   0.00000  Uiso   1.00
H262   H     0.80306   0.93483   0.53350   0.00000  Uiso   1.00
H263   H     0.73701   0.92078   0.35251   0.00000  Uiso   1.00
H264   H     0.77906   0.73880   0.52855   0.00000  Uiso   1.00
H265   H     0.86144   0.00022   0.60170   0.00000  Uiso   1.00
H266   H     0.72215   0.97057   0.22007   0.00000  Uiso   1.00
H267   H     0.81084   0.58683   0.59129   0.00000  Uiso   1.00
O268   O     0.98936   0.99342   0.64039   0.00000  Uiso   1.00
O269   O     0.80662   0.95451   0.13971   0.00000  Uiso   1.00
O270   O     0.92298   0.45105   0.62675   0.00000  Uiso   1.00
N271   N     0.02371   0.90925   0.59004   0.00000  Uiso   1.00
N272   N     0.89349   0.88154   0.23325   0.00000  Uiso   1.00
N273   N     0.97640   0.52277   0.58029   0.00000  Uiso   1.00
N274   N     0.90729   0.96617   0.59226   0.00000  Uiso   1.00
N275   N     0.77707   0.93846   0.23546   0.00000  Uiso   1.00
N276   N     0.85998   0.57969   0.58250   0.00000  Uiso   1.00
C277   C     0.49449   0.25503   0.83983   0.00000  Uiso   1.00
C278   C     0.52112   0.30923   0.80772   0.00000  Uiso   1.00
C279   C     0.47836   0.38543   0.78137   0.00000  Uiso   1.00
C280   C     0.51300   0.42531   0.75423   0.00000  Uiso   1.00
C281   C     0.54300   0.51481   0.70450   0.00000  Uiso   1.00
C282   C     0.54484   0.21111   0.90421   0.00000  Uiso   1.00
C283   C     0.52202   0.20482   0.95900   0.00000  Uiso   1.00
C284   C     0.57662   0.16210   0.01308   0.00000  Uiso   1.00
C285   C     0.64344   0.09922   0.11316   0.00000  Uiso   1.00
C286   C     0.51178   0.20044   0.80664   0.00000  Uiso   1.00
C287   C     0.46115   0.18515   0.77939   0.00000  Uiso   1.00
C288   C     0.48793   0.13342   0.75133   0.00000  Uiso   1.00
C289   C     0.50340   0.05398   0.69991   0.00000  Uiso   1.00
C290   C     0.63205   0.19036   0.83847   0.00000  Uiso   1.00
C291   C     0.59584   0.27410   0.80698   0.00000  Uiso   1.00
C292   C     0.63056   0.31388   0.77986   0.00000  Uiso   1.00
C293   C     0.58785   0.39012   0.75348   0.00000  Uiso   1.00
C294   C     0.61956   0.17599   0.90347   0.00000  Uiso   1.00
C295   C     0.67421   0.13326   0.95749   0.00000  Uiso   1.00
C296   C     0.65148   0.12690   0.01234   0.00000  Uiso   1.00
C297   C     0.58649   0.16531   0.80589   0.00000  Uiso   1.00
C298   C     0.61335   0.11360   0.77787   0.00000  Uiso   1.00
C299   C     0.56278   0.09823   0.75059   0.00000  Uiso   1.00
H300   H     0.43632   0.28238   0.84041   0.00000  Uiso   1.00
H301   H     0.42054   0.41260   0.78196   0.00000  Uiso   1.00
H302   H     0.46419   0.23200   0.95956   0.00000  Uiso   1.00
H303   H     0.40334   0.21234   0.77997   0.00000  Uiso   1.00
H304   H     0.43601   0.54147   0.71685   0.00000  Uiso   1.00
H305   H     0.52804   0.16066   0.09132   0.00000  Uiso   1.00
H306   H     0.39972   0.11920   0.71263   0.00000  Uiso   1.00
H307   H     0.69022   0.16301   0.83789   0.00000  Uiso   1.00
H308   H     0.68838   0.28668   0.77930   0.00000  Uiso   1.00
H309   H     0.73202   0.10608   0.95689   0.00000  Uiso   1.00
H310   H     0.67117   0.08642   0.77731   0.00000  Uiso   1.00
H311   H     0.65339   0.43927   0.71469   0.00000  Uiso   1.00
H312   H     0.74542   0.05846   0.08916   0.00000  Uiso   1.00
H313   H     0.61711   0.01700   0.71047   0.00000  Uiso   1.00
O314   O     0.53891   0.57388   0.67729   0.00000  Uiso   1.00
O315   O     0.65965   0.07426   0.16857   0.00000  Uiso   1.00
O316   O     0.49130   0.01987   0.67174   0.00000  Uiso   1.00
N317   N     0.48742   0.50045   0.72437   0.00000  Uiso   1.00
N318   N     0.57346   0.14442   0.07448   0.00000  Uiso   1.00
N319   N     0.45350   0.10564   0.72045   0.00000  Uiso   1.00
N320   N     0.60439   0.44546   0.72321   0.00000  Uiso   1.00
N321   N     0.69044   0.08943   0.07331   0.00000  Uiso   1.00
N322   N     0.57047   0.05065   0.71929   0.00000  Uiso   1.00
C323   C     0.18617   0.36621   0.93538   0.00000  Uiso   1.00
C324   C     0.20407   0.30963   0.90417   0.00000  Uiso   1.00
C325   C     0.23385   0.31116   0.85284   0.00000  Uiso   1.00
C326   C     0.24618   0.25432   0.83127   0.00000  Uiso   1.00
C327   C     0.27658   0.17501   0.77844   0.00000  Uiso   1.00
C328   C     0.22846   0.32266   0.00240   0.00000  Uiso   1.00
C329   C     0.27874   0.33515   0.03366   0.00000  Uiso   1.00
C330   C     0.31159   0.28928   0.09478   0.00000  Uiso   1.00
C331   C     0.37982   0.23023   0.19447   0.00000  Uiso   1.00
C332   C     0.10469   0.39529   0.93589   0.00000  Uiso   1.00
C333   C     0.05089   0.46885   0.91124   0.00000  Uiso   1.00
C334   C     0.97953   0.48413   0.91638   0.00000  Uiso   1.00
C335   C     0.85558   0.53785   0.91280   0.00000  Uiso   1.00
C336   C     0.15510   0.26254   0.98835   0.00000  Uiso   1.00
C337   C     0.18720   0.25332   0.93294   0.00000  Uiso   1.00
C338   C     0.19948   0.19646   0.91144   0.00000  Uiso   1.00
C339   C     0.22927   0.19791   0.86009   0.00000  Uiso   1.00
C340   C     0.21159   0.26635   0.03117   0.00000  Uiso   1.00
C341   C     0.24437   0.22045   0.09227   0.00000  Uiso   1.00
C342   C     0.29469   0.23286   0.12361   0.00000  Uiso   1.00
C343   C     0.08781   0.33898   0.96466   0.00000  Uiso   1.00
C344   C     0.01652   0.35415   0.96984   0.00000  Uiso   1.00
C345   C     0.96263   0.42772   0.94521   0.00000  Uiso   1.00
H346   H     0.19931   0.41005   0.91299   0.00000  Uiso   1.00
H347   H     0.24691   0.35475   0.83059   0.00000  Uiso   1.00
H348   H     0.29178   0.37873   0.01138   0.00000  Uiso   1.00
H349   H     0.06397   0.51241   0.88898   0.00000  Uiso   1.00
H350   H     0.29227   0.26858   0.75193   0.00000  Uiso   1.00
H351   H     0.38687   0.31918   0.13316   0.00000  Uiso   1.00
H352   H     0.90648   0.60107   0.87505   0.00000  Uiso   1.00
H353   H     0.14197   0.21870   0.01076   0.00000  Uiso   1.00
H354   H     0.18642   0.15289   0.93372   0.00000  Uiso   1.00
H355   H     0.23130   0.17688   0.11452   0.00000  Uiso   1.00
H356   H     0.00349   0.31056   0.99211   0.00000  Uiso   1.00
H357   H     0.24317   0.10475   0.83564   0.00000  Uiso   1.00
H358   H     0.33777   0.15535   0.21687   0.00000  Uiso   1.00
H359   H     0.85739   0.43724   0.95876   0.00000  Uiso   1.00
O360   O     0.29802   0.14682   0.74136   0.00000  Uiso   1.00
O361   O     0.42212   0.21322   0.24151   0.00000  Uiso   1.00
O362   O     0.79187   0.58304   0.90287   0.00000  Uiso   1.00
N363   N     0.27460   0.23907   0.78220   0.00000  Uiso   1.00
N364   N     0.36305   0.28637   0.13862   0.00000  Uiso   1.00
N365   N     0.91394   0.54991   0.89732   0.00000  Uiso   1.00
N366   N     0.24818   0.15091   0.82724   0.00000  Uiso   1.00
N367   N     0.33664   0.19821   0.18366   0.00000  Uiso   1.00
N368   N     0.88752   0.46175   0.94236   0.00000  Uiso   1.00
C369   C     0.20155   0.68022   0.87953   0.00000  Uiso   1.00
C370   C     0.12995   0.75274   0.85017   0.00000  Uiso   1.00
C371   C     0.07185   0.76610   0.80616   0.00000  Uiso   1.00
C372   C     0.01117   0.83607   0.78507   0.00000  Uiso   1.00
C373   C     0.90035   0.94036   0.73614   0.00000  Uiso   1.00
C374   C     0.20801   0.65762   0.94876   0.00000  Uiso   1.00
C375   C     0.21555   0.59100   0.98763   0.00000  Uiso   1.00
C376   C     0.22059   0.58090   0.04954   0.00000  Uiso   1.00
C377   C     0.23100   0.53749   0.15367   0.00000  Uiso   1.00
C378   C     0.26364   0.69918   0.86764   0.00000  Uiso   1.00
C379   C     0.31798   0.66749   0.83832   0.00000  Uiso   1.00
C380   C     0.36987   0.69237   0.83195   0.00000  Uiso   1.00
C381   C     0.46666   0.71349   0.81013   0.00000  Uiso   1.00
C382   C     0.19710   0.78074   0.92035   0.00000  Uiso   1.00
C383   C     0.12753   0.80733   0.87235   0.00000  Uiso   1.00
C384   C     0.06692   0.87731   0.85132   0.00000  Uiso   1.00
C385   C     0.00875   0.89077   0.80728   0.00000  Uiso   1.00
C386   C     0.20559   0.71221   0.97093   0.00000  Uiso   1.00
C387   C     0.21062   0.70221   0.03280   0.00000  Uiso   1.00
C388   C     0.21816   0.63559   0.07176   0.00000  Uiso   1.00
C389   C     0.26122   0.75378   0.88981   0.00000  Uiso   1.00
C390   C     0.31304   0.77871   0.88349   0.00000  Uiso   1.00
C391   C     0.36744   0.74707   0.85416   0.00000  Uiso   1.00
H392   H     0.20344   0.63771   0.86227   0.00000  Uiso   1.00
H393   H     0.07375   0.72383   0.78901   0.00000  Uiso   1.00
H394   H     0.21743   0.54876   0.97046   0.00000  Uiso   1.00
H395   H     0.31983   0.62524   0.82117   0.00000  Uiso   1.00
H396   H     0.92888   0.84338   0.71759   0.00000  Uiso   1.00
H397   H     0.23187   0.47421   0.10018   0.00000  Uiso   1.00
H398   H     0.44781   0.63550   0.78538   0.00000  Uiso   1.00
H399   H     0.19521   0.82324   0.93762   0.00000  Uiso   1.00
H400   H     0.06507   0.91955   0.86849   0.00000  Uiso   1.00
H401   H     0.20875   0.74447   0.04994   0.00000  Uiso   1.00
H402   H     0.31115   0.82096   0.90065   0.00000  Uiso   1.00
H403   H     0.92184   0.00223   0.78210   0.00000  Uiso   1.00
H404   H     0.22482   0.63306   0.16470   0.00000  Uiso   1.00
H405   H     0.44076   0.79435   0.84989   0.00000  Uiso   1.00
O406   O     0.83988   0.98280   0.70303   0.00000  Uiso   1.00
O407   O     0.23740   0.49846   0.20498   0.00000  Uiso   1.00
O408   O     0.52071   0.71007   0.79196   0.00000  Uiso   1.00
N409   N     0.94509   0.86755   0.74225   0.00000  Uiso   1.00
N410   N     0.22835   0.52241   0.09995   0.00000  Uiso   1.00
N411   N     0.43025   0.67318   0.80565   0.00000  Uiso   1.00
N412   N     0.94130   0.95303   0.77696   0.00000  Uiso   1.00
N413   N     0.22456   0.60788   0.13466   0.00000  Uiso   1.00
N414   N     0.42646   0.75866   0.84036   0.00000  Uiso   1.00
C415   C     0.60745   0.50200   0.41223   0.00000  Uiso   1.00
C416   C     0.64121   0.52459   0.35926   0.00000  Uiso   1.00
C417   C     0.64710   0.50093   0.30979   0.00000  Uiso   1.00
C418   C     0.67975   0.52793   0.26612   0.00000  Uiso   1.00
C419   C     0.72827   0.55554   0.18301   0.00000  Uiso   1.00
C420   C     0.66699   0.46944   0.47088   0.00000  Uiso   1.00
C421   C     0.69456   0.39941   0.51526   0.00000  Uiso   1.00
C422   C     0.74891   0.38000   0.56556   0.00000  Uiso   1.00
C423   C     0.83743   0.32200   0.65576   0.00000  Uiso   1.00
C424   C     0.54670   0.57367   0.41370   0.00000  Uiso   1.00
C425   C     0.47313   0.59127   0.41004   0.00000  Uiso   1.00
C426   C     0.42621   0.65961   0.41221   0.00000  Uiso   1.00
C427   C     0.32796   0.76345   0.41365   0.00000  Uiso   1.00
C428   C     0.65494   0.59205   0.42264   0.00000  Uiso   1.00
C429   C     0.66700   0.57350   0.36491   0.00000  Uiso   1.00
C430   C     0.69964   0.60056   0.32130   0.00000  Uiso   1.00
C431   C     0.70559   0.57693   0.27178   0.00000  Uiso   1.00
C432   C     0.69279   0.51835   0.47653   0.00000  Uiso   1.00
C433   C     0.74710   0.49904   0.52677   0.00000  Uiso   1.00
C434   C     0.77475   0.42899   0.57122   0.00000  Uiso   1.00
C435   C     0.57250   0.62259   0.41935   0.00000  Uiso   1.00
C436   C     0.52568   0.69090   0.42154   0.00000  Uiso   1.00
C437   C     0.45205   0.70860   0.41787   0.00000  Uiso   1.00
H438   H     0.58737   0.46392   0.40784   0.00000  Uiso   1.00
H439   H     0.62714   0.46307   0.30544   0.00000  Uiso   1.00
H440   H     0.67459   0.36157   0.51088   0.00000  Uiso   1.00
H441   H     0.45319   0.55341   0.40566   0.00000  Uiso   1.00
H442   H     0.68263   0.48367   0.19441   0.00000  Uiso   1.00
H443   H     0.78266   0.26967   0.62760   0.00000  Uiso   1.00
H444   H     0.31580   0.67419   0.40574   0.00000  Uiso   1.00
H445   H     0.67502   0.63013   0.42704   0.00000  Uiso   1.00
H446   H     0.71960   0.63841   0.32569   0.00000  Uiso   1.00
H447   H     0.76705   0.53691   0.53113   0.00000  Uiso   1.00
H448   H     0.54566   0.72874   0.42591   0.00000  Uiso   1.00
H449   H     0.75768   0.62598   0.21084   0.00000  Uiso   1.00
H450   H     0.85770   0.41198   0.64404   0.00000  Uiso   1.00
H451   H     0.39085   0.81650   0.42218   0.00000  Uiso   1.00
O452   O     0.74792   0.55725   0.13562   0.00000  Uiso   1.00
O453   O     0.87914   0.27650   0.70396   0.00000  Uiso   1.00
O454   O     0.26664   0.80721   0.41287   0.00000  Uiso   1.00
N455   N     0.69416   0.51604   0.21218   0.00000  Uiso   1.00
N456   N     0.78769   0.31596   0.61719   0.00000  Uiso   1.00
N457   N     0.35122   0.69414   0.40978   0.00000  Uiso   1.00
N458   N     0.73454   0.59262   0.22102   0.00000  Uiso   1.00
N459   N     0.82807   0.39253   0.62603   0.00000  Uiso   1.00
N460   N     0.39161   0.77072   0.41862   0.00000  Uiso   1.00
C461   C     0.68118   0.22122   0.39610   0.00000  Uiso   1.00
C462   C     0.60446   0.28594   0.36370   0.00000  Uiso   1.00
C463   C     0.58189   0.35901   0.35700   0.00000  Uiso   1.00
C464   C     0.50943   0.41000   0.32588   0.00000  Uiso   1.00
C465   C     0.39760   0.51374   0.27918   0.00000  Uiso   1.00
C466   C     0.66995   0.16499   0.44582   0.00000  Uiso   1.00
C467   C     0.70246   0.13636   0.50817   0.00000  Uiso   1.00
C468   C     0.68514   0.08552   0.54618   0.00000  Uiso   1.00
C469   C     0.67504   0.00144   0.62698   0.00000  Uiso   1.00
C470   C     0.70845   0.18574   0.34907   0.00000  Uiso   1.00
C471   C     0.77334   0.17454   0.33008   0.00000  Uiso   1.00
C472   C     0.78844   0.14116   0.28664   0.00000  Uiso   1.00
C473   C     0.83812   0.08930   0.21721   0.00000  Uiso   1.00
C474   C     0.59264   0.18184   0.35275   0.00000  Uiso   1.00
C475   C     0.55636   0.26455   0.34015   0.00000  Uiso   1.00
C476   C     0.48392   0.31544   0.30904   0.00000  Uiso   1.00
C477   C     0.46125   0.38857   0.30229   0.00000  Uiso   1.00
C478   C     0.62186   0.14360   0.42228   0.00000  Uiso   1.00
C479   C     0.60449   0.09279   0.46021   0.00000  Uiso   1.00
C480   C     0.63696   0.06409   0.52259   0.00000  Uiso   1.00
C481   C     0.66036   0.16435   0.32552   0.00000  Uiso   1.00
C482   C     0.67537   0.13097   0.28211   0.00000  Uiso   1.00
C483   C     0.74026   0.11973   0.26305   0.00000  Uiso   1.00
H484   H     0.71862   0.23787   0.41443   0.00000  Uiso   1.00
H485   H     0.61912   0.37554   0.37523   0.00000  Uiso   1.00
H486   H     0.73968   0.15292   0.52637   0.00000  Uiso   1.00
H487   H     0.81054   0.19110   0.34831   0.00000  Uiso   1.00
H488   H     0.48759   0.51874   0.32141   0.00000  Uiso   1.00
H489   H     0.74181   0.04930   0.64010   0.00000  Uiso   1.00
H490   H     0.89124   0.12982   0.26461   0.00000  Uiso   1.00
H491   H     0.55519   0.16518   0.33442   0.00000  Uiso   1.00
H492   H     0.44672   0.29887   0.29082   0.00000  Uiso   1.00
H493   H     0.56728   0.07624   0.44197   0.00000  Uiso   1.00
H494   H     0.63814   0.11443   0.26390   0.00000  Uiso   1.00
H495   H     0.34766   0.45651   0.25290   0.00000  Uiso   1.00
H496   H     0.60188   0.98707   0.57159   0.00000  Uiso   1.00
H497   H     0.75131   0.06758   0.19610   0.00000  Uiso   1.00
O498   O     0.34921   0.57687   0.25994   0.00000  Uiso   1.00
O499   O     0.68275   0.96098   0.67805   0.00000  Uiso   1.00
O500   O     0.87880   0.06662   0.18541   0.00000  Uiso   1.00
N501   N     0.46954   0.48575   0.31126   0.00000  Uiso   1.00
N502   N     0.70722   0.04686   0.60922   0.00000  Uiso   1.00
N503   N     0.84694   0.12212   0.25818   0.00000  Uiso   1.00
N504   N     0.39425   0.45226   0.27439   0.00000  Uiso   1.00
N505   N     0.63192   0.01338   0.57235   0.00000  Uiso   1.00
N506   N     0.77164   0.08863   0.22131   0.00000  Uiso   1.00
C507   C     0.97145   0.34640   0.47818   0.00000  Uiso   1.00
C508   C     0.98571   0.30204   0.43598   0.00000  Uiso   1.00
C509   C     0.93251   0.29692   0.40058   0.00000  Uiso   1.00
C510   C     0.95674   0.25354   0.36505   0.00000  Uiso   1.00
C511   C     0.96752   0.19025   0.29956   0.00000  Uiso   1.00
C512   C     0.01948   0.29166   0.54173   0.00000  Uiso   1.00
C513   C     0.99466   0.27784   0.59523   0.00000  Uiso   1.00
C514   C     0.04732   0.22573   0.64872   0.00000  Uiso   1.00
C515   C     0.11053   0.14637   0.74742   0.00000  Uiso   1.00
C516   C     0.00349   0.39890   0.45674   0.00000  Uiso   1.00
C517   C     0.96523   0.47525   0.43880   0.00000  Uiso   1.00
C518   C     0.00443   0.51342   0.42075   0.00000  Uiso   1.00
C519   C     0.04280   0.60058   0.38748   0.00000  Uiso   1.00
C520   C     0.10910   0.27844   0.47805   0.00000  Uiso   1.00
C521   C     0.06048   0.26513   0.43591   0.00000  Uiso   1.00
C522   C     0.08480   0.22174   0.40043   0.00000  Uiso   1.00
C523   C     0.03164   0.21656   0.36497   0.00000  Uiso   1.00
C524   C     0.09424   0.25475   0.54166   0.00000  Uiso   1.00
C525   C     0.14695   0.20265   0.59508   0.00000  Uiso   1.00
C526   C     0.12222   0.18875   0.64865   0.00000  Uiso   1.00
C527   C     0.07825   0.36200   0.45667   0.00000  Uiso   1.00
C528   C     0.11752   0.40006   0.43864   0.00000  Uiso   1.00
C529   C     0.07933   0.47645   0.42067   0.00000  Uiso   1.00
H530   H     0.91325   0.37513   0.47824   0.00000  Uiso   1.00
H531   H     0.87466   0.32549   0.40065   0.00000  Uiso   1.00
H532   H     0.93680   0.30642   0.59528   0.00000  Uiso   1.00
H533   H     0.90737   0.50379   0.43886   0.00000  Uiso   1.00
H534   H     0.86485   0.25416   0.31461   0.00000  Uiso   1.00
H535   H     0.99589   0.21396   0.72499   0.00000  Uiso   1.00
H536   H     0.93383   0.63016   0.39516   0.00000  Uiso   1.00
H537   H     0.16730   0.24970   0.47799   0.00000  Uiso   1.00
H538   H     0.14266   0.19318   0.40038   0.00000  Uiso   1.00
H539   H     0.20480   0.17410   0.59501   0.00000  Uiso   1.00
H540   H     0.17537   0.37148   0.43859   0.00000  Uiso   1.00
H541   H     0.08237   0.14677   0.31439   0.00000  Uiso   1.00
H542   H     0.21341   0.10657   0.72478   0.00000  Uiso   1.00
H543   H     0.15135   0.52277   0.39495   0.00000  Uiso   1.00
O544   O     0.95282   0.16553   0.26347   0.00000  Uiso   1.00
O545   O     0.12473   0.11279   0.80188   0.00000  Uiso   1.00
O546   O     0.04331   0.65884   0.36914   0.00000  Uiso   1.00
N547   N     0.91943   0.23665   0.32520   0.00000  Uiso   1.00
N548   N     0.04194   0.19906   0.70888   0.00000  Uiso   1.00
N549   N     0.98392   0.58817   0.40054   0.00000  Uiso   1.00
N550   N     0.03647   0.17887   0.32508   0.00000  Uiso   1.00
N551   N     0.15898   0.14127   0.70877   0.00000  Uiso   1.00
N552   N     0.10097   0.53039   0.40042   0.00000  Uiso   1.00
