data_job_02994
_audit_creation_date              2018-12-19
_audit_creation_method            'Materials Studio'
_symmetry_space_group_name_H-M    'P1'
_symmetry_Int_Tables_number       1
_symmetry_cell_setting            triclinic
loop_
_symmetry_equiv_pos_as_xyz
  x,y,z
_cell_length_a                    21.8363
_cell_length_b                    32.8191
_cell_length_c                    9.6326
_cell_angle_alpha                 90.0000
_cell_angle_beta                  117.7850
_cell_angle_gamma                 90.0000
loop_
_atom_site_label
_atom_site_type_symbol
_atom_site_fract_x
_atom_site_fract_y
_atom_site_fract_z
_atom_site_U_iso_or_equiv
_atom_site_adp_type
_atom_site_occupancy
C1     C     0.27838   0.13242   0.04686   0.00000  Uiso   1.00
C2     C     0.29649   0.09579   0.97565   0.00000  Uiso   1.00
C3     C     0.36230   0.07977   0.02618   0.00000  Uiso   1.00
C4     C     0.36806   0.04617   0.94551   0.00000  Uiso   1.00
C5     C     0.40502   0.99187   0.85415   0.00000  Uiso   1.00
C6     C     0.24145   0.16256   0.91281   0.00000  Uiso   1.00
C7     C     0.26099   0.20270   0.91054   0.00000  Uiso   1.00
C8     C     0.22042   0.22530   0.77698   0.00000  Uiso   1.00
C9     C     0.17190   0.27469   0.58811   0.00000  Uiso   1.00
C10    C     0.22401   0.11752   0.09235   0.00000  Uiso   1.00
C11    C     0.22887   0.11979   0.24102   0.00000  Uiso   1.00
C12    C     0.17361   0.10448   0.25861   0.00000  Uiso   1.00
C13    C     0.09801   0.08394   0.34850   0.00000  Uiso   1.00
C14    C     0.17160   0.10120   0.81373   0.00000  Uiso   1.00
C15    C     0.23849   0.07883   0.84902   0.00000  Uiso   1.00
C16    C     0.24416   0.04524   0.76825   0.00000  Uiso   1.00
C17    C     0.30996   0.02918   0.81866   0.00000  Uiso   1.00
C18    C     0.18346   0.14561   0.78619   0.00000  Uiso   1.00
C19    C     0.14285   0.16816   0.65260   0.00000  Uiso   1.00
C20    C     0.16231   0.20832   0.65012   0.00000  Uiso   1.00
C21    C     0.16601   0.10056   0.96572   0.00000  Uiso   1.00
C22    C     0.11073   0.08525   0.98308   0.00000  Uiso   1.00
C23    C     0.11550   0.08750   0.13175   0.00000  Uiso   1.00
H24    H     0.32353   0.14562   0.14544   0.00000  Uiso   1.00
H25    H     0.40717   0.09291   0.12418   0.00000  Uiso   1.00
H26    H     0.30587   0.21581   0.00855   0.00000  Uiso   1.00
H27    H     0.27376   0.13292   0.33898   0.00000  Uiso   1.00
H28    H     0.47432   0.02699   0.04472   0.00000  Uiso   1.00
H29    H     0.26071   0.28615   0.80094   0.00000  Uiso   1.00
H30    H     0.19300   0.11135   0.49772   0.00000  Uiso   1.00
H31    H     0.12644   0.08800   0.71514   0.00000  Uiso   1.00
H32    H     0.19926   0.03212   0.67026   0.00000  Uiso   1.00
H33    H     0.09797   0.15503   0.55464   0.00000  Uiso   1.00
H34    H     0.06586   0.07213   0.88506   0.00000  Uiso   1.00
H35    H     0.30558   0.97766   0.67630   0.00000  Uiso   1.00
H36    H     0.09197   0.23682   0.43253   0.00000  Uiso   1.00
H37    H     0.02426   0.06202   0.12930   0.00000  Uiso   1.00
O38    O     0.44142   0.96662   0.83872   0.00000  Uiso   1.00
O39    O     0.16116   0.30662   0.51891   0.00000  Uiso   1.00
O40    O     0.07233   0.07729   0.43306   0.00000  Uiso   1.00
N41    N     0.42462   0.02305   0.96419   0.00000  Uiso   1.00
N42    N     0.22491   0.26534   0.73626   0.00000  Uiso   1.00
N43    N     0.16160   0.10193   0.38768   0.00000  Uiso   1.00
N44    N     0.33382   0.99650   0.76595   0.00000  Uiso   1.00
N45    N     0.13411   0.23880   0.53802   0.00000  Uiso   1.00
N46    N     0.07080   0.07538   0.18944   0.00000  Uiso   1.00
C47    C     0.77838   0.63242   0.04686   0.00000  Uiso   1.00
C48    C     0.79649   0.59579   0.97565   0.00000  Uiso   1.00
C49    C     0.86230   0.57977   0.02618   0.00000  Uiso   1.00
C50    C     0.86806   0.54617   0.94551   0.00000  Uiso   1.00
C51    C     0.90502   0.49187   0.85415   0.00000  Uiso   1.00
C52    C     0.74145   0.66256   0.91281   0.00000  Uiso   1.00
C53    C     0.76099   0.70270   0.91054   0.00000  Uiso   1.00
C54    C     0.72042   0.72530   0.77698   0.00000  Uiso   1.00
C55    C     0.67190   0.77469   0.58811   0.00000  Uiso   1.00
C56    C     0.72401   0.61752   0.09235   0.00000  Uiso   1.00
C57    C     0.72887   0.61979   0.24102   0.00000  Uiso   1.00
C58    C     0.67361   0.60448   0.25861   0.00000  Uiso   1.00
C59    C     0.59801   0.58394   0.34850   0.00000  Uiso   1.00
C60    C     0.67160   0.60120   0.81373   0.00000  Uiso   1.00
C61    C     0.73849   0.57883   0.84902   0.00000  Uiso   1.00
C62    C     0.74416   0.54524   0.76825   0.00000  Uiso   1.00
C63    C     0.80996   0.52918   0.81866   0.00000  Uiso   1.00
C64    C     0.68346   0.64561   0.78619   0.00000  Uiso   1.00
C65    C     0.64285   0.66816   0.65260   0.00000  Uiso   1.00
C66    C     0.66231   0.70832   0.65012   0.00000  Uiso   1.00
C67    C     0.66601   0.60056   0.96572   0.00000  Uiso   1.00
C68    C     0.61073   0.58525   0.98308   0.00000  Uiso   1.00
C69    C     0.61550   0.58750   0.13175   0.00000  Uiso   1.00
H70    H     0.82353   0.64562   0.14544   0.00000  Uiso   1.00
H71    H     0.90717   0.59291   0.12418   0.00000  Uiso   1.00
H72    H     0.80587   0.71581   0.00855   0.00000  Uiso   1.00
H73    H     0.77376   0.63292   0.33898   0.00000  Uiso   1.00
H74    H     0.97432   0.52699   0.04472   0.00000  Uiso   1.00
H75    H     0.76071   0.78615   0.80094   0.00000  Uiso   1.00
H76    H     0.69300   0.61135   0.49772   0.00000  Uiso   1.00
H77    H     0.62644   0.58800   0.71514   0.00000  Uiso   1.00
H78    H     0.69926   0.53212   0.67026   0.00000  Uiso   1.00
H79    H     0.59797   0.65503   0.55464   0.00000  Uiso   1.00
H80    H     0.56586   0.57213   0.88506   0.00000  Uiso   1.00
H81    H     0.80558   0.47766   0.67630   0.00000  Uiso   1.00
H82    H     0.59197   0.73682   0.43253   0.00000  Uiso   1.00
H83    H     0.52426   0.56202   0.12930   0.00000  Uiso   1.00
O84    O     0.94142   0.46662   0.83872   0.00000  Uiso   1.00
O85    O     0.66116   0.80662   0.51891   0.00000  Uiso   1.00
O86    O     0.57233   0.57729   0.43306   0.00000  Uiso   1.00
N87    N     0.92462   0.52305   0.96419   0.00000  Uiso   1.00
N88    N     0.72491   0.76534   0.73626   0.00000  Uiso   1.00
N89    N     0.66160   0.60193   0.38768   0.00000  Uiso   1.00
N90    N     0.83382   0.49650   0.76595   0.00000  Uiso   1.00
N91    N     0.63411   0.73880   0.53802   0.00000  Uiso   1.00
N92    N     0.57080   0.57538   0.18944   0.00000  Uiso   1.00
C93    C     0.72162   0.13242   0.45314   0.00000  Uiso   1.00
C94    C     0.70351   0.09579   0.52435   0.00000  Uiso   1.00
C95    C     0.63770   0.07977   0.47382   0.00000  Uiso   1.00
C96    C     0.63194   0.04617   0.55449   0.00000  Uiso   1.00
C97    C     0.59498   0.99187   0.64585   0.00000  Uiso   1.00
C98    C     0.75855   0.16256   0.58719   0.00000  Uiso   1.00
C99    C     0.73901   0.20270   0.58946   0.00000  Uiso   1.00
C100   C     0.77958   0.22530   0.72302   0.00000  Uiso   1.00
C101   C     0.82810   0.27469   0.91189   0.00000  Uiso   1.00
C102   C     0.77599   0.11752   0.40765   0.00000  Uiso   1.00
C103   C     0.77113   0.11979   0.25898   0.00000  Uiso   1.00
C104   C     0.82639   0.10448   0.24139   0.00000  Uiso   1.00
C105   C     0.90199   0.08394   0.15150   0.00000  Uiso   1.00
C106   C     0.82840   0.10120   0.68627   0.00000  Uiso   1.00
C107   C     0.76151   0.07883   0.65098   0.00000  Uiso   1.00
C108   C     0.75584   0.04524   0.73175   0.00000  Uiso   1.00
C109   C     0.69004   0.02918   0.68134   0.00000  Uiso   1.00
C110   C     0.81654   0.14561   0.71381   0.00000  Uiso   1.00
C111   C     0.85715   0.16816   0.84740   0.00000  Uiso   1.00
C112   C     0.83769   0.20832   0.84988   0.00000  Uiso   1.00
C113   C     0.83399   0.10056   0.53428   0.00000  Uiso   1.00
C114   C     0.88927   0.08525   0.51692   0.00000  Uiso   1.00
C115   C     0.88450   0.08750   0.36825   0.00000  Uiso   1.00
H116   H     0.67647   0.14562   0.35456   0.00000  Uiso   1.00
H117   H     0.59283   0.09291   0.37582   0.00000  Uiso   1.00
H118   H     0.69413   0.21581   0.49145   0.00000  Uiso   1.00
H119   H     0.72624   0.13292   0.16102   0.00000  Uiso   1.00
H120   H     0.52568   0.02699   0.45528   0.00000  Uiso   1.00
H121   H     0.73929   0.28615   0.69906   0.00000  Uiso   1.00
H122   H     0.80700   0.11135   0.00228   0.00000  Uiso   1.00
H123   H     0.87356   0.08800   0.78486   0.00000  Uiso   1.00
H124   H     0.80074   0.03212   0.82974   0.00000  Uiso   1.00
H125   H     0.90203   0.15503   0.94536   0.00000  Uiso   1.00
H126   H     0.93414   0.07213   0.61494   0.00000  Uiso   1.00
H127   H     0.69442   0.97766   0.82370   0.00000  Uiso   1.00
H128   H     0.90803   0.23682   0.06747   0.00000  Uiso   1.00
H129   H     0.97574   0.06202   0.37070   0.00000  Uiso   1.00
O130   O     0.55858   0.96662   0.66128   0.00000  Uiso   1.00
O131   O     0.83884   0.30662   0.98109   0.00000  Uiso   1.00
O132   O     0.92767   0.07729   0.06694   0.00000  Uiso   1.00
N133   N     0.57538   0.02305   0.53581   0.00000  Uiso   1.00
N134   N     0.77509   0.26534   0.76374   0.00000  Uiso   1.00
N135   N     0.83840   0.10193   0.11232   0.00000  Uiso   1.00
N136   N     0.66618   0.99650   0.73405   0.00000  Uiso   1.00
N137   N     0.86589   0.23880   0.96198   0.00000  Uiso   1.00
N138   N     0.92920   0.07538   0.31056   0.00000  Uiso   1.00
C139   C     0.22162   0.63242   0.45314   0.00000  Uiso   1.00
C140   C     0.20351   0.59579   0.52435   0.00000  Uiso   1.00
C141   C     0.13770   0.57977   0.47382   0.00000  Uiso   1.00
C142   C     0.13194   0.54617   0.55449   0.00000  Uiso   1.00
C143   C     0.09498   0.49187   0.64585   0.00000  Uiso   1.00
C144   C     0.25855   0.66256   0.58719   0.00000  Uiso   1.00
C145   C     0.23901   0.70270   0.58946   0.00000  Uiso   1.00
C146   C     0.27958   0.72530   0.72302   0.00000  Uiso   1.00
C147   C     0.32810   0.77469   0.91189   0.00000  Uiso   1.00
C148   C     0.27599   0.61752   0.40765   0.00000  Uiso   1.00
C149   C     0.27113   0.61979   0.25898   0.00000  Uiso   1.00
C150   C     0.32639   0.60448   0.24139   0.00000  Uiso   1.00
C151   C     0.40199   0.58394   0.15150   0.00000  Uiso   1.00
C152   C     0.32840   0.60120   0.68627   0.00000  Uiso   1.00
C153   C     0.26151   0.57883   0.65098   0.00000  Uiso   1.00
C154   C     0.25584   0.54524   0.73175   0.00000  Uiso   1.00
C155   C     0.19004   0.52918   0.68134   0.00000  Uiso   1.00
C156   C     0.31654   0.64561   0.71381   0.00000  Uiso   1.00
C157   C     0.35715   0.66816   0.84740   0.00000  Uiso   1.00
C158   C     0.33769   0.70832   0.84988   0.00000  Uiso   1.00
C159   C     0.33399   0.60056   0.53428   0.00000  Uiso   1.00
C160   C     0.38927   0.58525   0.51692   0.00000  Uiso   1.00
C161   C     0.38450   0.58750   0.36825   0.00000  Uiso   1.00
H162   H     0.17647   0.64562   0.35456   0.00000  Uiso   1.00
H163   H     0.09283   0.59291   0.37582   0.00000  Uiso   1.00
H164   H     0.19413   0.71581   0.49145   0.00000  Uiso   1.00
H165   H     0.22624   0.63292   0.16102   0.00000  Uiso   1.00
H166   H     0.02568   0.52699   0.45528   0.00000  Uiso   1.00
H167   H     0.23929   0.78615   0.69906   0.00000  Uiso   1.00
H168   H     0.30700   0.61135   0.00228   0.00000  Uiso   1.00
H169   H     0.37356   0.58800   0.78486   0.00000  Uiso   1.00
H170   H     0.30074   0.53212   0.82974   0.00000  Uiso   1.00
H171   H     0.40203   0.65503   0.94536   0.00000  Uiso   1.00
H172   H     0.43414   0.57213   0.61494   0.00000  Uiso   1.00
H173   H     0.19442   0.47766   0.82370   0.00000  Uiso   1.00
H174   H     0.40803   0.73682   0.06747   0.00000  Uiso   1.00
H175   H     0.47574   0.56202   0.37070   0.00000  Uiso   1.00
O176   O     0.05858   0.46662   0.66128   0.00000  Uiso   1.00
O177   O     0.33884   0.80662   0.98109   0.00000  Uiso   1.00
O178   O     0.42767   0.57729   0.06694   0.00000  Uiso   1.00
N179   N     0.07538   0.52305   0.53581   0.00000  Uiso   1.00
N180   N     0.27509   0.76534   0.76374   0.00000  Uiso   1.00
N181   N     0.33840   0.60193   0.11232   0.00000  Uiso   1.00
N182   N     0.16618   0.49650   0.73405   0.00000  Uiso   1.00
N183   N     0.36589   0.73880   0.96198   0.00000  Uiso   1.00
N184   N     0.42920   0.57538   0.31056   0.00000  Uiso   1.00
C185   C     0.72162   0.86758   0.95314   0.00000  Uiso   1.00
C186   C     0.70351   0.90421   0.02435   0.00000  Uiso   1.00
C187   C     0.63770   0.92023   0.97382   0.00000  Uiso   1.00
C188   C     0.63194   0.95383   0.05449   0.00000  Uiso   1.00
C189   C     0.59498   0.00813   0.14585   0.00000  Uiso   1.00
C190   C     0.75855   0.83744   0.08719   0.00000  Uiso   1.00
C191   C     0.73901   0.79730   0.08946   0.00000  Uiso   1.00
C192   C     0.77958   0.77470   0.22302   0.00000  Uiso   1.00
C193   C     0.82810   0.72531   0.41189   0.00000  Uiso   1.00
C194   C     0.77599   0.88248   0.90765   0.00000  Uiso   1.00
C195   C     0.77113   0.88021   0.75898   0.00000  Uiso   1.00
C196   C     0.82639   0.89552   0.74139   0.00000  Uiso   1.00
C197   C     0.90199   0.91606   0.65150   0.00000  Uiso   1.00
C198   C     0.82840   0.89880   0.18627   0.00000  Uiso   1.00
C199   C     0.76151   0.92117   0.15098   0.00000  Uiso   1.00
C200   C     0.75584   0.95476   0.23175   0.00000  Uiso   1.00
C201   C     0.69004   0.97082   0.18134   0.00000  Uiso   1.00
C202   C     0.81654   0.85439   0.21381   0.00000  Uiso   1.00
C203   C     0.85715   0.83184   0.34740   0.00000  Uiso   1.00
C204   C     0.83769   0.79168   0.34988   0.00000  Uiso   1.00
C205   C     0.83399   0.89944   0.03428   0.00000  Uiso   1.00
C206   C     0.88927   0.91475   0.01692   0.00000  Uiso   1.00
C207   C     0.88450   0.91250   0.86825   0.00000  Uiso   1.00
H208   H     0.67647   0.85438   0.85456   0.00000  Uiso   1.00
H209   H     0.59283   0.90709   0.87582   0.00000  Uiso   1.00
H210   H     0.69413   0.78419   0.99145   0.00000  Uiso   1.00
H211   H     0.72624   0.86708   0.66102   0.00000  Uiso   1.00
H212   H     0.52568   0.97301   0.95528   0.00000  Uiso   1.00
H213   H     0.73929   0.71385   0.19906   0.00000  Uiso   1.00
H214   H     0.80700   0.88865   0.50228   0.00000  Uiso   1.00
H215   H     0.87356   0.91200   0.28486   0.00000  Uiso   1.00
H216   H     0.80074   0.96788   0.32974   0.00000  Uiso   1.00
H217   H     0.90203   0.84497   0.44536   0.00000  Uiso   1.00
H218   H     0.93414   0.92787   0.11494   0.00000  Uiso   1.00
H219   H     0.69442   0.02234   0.32370   0.00000  Uiso   1.00
H220   H     0.90803   0.76318   0.56747   0.00000  Uiso   1.00
H221   H     0.97574   0.93798   0.87070   0.00000  Uiso   1.00
O222   O     0.55858   0.03338   0.16128   0.00000  Uiso   1.00
O223   O     0.83884   0.69338   0.48109   0.00000  Uiso   1.00
O224   O     0.92767   0.92271   0.56694   0.00000  Uiso   1.00
N225   N     0.57538   0.97695   0.03581   0.00000  Uiso   1.00
N226   N     0.77509   0.73466   0.26374   0.00000  Uiso   1.00
N227   N     0.83840   0.89807   0.61232   0.00000  Uiso   1.00
N228   N     0.66618   0.00350   0.23405   0.00000  Uiso   1.00
N229   N     0.86589   0.76120   0.46198   0.00000  Uiso   1.00
N230   N     0.92920   0.92462   0.81056   0.00000  Uiso   1.00
C231   C     0.22162   0.36758   0.95314   0.00000  Uiso   1.00
C232   C     0.20351   0.40421   0.02435   0.00000  Uiso   1.00
C233   C     0.13770   0.42023   0.97382   0.00000  Uiso   1.00
C234   C     0.13194   0.45383   0.05449   0.00000  Uiso   1.00
C235   C     0.09498   0.50813   0.14585   0.00000  Uiso   1.00
C236   C     0.25855   0.33744   0.08719   0.00000  Uiso   1.00
C237   C     0.23901   0.29730   0.08946   0.00000  Uiso   1.00
C238   C     0.27958   0.27470   0.22302   0.00000  Uiso   1.00
C239   C     0.32810   0.22531   0.41189   0.00000  Uiso   1.00
C240   C     0.27599   0.38248   0.90765   0.00000  Uiso   1.00
C241   C     0.27113   0.38021   0.75898   0.00000  Uiso   1.00
C242   C     0.32639   0.39552   0.74139   0.00000  Uiso   1.00
C243   C     0.40199   0.41606   0.65150   0.00000  Uiso   1.00
C244   C     0.32840   0.39880   0.18627   0.00000  Uiso   1.00
C245   C     0.26151   0.42117   0.15098   0.00000  Uiso   1.00
C246   C     0.25584   0.45476   0.23175   0.00000  Uiso   1.00
C247   C     0.19004   0.47082   0.18134   0.00000  Uiso   1.00
C248   C     0.31654   0.35439   0.21381   0.00000  Uiso   1.00
C249   C     0.35715   0.33184   0.34740   0.00000  Uiso   1.00
C250   C     0.33769   0.29168   0.34988   0.00000  Uiso   1.00
C251   C     0.33399   0.39944   0.03428   0.00000  Uiso   1.00
C252   C     0.38927   0.41475   0.01692   0.00000  Uiso   1.00
C253   C     0.38450   0.41250   0.86825   0.00000  Uiso   1.00
H254   H     0.17647   0.35438   0.85456   0.00000  Uiso   1.00
H255   H     0.09283   0.40709   0.87582   0.00000  Uiso   1.00
H256   H     0.19413   0.28419   0.99145   0.00000  Uiso   1.00
H257   H     0.22624   0.36708   0.66102   0.00000  Uiso   1.00
H258   H     0.02568   0.47301   0.95528   0.00000  Uiso   1.00
H259   H     0.23929   0.21385   0.19906   0.00000  Uiso   1.00
H260   H     0.30700   0.38865   0.50228   0.00000  Uiso   1.00
H261   H     0.37356   0.41200   0.28486   0.00000  Uiso   1.00
H262   H     0.30074   0.46788   0.32974   0.00000  Uiso   1.00
H263   H     0.40203   0.34497   0.44536   0.00000  Uiso   1.00
H264   H     0.43414   0.42787   0.11494   0.00000  Uiso   1.00
H265   H     0.19442   0.52234   0.32370   0.00000  Uiso   1.00
H266   H     0.40803   0.26318   0.56747   0.00000  Uiso   1.00
H267   H     0.47574   0.43798   0.87070   0.00000  Uiso   1.00
O268   O     0.05858   0.53338   0.16128   0.00000  Uiso   1.00
O269   O     0.33884   0.19338   0.48109   0.00000  Uiso   1.00
O270   O     0.42767   0.42271   0.56694   0.00000  Uiso   1.00
N271   N     0.07538   0.47695   0.03581   0.00000  Uiso   1.00
N272   N     0.27509   0.23466   0.26374   0.00000  Uiso   1.00
N273   N     0.33840   0.39807   0.61232   0.00000  Uiso   1.00
N274   N     0.16618   0.50350   0.23405   0.00000  Uiso   1.00
N275   N     0.36589   0.26120   0.46198   0.00000  Uiso   1.00
N276   N     0.42920   0.42462   0.81056   0.00000  Uiso   1.00
C277   C     0.27838   0.86758   0.54686   0.00000  Uiso   1.00
C278   C     0.29649   0.90421   0.47565   0.00000  Uiso   1.00
C279   C     0.36230   0.92023   0.52618   0.00000  Uiso   1.00
C280   C     0.36806   0.95383   0.44551   0.00000  Uiso   1.00
C281   C     0.40502   0.00813   0.35415   0.00000  Uiso   1.00
C282   C     0.24145   0.83744   0.41281   0.00000  Uiso   1.00
C283   C     0.26099   0.79730   0.41054   0.00000  Uiso   1.00
C284   C     0.22042   0.77470   0.27698   0.00000  Uiso   1.00
C285   C     0.17190   0.72531   0.08811   0.00000  Uiso   1.00
C286   C     0.22401   0.88248   0.59235   0.00000  Uiso   1.00
C287   C     0.22887   0.88021   0.74102   0.00000  Uiso   1.00
C288   C     0.17361   0.89552   0.75861   0.00000  Uiso   1.00
C289   C     0.09801   0.91606   0.84850   0.00000  Uiso   1.00
C290   C     0.17160   0.89880   0.31373   0.00000  Uiso   1.00
C291   C     0.23849   0.92117   0.34902   0.00000  Uiso   1.00
C292   C     0.24416   0.95476   0.26825   0.00000  Uiso   1.00
C293   C     0.30996   0.97082   0.31866   0.00000  Uiso   1.00
C294   C     0.18346   0.85439   0.28619   0.00000  Uiso   1.00
C295   C     0.14285   0.83184   0.15260   0.00000  Uiso   1.00
C296   C     0.16231   0.79168   0.15012   0.00000  Uiso   1.00
C297   C     0.16601   0.89944   0.46572   0.00000  Uiso   1.00
C298   C     0.11073   0.91475   0.48308   0.00000  Uiso   1.00
C299   C     0.11550   0.91250   0.63175   0.00000  Uiso   1.00
H300   H     0.32353   0.85438   0.64544   0.00000  Uiso   1.00
H301   H     0.40717   0.90709   0.62418   0.00000  Uiso   1.00
H302   H     0.30587   0.78419   0.50855   0.00000  Uiso   1.00
H303   H     0.27376   0.86708   0.83898   0.00000  Uiso   1.00
H304   H     0.47432   0.97301   0.54472   0.00000  Uiso   1.00
H305   H     0.26071   0.71385   0.30094   0.00000  Uiso   1.00
H306   H     0.19300   0.88865   0.99772   0.00000  Uiso   1.00
H307   H     0.12644   0.91200   0.21514   0.00000  Uiso   1.00
H308   H     0.19926   0.96788   0.17026   0.00000  Uiso   1.00
H309   H     0.09797   0.84497   0.05464   0.00000  Uiso   1.00
H310   H     0.06586   0.92787   0.38506   0.00000  Uiso   1.00
H311   H     0.30558   0.02234   0.17630   0.00000  Uiso   1.00
H312   H     0.09197   0.76318   0.93253   0.00000  Uiso   1.00
H313   H     0.02426   0.93798   0.62930   0.00000  Uiso   1.00
O314   O     0.44142   0.03338   0.33872   0.00000  Uiso   1.00
O315   O     0.16116   0.69338   0.01891   0.00000  Uiso   1.00
O316   O     0.07233   0.92271   0.93306   0.00000  Uiso   1.00
N317   N     0.42462   0.97695   0.46419   0.00000  Uiso   1.00
N318   N     0.22491   0.73466   0.23626   0.00000  Uiso   1.00
N319   N     0.16160   0.89807   0.88768   0.00000  Uiso   1.00
N320   N     0.33382   0.00350   0.26595   0.00000  Uiso   1.00
N321   N     0.13411   0.76120   0.03802   0.00000  Uiso   1.00
N322   N     0.07080   0.92462   0.68944   0.00000  Uiso   1.00
C323   C     0.77838   0.36758   0.54686   0.00000  Uiso   1.00
C324   C     0.79649   0.40421   0.47565   0.00000  Uiso   1.00
C325   C     0.86230   0.42023   0.52618   0.00000  Uiso   1.00
C326   C     0.86806   0.45383   0.44551   0.00000  Uiso   1.00
C327   C     0.90502   0.50813   0.35415   0.00000  Uiso   1.00
C328   C     0.74145   0.33744   0.41281   0.00000  Uiso   1.00
C329   C     0.76099   0.29730   0.41054   0.00000  Uiso   1.00
C330   C     0.72042   0.27470   0.27698   0.00000  Uiso   1.00
C331   C     0.67190   0.22531   0.08811   0.00000  Uiso   1.00
C332   C     0.72401   0.38248   0.59235   0.00000  Uiso   1.00
C333   C     0.72887   0.38021   0.74102   0.00000  Uiso   1.00
C334   C     0.67361   0.39552   0.75861   0.00000  Uiso   1.00
C335   C     0.59801   0.41606   0.84850   0.00000  Uiso   1.00
C336   C     0.67160   0.39880   0.31373   0.00000  Uiso   1.00
C337   C     0.73849   0.42117   0.34902   0.00000  Uiso   1.00
C338   C     0.74416   0.45476   0.26825   0.00000  Uiso   1.00
C339   C     0.80996   0.47082   0.31866   0.00000  Uiso   1.00
C340   C     0.68346   0.35439   0.28619   0.00000  Uiso   1.00
C341   C     0.64285   0.33184   0.15260   0.00000  Uiso   1.00
C342   C     0.66231   0.29168   0.15012   0.00000  Uiso   1.00
C343   C     0.66601   0.39944   0.46572   0.00000  Uiso   1.00
C344   C     0.61073   0.41475   0.48308   0.00000  Uiso   1.00
C345   C     0.61550   0.41250   0.63175   0.00000  Uiso   1.00
H346   H     0.82353   0.35438   0.64544   0.00000  Uiso   1.00
H347   H     0.90717   0.40709   0.62418   0.00000  Uiso   1.00
H348   H     0.80587   0.28419   0.50855   0.00000  Uiso   1.00
H349   H     0.77376   0.36708   0.83898   0.00000  Uiso   1.00
H350   H     0.97432   0.47301   0.54472   0.00000  Uiso   1.00
H351   H     0.76071   0.21385   0.30094   0.00000  Uiso   1.00
H352   H     0.69300   0.38865   0.99772   0.00000  Uiso   1.00
H353   H     0.62644   0.41200   0.21514   0.00000  Uiso   1.00
H354   H     0.69926   0.46788   0.17026   0.00000  Uiso   1.00
H355   H     0.59797   0.34497   0.05464   0.00000  Uiso   1.00
H356   H     0.56586   0.42787   0.38506   0.00000  Uiso   1.00
H357   H     0.80558   0.52234   0.17630   0.00000  Uiso   1.00
H358   H     0.59197   0.26318   0.93253   0.00000  Uiso   1.00
H359   H     0.52426   0.43798   0.62930   0.00000  Uiso   1.00
O360   O     0.94142   0.53338   0.33872   0.00000  Uiso   1.00
O361   O     0.66116   0.19338   0.01891   0.00000  Uiso   1.00
O362   O     0.57233   0.42271   0.93306   0.00000  Uiso   1.00
N363   N     0.92462   0.47695   0.46419   0.00000  Uiso   1.00
N364   N     0.72491   0.23466   0.23626   0.00000  Uiso   1.00
N365   N     0.66160   0.39807   0.88768   0.00000  Uiso   1.00
N366   N     0.83382   0.50350   0.26595   0.00000  Uiso   1.00
N367   N     0.63411   0.26120   0.03802   0.00000  Uiso   1.00
N368   N     0.57080   0.42462   0.68944   0.00000  Uiso   1.00
