data_job_01728
_audit_creation_date              2018-12-19
_audit_creation_method            'Materials Studio'
_symmetry_space_group_name_H-M    'P1'
_symmetry_Int_Tables_number       1
_symmetry_cell_setting            triclinic
loop_
_symmetry_equiv_pos_as_xyz
  x,y,z
_cell_length_a                    7.1770
_cell_length_b                    18.5819
_cell_length_c                    47.1918
_cell_angle_alpha                 90.0000
_cell_angle_beta                  90.0000
_cell_angle_gamma                 90.0000
loop_
_atom_site_label
_atom_site_type_symbol
_atom_site_fract_x
_atom_site_fract_y
_atom_site_fract_z
_atom_site_U_iso_or_equiv
_atom_site_adp_type
_atom_site_occupancy
C1     C     0.06144   0.57230   0.87702   0.00000  Uiso   1.00
C2     C     0.97099   0.60516   0.90324   0.00000  Uiso   1.00
C3     C     0.06159   0.64551   0.92379   0.00000  Uiso   1.00
C4     C     0.95421   0.67079   0.94615   0.00000  Uiso   1.00
C5     C     0.84285   0.72401   0.98661   0.00000  Uiso   1.00
C6     C     0.01928   0.49193   0.87827   0.00000  Uiso   1.00
C7     C     0.15049   0.43707   0.87783   0.00000  Uiso   1.00
C8     C     0.08374   0.36702   0.87917   0.00000  Uiso   1.00
C9     C     0.04734   0.24445   0.88085   0.00000  Uiso   1.00
C10    C     0.95296   0.60138   0.85170   0.00000  Uiso   1.00
C11    C     0.02840   0.63854   0.82892   0.00000  Uiso   1.00
C12    C     0.90582   0.66063   0.80789   0.00000  Uiso   1.00
C13    C     0.76645   0.70799   0.76832   0.00000  Uiso   1.00
C14    C     0.70961   0.54543   0.88017   0.00000  Uiso   1.00
C15    C     0.77989   0.59056   0.90495   0.00000  Uiso   1.00
C16    C     0.67233   0.61579   0.92728   0.00000  Uiso   1.00
C17    C     0.76276   0.65617   0.94786   0.00000  Uiso   1.00
C18    C     0.82818   0.47733   0.87999   0.00000  Uiso   1.00
C19    C     0.76122   0.40735   0.88132   0.00000  Uiso   1.00
C20    C     0.89229   0.35240   0.88089   0.00000  Uiso   1.00
C21    C     0.76185   0.58679   0.85342   0.00000  Uiso   1.00
C22    C     0.63914   0.60881   0.83241   0.00000  Uiso   1.00
C23    C     0.71438   0.64600   0.80960   0.00000  Uiso   1.00
H24    H     0.21022   0.58365   0.87568   0.00000  Uiso   1.00
H25    H     0.20949   0.65679   0.92246   0.00000  Uiso   1.00
H26    H     0.29836   0.44838   0.87650   0.00000  Uiso   1.00
H27    H     0.17629   0.64982   0.82760   0.00000  Uiso   1.00
H28    H     0.12442   0.73142   0.97508   0.00000  Uiso   1.00
H29    H     0.31180   0.29198   0.87817   0.00000  Uiso   1.00
H30    H     0.05440   0.71675   0.77505   0.00000  Uiso   1.00
H31    H     0.56082   0.53406   0.88150   0.00000  Uiso   1.00
H32    H     0.52445   0.60448   0.92860   0.00000  Uiso   1.00
H33    H     0.61333   0.39607   0.88265   0.00000  Uiso   1.00
H34    H     0.49126   0.59751   0.83374   0.00000  Uiso   1.00
H35    H     0.56842   0.68896   0.98006   0.00000  Uiso   1.00
H36    H     0.75580   0.24952   0.88316   0.00000  Uiso   1.00
H37    H     0.49840   0.67429   0.78004   0.00000  Uiso   1.00
O38    O     0.83422   0.75739   0.00845   0.00000  Uiso   1.00
O39    O     0.08006   0.18086   0.88131   0.00000  Uiso   1.00
O40    O     0.74236   0.73816   0.74602   0.00000  Uiso   1.00
N41    N     0.99855   0.71177   0.96979   0.00000  Uiso   1.00
N42    N     0.17374   0.30093   0.87919   0.00000  Uiso   1.00
N43    N     0.93310   0.69803   0.78278   0.00000  Uiso   1.00
N44    N     0.69937   0.68893   0.97247   0.00000  Uiso   1.00
N45    N     0.87456   0.27808   0.88187   0.00000  Uiso   1.00
N46    N     0.63392   0.67519   0.78546   0.00000  Uiso   1.00
C47    C     0.43856   0.92770   0.37702   0.00000  Uiso   1.00
C48    C     0.52901   0.89484   0.40324   0.00000  Uiso   1.00
C49    C     0.43841   0.85449   0.42379   0.00000  Uiso   1.00
C50    C     0.54579   0.82921   0.44615   0.00000  Uiso   1.00
C51    C     0.65715   0.77599   0.48661   0.00000  Uiso   1.00
C52    C     0.48072   0.00807   0.37827   0.00000  Uiso   1.00
C53    C     0.34951   0.06293   0.37783   0.00000  Uiso   1.00
C54    C     0.41626   0.13298   0.37917   0.00000  Uiso   1.00
C55    C     0.45266   0.25555   0.38085   0.00000  Uiso   1.00
C56    C     0.54704   0.89862   0.35170   0.00000  Uiso   1.00
C57    C     0.47160   0.86146   0.32892   0.00000  Uiso   1.00
C58    C     0.59418   0.83937   0.30789   0.00000  Uiso   1.00
C59    C     0.73355   0.79201   0.26832   0.00000  Uiso   1.00
C60    C     0.79039   0.95457   0.38017   0.00000  Uiso   1.00
C61    C     0.72011   0.90944   0.40495   0.00000  Uiso   1.00
C62    C     0.82767   0.88421   0.42728   0.00000  Uiso   1.00
C63    C     0.73724   0.84383   0.44786   0.00000  Uiso   1.00
C64    C     0.67182   0.02267   0.37999   0.00000  Uiso   1.00
C65    C     0.73878   0.09265   0.38132   0.00000  Uiso   1.00
C66    C     0.60771   0.14760   0.38089   0.00000  Uiso   1.00
C67    C     0.73815   0.91321   0.35342   0.00000  Uiso   1.00
C68    C     0.86086   0.89119   0.33241   0.00000  Uiso   1.00
C69    C     0.78562   0.85400   0.30960   0.00000  Uiso   1.00
H70    H     0.28978   0.91635   0.37568   0.00000  Uiso   1.00
H71    H     0.29051   0.84321   0.42246   0.00000  Uiso   1.00
H72    H     0.20164   0.05162   0.37650   0.00000  Uiso   1.00
H73    H     0.32371   0.85018   0.32760   0.00000  Uiso   1.00
H74    H     0.37558   0.76858   0.47508   0.00000  Uiso   1.00
H75    H     0.18820   0.20802   0.37817   0.00000  Uiso   1.00
H76    H     0.44560   0.78325   0.27505   0.00000  Uiso   1.00
H77    H     0.93918   0.96594   0.38150   0.00000  Uiso   1.00
H78    H     0.97555   0.89552   0.42860   0.00000  Uiso   1.00
H79    H     0.88667   0.10393   0.38265   0.00000  Uiso   1.00
H80    H     0.00874   0.90249   0.33374   0.00000  Uiso   1.00
H81    H     0.93158   0.81104   0.48006   0.00000  Uiso   1.00
H82    H     0.74420   0.25048   0.38316   0.00000  Uiso   1.00
H83    H     0.00160   0.82571   0.28004   0.00000  Uiso   1.00
O84    O     0.66578   0.74261   0.50845   0.00000  Uiso   1.00
O85    O     0.41994   0.31914   0.38131   0.00000  Uiso   1.00
O86    O     0.75764   0.76184   0.24602   0.00000  Uiso   1.00
N87    N     0.50145   0.78823   0.46979   0.00000  Uiso   1.00
N88    N     0.32626   0.19907   0.37919   0.00000  Uiso   1.00
N89    N     0.56690   0.80197   0.28278   0.00000  Uiso   1.00
N90    N     0.80063   0.81107   0.47247   0.00000  Uiso   1.00
N91    N     0.62544   0.22192   0.38187   0.00000  Uiso   1.00
N92    N     0.86608   0.82481   0.28546   0.00000  Uiso   1.00
C93    C     0.93856   0.57230   0.62298   0.00000  Uiso   1.00
C94    C     0.02901   0.60516   0.59676   0.00000  Uiso   1.00
C95    C     0.93841   0.64551   0.57621   0.00000  Uiso   1.00
C96    C     0.04579   0.67079   0.55385   0.00000  Uiso   1.00
C97    C     0.15715   0.72401   0.51339   0.00000  Uiso   1.00
C98    C     0.98072   0.49193   0.62173   0.00000  Uiso   1.00
C99    C     0.84951   0.43707   0.62217   0.00000  Uiso   1.00
C100   C     0.91626   0.36702   0.62083   0.00000  Uiso   1.00
C101   C     0.95266   0.24445   0.61915   0.00000  Uiso   1.00
C102   C     0.04704   0.60138   0.64830   0.00000  Uiso   1.00
C103   C     0.97160   0.63854   0.67108   0.00000  Uiso   1.00
C104   C     0.09418   0.66063   0.69211   0.00000  Uiso   1.00
C105   C     0.23355   0.70799   0.73168   0.00000  Uiso   1.00
C106   C     0.29039   0.54543   0.61983   0.00000  Uiso   1.00
C107   C     0.22011   0.59056   0.59505   0.00000  Uiso   1.00
C108   C     0.32767   0.61579   0.57272   0.00000  Uiso   1.00
C109   C     0.23724   0.65617   0.55214   0.00000  Uiso   1.00
C110   C     0.17182   0.47733   0.62001   0.00000  Uiso   1.00
C111   C     0.23878   0.40735   0.61868   0.00000  Uiso   1.00
C112   C     0.10771   0.35240   0.61911   0.00000  Uiso   1.00
C113   C     0.23815   0.58679   0.64658   0.00000  Uiso   1.00
C114   C     0.36086   0.60881   0.66759   0.00000  Uiso   1.00
C115   C     0.28562   0.64600   0.69040   0.00000  Uiso   1.00
H116   H     0.78978   0.58365   0.62432   0.00000  Uiso   1.00
H117   H     0.79051   0.65679   0.57754   0.00000  Uiso   1.00
H118   H     0.70164   0.44838   0.62350   0.00000  Uiso   1.00
H119   H     0.82371   0.64982   0.67240   0.00000  Uiso   1.00
H120   H     0.87558   0.73142   0.52492   0.00000  Uiso   1.00
H121   H     0.68820   0.29198   0.62183   0.00000  Uiso   1.00
H122   H     0.94560   0.71675   0.72495   0.00000  Uiso   1.00
H123   H     0.43918   0.53406   0.61850   0.00000  Uiso   1.00
H124   H     0.47555   0.60448   0.57140   0.00000  Uiso   1.00
H125   H     0.38667   0.39607   0.61735   0.00000  Uiso   1.00
H126   H     0.50874   0.59751   0.66626   0.00000  Uiso   1.00
H127   H     0.43158   0.68896   0.51994   0.00000  Uiso   1.00
H128   H     0.24420   0.24952   0.61684   0.00000  Uiso   1.00
H129   H     0.50160   0.67429   0.71996   0.00000  Uiso   1.00
O130   O     0.16578   0.75739   0.49155   0.00000  Uiso   1.00
O131   O     0.91994   0.18086   0.61869   0.00000  Uiso   1.00
O132   O     0.25764   0.73816   0.75398   0.00000  Uiso   1.00
N133   N     0.00145   0.71177   0.53021   0.00000  Uiso   1.00
N134   N     0.82626   0.30093   0.62081   0.00000  Uiso   1.00
N135   N     0.06690   0.69803   0.71722   0.00000  Uiso   1.00
N136   N     0.30063   0.68893   0.52753   0.00000  Uiso   1.00
N137   N     0.12544   0.27808   0.61813   0.00000  Uiso   1.00
N138   N     0.36608   0.67519   0.71454   0.00000  Uiso   1.00
C139   C     0.56144   0.92770   0.12298   0.00000  Uiso   1.00
C140   C     0.47099   0.89484   0.09676   0.00000  Uiso   1.00
C141   C     0.56159   0.85449   0.07621   0.00000  Uiso   1.00
C142   C     0.45421   0.82921   0.05385   0.00000  Uiso   1.00
C143   C     0.34285   0.77599   0.01339   0.00000  Uiso   1.00
C144   C     0.51928   0.00807   0.12173   0.00000  Uiso   1.00
C145   C     0.65049   0.06293   0.12217   0.00000  Uiso   1.00
C146   C     0.58374   0.13298   0.12083   0.00000  Uiso   1.00
C147   C     0.54734   0.25555   0.11915   0.00000  Uiso   1.00
C148   C     0.45296   0.89862   0.14830   0.00000  Uiso   1.00
C149   C     0.52840   0.86146   0.17108   0.00000  Uiso   1.00
C150   C     0.40582   0.83937   0.19211   0.00000  Uiso   1.00
C151   C     0.26645   0.79201   0.23168   0.00000  Uiso   1.00
C152   C     0.20961   0.95457   0.11983   0.00000  Uiso   1.00
C153   C     0.27989   0.90944   0.09505   0.00000  Uiso   1.00
C154   C     0.17233   0.88421   0.07272   0.00000  Uiso   1.00
C155   C     0.26276   0.84383   0.05214   0.00000  Uiso   1.00
C156   C     0.32818   0.02267   0.12001   0.00000  Uiso   1.00
C157   C     0.26122   0.09265   0.11868   0.00000  Uiso   1.00
C158   C     0.39229   0.14760   0.11911   0.00000  Uiso   1.00
C159   C     0.26185   0.91321   0.14658   0.00000  Uiso   1.00
C160   C     0.13914   0.89119   0.16759   0.00000  Uiso   1.00
C161   C     0.21438   0.85400   0.19040   0.00000  Uiso   1.00
H162   H     0.71022   0.91635   0.12432   0.00000  Uiso   1.00
H163   H     0.70949   0.84321   0.07754   0.00000  Uiso   1.00
H164   H     0.79836   0.05162   0.12350   0.00000  Uiso   1.00
H165   H     0.67629   0.85018   0.17240   0.00000  Uiso   1.00
H166   H     0.62442   0.76858   0.02492   0.00000  Uiso   1.00
H167   H     0.81180   0.20802   0.12183   0.00000  Uiso   1.00
H168   H     0.55440   0.78325   0.22495   0.00000  Uiso   1.00
H169   H     0.06082   0.96594   0.11850   0.00000  Uiso   1.00
H170   H     0.02445   0.89552   0.07140   0.00000  Uiso   1.00
H171   H     0.11333   0.10393   0.11735   0.00000  Uiso   1.00
H172   H     0.99126   0.90249   0.16626   0.00000  Uiso   1.00
H173   H     0.06842   0.81104   0.01994   0.00000  Uiso   1.00
H174   H     0.25580   0.25048   0.11684   0.00000  Uiso   1.00
H175   H     0.99840   0.82571   0.21996   0.00000  Uiso   1.00
O176   O     0.33422   0.74261   0.99155   0.00000  Uiso   1.00
O177   O     0.58006   0.31914   0.11869   0.00000  Uiso   1.00
O178   O     0.24236   0.76184   0.25398   0.00000  Uiso   1.00
N179   N     0.49855   0.78823   0.03021   0.00000  Uiso   1.00
N180   N     0.67374   0.19907   0.12081   0.00000  Uiso   1.00
N181   N     0.43310   0.80197   0.21722   0.00000  Uiso   1.00
N182   N     0.19937   0.81107   0.02753   0.00000  Uiso   1.00
N183   N     0.37456   0.22192   0.11813   0.00000  Uiso   1.00
N184   N     0.13392   0.82481   0.21454   0.00000  Uiso   1.00
C185   C     0.93856   0.42770   0.12298   0.00000  Uiso   1.00
C186   C     0.02901   0.39484   0.09676   0.00000  Uiso   1.00
C187   C     0.93841   0.35449   0.07621   0.00000  Uiso   1.00
C188   C     0.04579   0.32921   0.05385   0.00000  Uiso   1.00
C189   C     0.15715   0.27599   0.01339   0.00000  Uiso   1.00
C190   C     0.98072   0.50807   0.12173   0.00000  Uiso   1.00
C191   C     0.84951   0.56293   0.12217   0.00000  Uiso   1.00
C192   C     0.91626   0.63298   0.12083   0.00000  Uiso   1.00
C193   C     0.95266   0.75555   0.11915   0.00000  Uiso   1.00
C194   C     0.04704   0.39862   0.14830   0.00000  Uiso   1.00
C195   C     0.97160   0.36146   0.17108   0.00000  Uiso   1.00
C196   C     0.09418   0.33937   0.19211   0.00000  Uiso   1.00
C197   C     0.23355   0.29201   0.23168   0.00000  Uiso   1.00
C198   C     0.29039   0.45457   0.11983   0.00000  Uiso   1.00
C199   C     0.22011   0.40944   0.09505   0.00000  Uiso   1.00
C200   C     0.32767   0.38421   0.07272   0.00000  Uiso   1.00
C201   C     0.23724   0.34383   0.05214   0.00000  Uiso   1.00
C202   C     0.17182   0.52267   0.12001   0.00000  Uiso   1.00
C203   C     0.23878   0.59265   0.11868   0.00000  Uiso   1.00
C204   C     0.10771   0.64760   0.11911   0.00000  Uiso   1.00
C205   C     0.23815   0.41321   0.14658   0.00000  Uiso   1.00
C206   C     0.36086   0.39119   0.16759   0.00000  Uiso   1.00
C207   C     0.28562   0.35400   0.19040   0.00000  Uiso   1.00
H208   H     0.78978   0.41635   0.12432   0.00000  Uiso   1.00
H209   H     0.79051   0.34321   0.07754   0.00000  Uiso   1.00
H210   H     0.70164   0.55162   0.12350   0.00000  Uiso   1.00
H211   H     0.82371   0.35018   0.17240   0.00000  Uiso   1.00
H212   H     0.87558   0.26858   0.02492   0.00000  Uiso   1.00
H213   H     0.68820   0.70802   0.12183   0.00000  Uiso   1.00
H214   H     0.94560   0.28325   0.22495   0.00000  Uiso   1.00
H215   H     0.43918   0.46594   0.11850   0.00000  Uiso   1.00
H216   H     0.47555   0.39552   0.07140   0.00000  Uiso   1.00
H217   H     0.38667   0.60393   0.11735   0.00000  Uiso   1.00
H218   H     0.50874   0.40249   0.16626   0.00000  Uiso   1.00
H219   H     0.43158   0.31104   0.01994   0.00000  Uiso   1.00
H220   H     0.24420   0.75048   0.11684   0.00000  Uiso   1.00
H221   H     0.50160   0.32571   0.21996   0.00000  Uiso   1.00
O222   O     0.16578   0.24261   0.99155   0.00000  Uiso   1.00
O223   O     0.91994   0.81914   0.11869   0.00000  Uiso   1.00
O224   O     0.25764   0.26184   0.25398   0.00000  Uiso   1.00
N225   N     0.00145   0.28823   0.03021   0.00000  Uiso   1.00
N226   N     0.82626   0.69907   0.12081   0.00000  Uiso   1.00
N227   N     0.06690   0.30197   0.21722   0.00000  Uiso   1.00
N228   N     0.30063   0.31107   0.02753   0.00000  Uiso   1.00
N229   N     0.12544   0.72192   0.11813   0.00000  Uiso   1.00
N230   N     0.36608   0.32481   0.21454   0.00000  Uiso   1.00
C231   C     0.56144   0.07230   0.62298   0.00000  Uiso   1.00
C232   C     0.47099   0.10516   0.59676   0.00000  Uiso   1.00
C233   C     0.56159   0.14551   0.57621   0.00000  Uiso   1.00
C234   C     0.45421   0.17079   0.55385   0.00000  Uiso   1.00
C235   C     0.34285   0.22401   0.51339   0.00000  Uiso   1.00
C236   C     0.51928   0.99193   0.62173   0.00000  Uiso   1.00
C237   C     0.65049   0.93707   0.62217   0.00000  Uiso   1.00
C238   C     0.58374   0.86702   0.62083   0.00000  Uiso   1.00
C239   C     0.54734   0.74445   0.61915   0.00000  Uiso   1.00
C240   C     0.45296   0.10138   0.64830   0.00000  Uiso   1.00
C241   C     0.52840   0.13854   0.67108   0.00000  Uiso   1.00
C242   C     0.40582   0.16063   0.69211   0.00000  Uiso   1.00
C243   C     0.26645   0.20799   0.73168   0.00000  Uiso   1.00
C244   C     0.20961   0.04543   0.61983   0.00000  Uiso   1.00
C245   C     0.27989   0.09056   0.59505   0.00000  Uiso   1.00
C246   C     0.17233   0.11579   0.57272   0.00000  Uiso   1.00
C247   C     0.26276   0.15617   0.55214   0.00000  Uiso   1.00
C248   C     0.32818   0.97733   0.62001   0.00000  Uiso   1.00
C249   C     0.26122   0.90735   0.61868   0.00000  Uiso   1.00
C250   C     0.39229   0.85240   0.61911   0.00000  Uiso   1.00
C251   C     0.26185   0.08679   0.64658   0.00000  Uiso   1.00
C252   C     0.13914   0.10881   0.66759   0.00000  Uiso   1.00
C253   C     0.21438   0.14600   0.69040   0.00000  Uiso   1.00
H254   H     0.71022   0.08365   0.62432   0.00000  Uiso   1.00
H255   H     0.70949   0.15679   0.57754   0.00000  Uiso   1.00
H256   H     0.79836   0.94838   0.62350   0.00000  Uiso   1.00
H257   H     0.67629   0.14982   0.67240   0.00000  Uiso   1.00
H258   H     0.62442   0.23142   0.52492   0.00000  Uiso   1.00
H259   H     0.81180   0.79198   0.62183   0.00000  Uiso   1.00
H260   H     0.55440   0.21675   0.72495   0.00000  Uiso   1.00
H261   H     0.06082   0.03406   0.61850   0.00000  Uiso   1.00
H262   H     0.02445   0.10448   0.57140   0.00000  Uiso   1.00
H263   H     0.11333   0.89607   0.61735   0.00000  Uiso   1.00
H264   H     0.99126   0.09751   0.66626   0.00000  Uiso   1.00
H265   H     0.06842   0.18896   0.51994   0.00000  Uiso   1.00
H266   H     0.25580   0.74952   0.61684   0.00000  Uiso   1.00
H267   H     0.99840   0.17429   0.71996   0.00000  Uiso   1.00
O268   O     0.33422   0.25739   0.49155   0.00000  Uiso   1.00
O269   O     0.58006   0.68086   0.61869   0.00000  Uiso   1.00
O270   O     0.24236   0.23816   0.75398   0.00000  Uiso   1.00
N271   N     0.49855   0.21177   0.53021   0.00000  Uiso   1.00
N272   N     0.67374   0.80093   0.62081   0.00000  Uiso   1.00
N273   N     0.43310   0.19803   0.71722   0.00000  Uiso   1.00
N274   N     0.19937   0.18893   0.52753   0.00000  Uiso   1.00
N275   N     0.37456   0.77808   0.61813   0.00000  Uiso   1.00
N276   N     0.13392   0.17519   0.71454   0.00000  Uiso   1.00
C277   C     0.06144   0.42770   0.37702   0.00000  Uiso   1.00
C278   C     0.97099   0.39484   0.40324   0.00000  Uiso   1.00
C279   C     0.06159   0.35449   0.42379   0.00000  Uiso   1.00
C280   C     0.95421   0.32921   0.44615   0.00000  Uiso   1.00
C281   C     0.84285   0.27599   0.48661   0.00000  Uiso   1.00
C282   C     0.01928   0.50807   0.37827   0.00000  Uiso   1.00
C283   C     0.15049   0.56293   0.37783   0.00000  Uiso   1.00
C284   C     0.08374   0.63298   0.37917   0.00000  Uiso   1.00
C285   C     0.04734   0.75555   0.38085   0.00000  Uiso   1.00
C286   C     0.95296   0.39862   0.35170   0.00000  Uiso   1.00
C287   C     0.02840   0.36146   0.32892   0.00000  Uiso   1.00
C288   C     0.90582   0.33937   0.30789   0.00000  Uiso   1.00
C289   C     0.76645   0.29201   0.26832   0.00000  Uiso   1.00
C290   C     0.70961   0.45457   0.38017   0.00000  Uiso   1.00
C291   C     0.77989   0.40944   0.40495   0.00000  Uiso   1.00
C292   C     0.67233   0.38421   0.42728   0.00000  Uiso   1.00
C293   C     0.76276   0.34383   0.44786   0.00000  Uiso   1.00
C294   C     0.82818   0.52267   0.37999   0.00000  Uiso   1.00
C295   C     0.76122   0.59265   0.38132   0.00000  Uiso   1.00
C296   C     0.89229   0.64760   0.38089   0.00000  Uiso   1.00
C297   C     0.76185   0.41321   0.35342   0.00000  Uiso   1.00
C298   C     0.63914   0.39119   0.33241   0.00000  Uiso   1.00
C299   C     0.71438   0.35400   0.30960   0.00000  Uiso   1.00
H300   H     0.21022   0.41635   0.37568   0.00000  Uiso   1.00
H301   H     0.20949   0.34321   0.42246   0.00000  Uiso   1.00
H302   H     0.29836   0.55162   0.37650   0.00000  Uiso   1.00
H303   H     0.17629   0.35018   0.32760   0.00000  Uiso   1.00
H304   H     0.12442   0.26858   0.47508   0.00000  Uiso   1.00
H305   H     0.31180   0.70802   0.37817   0.00000  Uiso   1.00
H306   H     0.05440   0.28325   0.27505   0.00000  Uiso   1.00
H307   H     0.56082   0.46594   0.38150   0.00000  Uiso   1.00
H308   H     0.52445   0.39552   0.42860   0.00000  Uiso   1.00
H309   H     0.61333   0.60393   0.38265   0.00000  Uiso   1.00
H310   H     0.49126   0.40249   0.33374   0.00000  Uiso   1.00
H311   H     0.56842   0.31104   0.48006   0.00000  Uiso   1.00
H312   H     0.75580   0.75048   0.38316   0.00000  Uiso   1.00
H313   H     0.49840   0.32571   0.28004   0.00000  Uiso   1.00
O314   O     0.83422   0.24261   0.50845   0.00000  Uiso   1.00
O315   O     0.08006   0.81914   0.38131   0.00000  Uiso   1.00
O316   O     0.74236   0.26184   0.24602   0.00000  Uiso   1.00
N317   N     0.99855   0.28823   0.46979   0.00000  Uiso   1.00
N318   N     0.17374   0.69907   0.37919   0.00000  Uiso   1.00
N319   N     0.93310   0.30197   0.28278   0.00000  Uiso   1.00
N320   N     0.69937   0.31107   0.47247   0.00000  Uiso   1.00
N321   N     0.87456   0.72192   0.38187   0.00000  Uiso   1.00
N322   N     0.63392   0.32481   0.28546   0.00000  Uiso   1.00
C323   C     0.43856   0.07230   0.87702   0.00000  Uiso   1.00
C324   C     0.52901   0.10516   0.90324   0.00000  Uiso   1.00
C325   C     0.43841   0.14551   0.92379   0.00000  Uiso   1.00
C326   C     0.54579   0.17079   0.94615   0.00000  Uiso   1.00
C327   C     0.65715   0.22401   0.98661   0.00000  Uiso   1.00
C328   C     0.48072   0.99193   0.87827   0.00000  Uiso   1.00
C329   C     0.34951   0.93707   0.87783   0.00000  Uiso   1.00
C330   C     0.41626   0.86702   0.87917   0.00000  Uiso   1.00
C331   C     0.45266   0.74445   0.88085   0.00000  Uiso   1.00
C332   C     0.54704   0.10138   0.85170   0.00000  Uiso   1.00
C333   C     0.47160   0.13854   0.82892   0.00000  Uiso   1.00
C334   C     0.59418   0.16063   0.80789   0.00000  Uiso   1.00
C335   C     0.73355   0.20799   0.76832   0.00000  Uiso   1.00
C336   C     0.79039   0.04543   0.88017   0.00000  Uiso   1.00
C337   C     0.72011   0.09056   0.90495   0.00000  Uiso   1.00
C338   C     0.82767   0.11579   0.92728   0.00000  Uiso   1.00
C339   C     0.73724   0.15617   0.94786   0.00000  Uiso   1.00
C340   C     0.67182   0.97733   0.87999   0.00000  Uiso   1.00
C341   C     0.73878   0.90735   0.88132   0.00000  Uiso   1.00
C342   C     0.60771   0.85240   0.88089   0.00000  Uiso   1.00
C343   C     0.73815   0.08679   0.85342   0.00000  Uiso   1.00
C344   C     0.86086   0.10881   0.83241   0.00000  Uiso   1.00
C345   C     0.78562   0.14600   0.80960   0.00000  Uiso   1.00
H346   H     0.28978   0.08365   0.87568   0.00000  Uiso   1.00
H347   H     0.29051   0.15679   0.92246   0.00000  Uiso   1.00
H348   H     0.20164   0.94838   0.87650   0.00000  Uiso   1.00
H349   H     0.32371   0.14982   0.82760   0.00000  Uiso   1.00
H350   H     0.37558   0.23142   0.97508   0.00000  Uiso   1.00
H351   H     0.18820   0.79198   0.87817   0.00000  Uiso   1.00
H352   H     0.44560   0.21675   0.77505   0.00000  Uiso   1.00
H353   H     0.93918   0.03406   0.88150   0.00000  Uiso   1.00
H354   H     0.97555   0.10448   0.92860   0.00000  Uiso   1.00
H355   H     0.88667   0.89607   0.88265   0.00000  Uiso   1.00
H356   H     0.00874   0.09751   0.83374   0.00000  Uiso   1.00
H357   H     0.93158   0.18896   0.98006   0.00000  Uiso   1.00
H358   H     0.74420   0.74952   0.88316   0.00000  Uiso   1.00
H359   H     0.00160   0.17429   0.78004   0.00000  Uiso   1.00
O360   O     0.66578   0.25739   0.00845   0.00000  Uiso   1.00
O361   O     0.41994   0.68086   0.88131   0.00000  Uiso   1.00
O362   O     0.75764   0.23816   0.74602   0.00000  Uiso   1.00
N363   N     0.50145   0.21177   0.96979   0.00000  Uiso   1.00
N364   N     0.32626   0.80093   0.87919   0.00000  Uiso   1.00
N365   N     0.56690   0.19803   0.78278   0.00000  Uiso   1.00
N366   N     0.80063   0.18893   0.97247   0.00000  Uiso   1.00
N367   N     0.62544   0.77808   0.88187   0.00000  Uiso   1.00
N368   N     0.86608   0.17519   0.78546   0.00000  Uiso   1.00
