data_job_05626
_audit_creation_date              2018-12-19
_audit_creation_method            'Materials Studio'
_symmetry_space_group_name_H-M    'P1'
_symmetry_Int_Tables_number       1
_symmetry_cell_setting            triclinic
loop_
_symmetry_equiv_pos_as_xyz
  x,y,z
_cell_length_a                    17.8327
_cell_length_b                    26.6352
_cell_length_c                    10.4053
_cell_angle_alpha                 90.0000
_cell_angle_beta                  90.0000
_cell_angle_gamma                 90.0000
loop_
_atom_site_label
_atom_site_type_symbol
_atom_site_fract_x
_atom_site_fract_y
_atom_site_fract_z
_atom_site_U_iso_or_equiv
_atom_site_adp_type
_atom_site_occupancy
C1     C     0.93314   0.89016   0.53232   0.00000  Uiso   1.00
C2     C     0.89750   0.84324   0.58996   0.00000  Uiso   1.00
C3     C     0.92563   0.81576   0.69251   0.00000  Uiso   1.00
C4     C     0.88475   0.77400   0.73088   0.00000  Uiso   1.00
C5     C     0.83957   0.70322   0.82978   0.00000  Uiso   1.00
C6     C     0.94452   0.87889   0.38996   0.00000  Uiso   1.00
C7     C     0.01218   0.88139   0.32436   0.00000  Uiso   1.00
C8     C     0.01087   0.86966   0.19436   0.00000  Uiso   1.00
C9     C     0.03867   0.85427   0.98274   0.00000  Uiso   1.00
C10    C     0.87336   0.93102   0.53876   0.00000  Uiso   1.00
C11    C     0.88119   0.97736   0.59823   0.00000  Uiso   1.00
C12    C     0.81998   0.00952   0.59349   0.00000  Uiso   1.00
C13    C     0.73730   0.07506   0.61289   0.00000  Uiso   1.00
C14    C     0.81051   0.86487   0.41811   0.00000  Uiso   1.00
C15    C     0.83090   0.82950   0.52792   0.00000  Uiso   1.00
C16    C     0.78996   0.78778   0.56615   0.00000  Uiso   1.00
C17    C     0.81803   0.76025   0.66874   0.00000  Uiso   1.00
C18    C     0.87792   0.86515   0.32793   0.00000  Uiso   1.00
C19    C     0.87651   0.85342   0.19800   0.00000  Uiso   1.00
C20    C     0.94414   0.85590   0.13221   0.00000  Uiso   1.00
C21    C     0.80675   0.91728   0.47673   0.00000  Uiso   1.00
C22    C     0.74552   0.94938   0.47188   0.00000  Uiso   1.00
C23    C     0.75325   0.99576   0.53134   0.00000  Uiso   1.00
H24    H     0.98499   0.90085   0.58060   0.00000  Uiso   1.00
H25    H     0.97718   0.82639   0.74048   0.00000  Uiso   1.00
H26    H     0.06371   0.89203   0.37238   0.00000  Uiso   1.00
H27    H     0.93274   0.98797   0.64622   0.00000  Uiso   1.00
H28    H     0.93917   0.73778   0.89035   0.00000  Uiso   1.00
H29    H     0.12160   0.87619   0.11419   0.00000  Uiso   1.00
H30    H     0.84544   0.07851   0.69163   0.00000  Uiso   1.00
H31    H     0.75866   0.85418   0.36981   0.00000  Uiso   1.00
H32    H     0.73842   0.77716   0.51813   0.00000  Uiso   1.00
H33    H     0.82495   0.84280   0.15002   0.00000  Uiso   1.00
H34    H     0.69398   0.93874   0.42386   0.00000  Uiso   1.00
H35    H     0.74538   0.69782   0.70987   0.00000  Uiso   1.00
H36    H     0.92782   0.83623   0.93370   0.00000  Uiso   1.00
H37    H     0.65165   0.03855   0.51115   0.00000  Uiso   1.00
O38    O     0.83306   0.66797   0.90145   0.00000  Uiso   1.00
O39    O     0.07241   0.84956   0.88315   0.00000  Uiso   1.00
O40    O     0.71009   0.11500   0.64075   0.00000  Uiso   1.00
N41    N     0.89633   0.73895   0.82753   0.00000  Uiso   1.00
N42    N     0.06690   0.86835   0.10187   0.00000  Uiso   1.00
N43    N     0.80871   0.05751   0.64170   0.00000  Uiso   1.00
N44    N     0.79205   0.71745   0.73042   0.00000  Uiso   1.00
N45    N     0.96262   0.84684   0.00476   0.00000  Uiso   1.00
N46    N     0.70444   0.03601   0.54459   0.00000  Uiso   1.00
C47    C     0.93314   0.39016   0.03232   0.00000  Uiso   1.00
C48    C     0.89750   0.34324   0.08996   0.00000  Uiso   1.00
C49    C     0.92563   0.31576   0.19251   0.00000  Uiso   1.00
C50    C     0.88475   0.27400   0.23088   0.00000  Uiso   1.00
C51    C     0.83957   0.20322   0.32978   0.00000  Uiso   1.00
C52    C     0.94452   0.37889   0.88996   0.00000  Uiso   1.00
C53    C     0.01218   0.38139   0.82436   0.00000  Uiso   1.00
C54    C     0.01087   0.36966   0.69436   0.00000  Uiso   1.00
C55    C     0.03867   0.35427   0.48274   0.00000  Uiso   1.00
C56    C     0.87336   0.43102   0.03876   0.00000  Uiso   1.00
C57    C     0.88119   0.47736   0.09823   0.00000  Uiso   1.00
C58    C     0.81998   0.50952   0.09349   0.00000  Uiso   1.00
C59    C     0.73730   0.57506   0.11289   0.00000  Uiso   1.00
C60    C     0.81051   0.36487   0.91811   0.00000  Uiso   1.00
C61    C     0.83090   0.32950   0.02792   0.00000  Uiso   1.00
C62    C     0.78996   0.28778   0.06615   0.00000  Uiso   1.00
C63    C     0.81803   0.26025   0.16874   0.00000  Uiso   1.00
C64    C     0.87792   0.36515   0.82793   0.00000  Uiso   1.00
C65    C     0.87651   0.35342   0.69800   0.00000  Uiso   1.00
C66    C     0.94414   0.35590   0.63221   0.00000  Uiso   1.00
C67    C     0.80675   0.41728   0.97673   0.00000  Uiso   1.00
C68    C     0.74552   0.44938   0.97188   0.00000  Uiso   1.00
C69    C     0.75325   0.49576   0.03134   0.00000  Uiso   1.00
H70    H     0.98499   0.40085   0.08060   0.00000  Uiso   1.00
H71    H     0.97718   0.32639   0.24048   0.00000  Uiso   1.00
H72    H     0.06371   0.39203   0.87238   0.00000  Uiso   1.00
H73    H     0.93274   0.48797   0.14622   0.00000  Uiso   1.00
H74    H     0.93917   0.23778   0.39035   0.00000  Uiso   1.00
H75    H     0.12160   0.37619   0.61419   0.00000  Uiso   1.00
H76    H     0.84544   0.57851   0.19163   0.00000  Uiso   1.00
H77    H     0.75866   0.35418   0.86981   0.00000  Uiso   1.00
H78    H     0.73842   0.27716   0.01813   0.00000  Uiso   1.00
H79    H     0.82495   0.34280   0.65002   0.00000  Uiso   1.00
H80    H     0.69398   0.43874   0.92386   0.00000  Uiso   1.00
H81    H     0.74538   0.19782   0.20987   0.00000  Uiso   1.00
H82    H     0.92782   0.33623   0.43370   0.00000  Uiso   1.00
H83    H     0.65165   0.53855   0.01115   0.00000  Uiso   1.00
O84    O     0.83306   0.16797   0.40145   0.00000  Uiso   1.00
O85    O     0.07241   0.34956   0.38315   0.00000  Uiso   1.00
O86    O     0.71009   0.61500   0.14075   0.00000  Uiso   1.00
N87    N     0.89633   0.23895   0.32753   0.00000  Uiso   1.00
N88    N     0.06690   0.36835   0.60187   0.00000  Uiso   1.00
N89    N     0.80871   0.55751   0.14170   0.00000  Uiso   1.00
N90    N     0.79205   0.21745   0.23042   0.00000  Uiso   1.00
N91    N     0.96262   0.34684   0.50476   0.00000  Uiso   1.00
N92    N     0.70444   0.53601   0.04459   0.00000  Uiso   1.00
C93    C     0.06686   0.10984   0.53232   0.00000  Uiso   1.00
C94    C     0.10250   0.15676   0.58996   0.00000  Uiso   1.00
C95    C     0.07437   0.18424   0.69251   0.00000  Uiso   1.00
C96    C     0.11525   0.22600   0.73088   0.00000  Uiso   1.00
C97    C     0.16043   0.29678   0.82978   0.00000  Uiso   1.00
C98    C     0.05548   0.12111   0.38996   0.00000  Uiso   1.00
C99    C     0.98782   0.11861   0.32436   0.00000  Uiso   1.00
C100   C     0.98913   0.13034   0.19436   0.00000  Uiso   1.00
C101   C     0.96133   0.14573   0.98274   0.00000  Uiso   1.00
C102   C     0.12664   0.06898   0.53876   0.00000  Uiso   1.00
C103   C     0.11881   0.02264   0.59823   0.00000  Uiso   1.00
C104   C     0.18002   0.99048   0.59349   0.00000  Uiso   1.00
C105   C     0.26270   0.92494   0.61289   0.00000  Uiso   1.00
C106   C     0.18949   0.13513   0.41811   0.00000  Uiso   1.00
C107   C     0.16910   0.17050   0.52792   0.00000  Uiso   1.00
C108   C     0.21004   0.21222   0.56615   0.00000  Uiso   1.00
C109   C     0.18197   0.23975   0.66874   0.00000  Uiso   1.00
C110   C     0.12208   0.13485   0.32793   0.00000  Uiso   1.00
C111   C     0.12349   0.14658   0.19800   0.00000  Uiso   1.00
C112   C     0.05586   0.14410   0.13221   0.00000  Uiso   1.00
C113   C     0.19325   0.08272   0.47673   0.00000  Uiso   1.00
C114   C     0.25448   0.05062   0.47188   0.00000  Uiso   1.00
C115   C     0.24675   0.00424   0.53134   0.00000  Uiso   1.00
H116   H     0.01501   0.09915   0.58060   0.00000  Uiso   1.00
H117   H     0.02282   0.17361   0.74048   0.00000  Uiso   1.00
H118   H     0.93629   0.10797   0.37238   0.00000  Uiso   1.00
H119   H     0.06726   0.01203   0.64622   0.00000  Uiso   1.00
H120   H     0.06083   0.26222   0.89035   0.00000  Uiso   1.00
H121   H     0.87840   0.12381   0.11419   0.00000  Uiso   1.00
H122   H     0.15456   0.92149   0.69163   0.00000  Uiso   1.00
H123   H     0.24134   0.14582   0.36981   0.00000  Uiso   1.00
H124   H     0.26158   0.22284   0.51813   0.00000  Uiso   1.00
H125   H     0.17505   0.15720   0.15002   0.00000  Uiso   1.00
H126   H     0.30602   0.06126   0.42386   0.00000  Uiso   1.00
H127   H     0.25462   0.30218   0.70987   0.00000  Uiso   1.00
H128   H     0.07218   0.16377   0.93370   0.00000  Uiso   1.00
H129   H     0.34835   0.96145   0.51115   0.00000  Uiso   1.00
O130   O     0.16694   0.33203   0.90145   0.00000  Uiso   1.00
O131   O     0.92759   0.15044   0.88315   0.00000  Uiso   1.00
O132   O     0.28991   0.88500   0.64075   0.00000  Uiso   1.00
N133   N     0.10367   0.26105   0.82753   0.00000  Uiso   1.00
N134   N     0.93310   0.13165   0.10187   0.00000  Uiso   1.00
N135   N     0.19129   0.94249   0.64170   0.00000  Uiso   1.00
N136   N     0.20795   0.28255   0.73042   0.00000  Uiso   1.00
N137   N     0.03738   0.15316   0.00476   0.00000  Uiso   1.00
N138   N     0.29556   0.96399   0.54459   0.00000  Uiso   1.00
C139   C     0.06686   0.60984   0.03232   0.00000  Uiso   1.00
C140   C     0.10250   0.65676   0.08996   0.00000  Uiso   1.00
C141   C     0.07437   0.68424   0.19251   0.00000  Uiso   1.00
C142   C     0.11525   0.72600   0.23088   0.00000  Uiso   1.00
C143   C     0.16043   0.79678   0.32978   0.00000  Uiso   1.00
C144   C     0.05548   0.62111   0.88996   0.00000  Uiso   1.00
C145   C     0.98782   0.61861   0.82436   0.00000  Uiso   1.00
C146   C     0.98913   0.63034   0.69436   0.00000  Uiso   1.00
C147   C     0.96133   0.64573   0.48274   0.00000  Uiso   1.00
C148   C     0.12664   0.56898   0.03876   0.00000  Uiso   1.00
C149   C     0.11881   0.52264   0.09823   0.00000  Uiso   1.00
C150   C     0.18002   0.49048   0.09349   0.00000  Uiso   1.00
C151   C     0.26270   0.42494   0.11289   0.00000  Uiso   1.00
C152   C     0.18949   0.63513   0.91811   0.00000  Uiso   1.00
C153   C     0.16910   0.67050   0.02792   0.00000  Uiso   1.00
C154   C     0.21004   0.71222   0.06615   0.00000  Uiso   1.00
C155   C     0.18197   0.73975   0.16874   0.00000  Uiso   1.00
C156   C     0.12208   0.63485   0.82793   0.00000  Uiso   1.00
C157   C     0.12349   0.64658   0.69800   0.00000  Uiso   1.00
C158   C     0.05586   0.64410   0.63221   0.00000  Uiso   1.00
C159   C     0.19325   0.58272   0.97673   0.00000  Uiso   1.00
C160   C     0.25448   0.55062   0.97188   0.00000  Uiso   1.00
C161   C     0.24675   0.50424   0.03134   0.00000  Uiso   1.00
H162   H     0.01501   0.59915   0.08060   0.00000  Uiso   1.00
H163   H     0.02282   0.67361   0.24048   0.00000  Uiso   1.00
H164   H     0.93629   0.60797   0.87238   0.00000  Uiso   1.00
H165   H     0.06726   0.51203   0.14622   0.00000  Uiso   1.00
H166   H     0.06083   0.76222   0.39035   0.00000  Uiso   1.00
H167   H     0.87840   0.62381   0.61419   0.00000  Uiso   1.00
H168   H     0.15456   0.42149   0.19163   0.00000  Uiso   1.00
H169   H     0.24134   0.64582   0.86981   0.00000  Uiso   1.00
H170   H     0.26158   0.72284   0.01813   0.00000  Uiso   1.00
H171   H     0.17505   0.65720   0.65002   0.00000  Uiso   1.00
H172   H     0.30602   0.56126   0.92386   0.00000  Uiso   1.00
H173   H     0.25462   0.80218   0.20987   0.00000  Uiso   1.00
H174   H     0.07218   0.66377   0.43370   0.00000  Uiso   1.00
H175   H     0.34835   0.46145   0.01115   0.00000  Uiso   1.00
O176   O     0.16694   0.83203   0.40145   0.00000  Uiso   1.00
O177   O     0.92759   0.65044   0.38315   0.00000  Uiso   1.00
O178   O     0.28991   0.38500   0.14075   0.00000  Uiso   1.00
N179   N     0.10367   0.76105   0.32753   0.00000  Uiso   1.00
N180   N     0.93310   0.63165   0.60187   0.00000  Uiso   1.00
N181   N     0.19129   0.44249   0.14170   0.00000  Uiso   1.00
N182   N     0.20795   0.78255   0.23042   0.00000  Uiso   1.00
N183   N     0.03738   0.65316   0.50476   0.00000  Uiso   1.00
N184   N     0.29556   0.46399   0.04459   0.00000  Uiso   1.00
C185   C     0.43314   0.60984   0.53232   0.00000  Uiso   1.00
C186   C     0.39750   0.65676   0.58996   0.00000  Uiso   1.00
C187   C     0.42563   0.68424   0.69251   0.00000  Uiso   1.00
C188   C     0.38475   0.72600   0.73088   0.00000  Uiso   1.00
C189   C     0.33957   0.79678   0.82978   0.00000  Uiso   1.00
C190   C     0.44452   0.62111   0.38996   0.00000  Uiso   1.00
C191   C     0.51218   0.61861   0.32436   0.00000  Uiso   1.00
C192   C     0.51087   0.63034   0.19436   0.00000  Uiso   1.00
C193   C     0.53867   0.64573   0.98274   0.00000  Uiso   1.00
C194   C     0.37336   0.56898   0.53876   0.00000  Uiso   1.00
C195   C     0.38119   0.52264   0.59823   0.00000  Uiso   1.00
C196   C     0.31998   0.49048   0.59349   0.00000  Uiso   1.00
C197   C     0.23730   0.42494   0.61289   0.00000  Uiso   1.00
C198   C     0.31051   0.63513   0.41811   0.00000  Uiso   1.00
C199   C     0.33090   0.67050   0.52792   0.00000  Uiso   1.00
C200   C     0.28996   0.71222   0.56615   0.00000  Uiso   1.00
C201   C     0.31803   0.73975   0.66874   0.00000  Uiso   1.00
C202   C     0.37792   0.63485   0.32793   0.00000  Uiso   1.00
C203   C     0.37651   0.64658   0.19800   0.00000  Uiso   1.00
C204   C     0.44414   0.64410   0.13221   0.00000  Uiso   1.00
C205   C     0.30675   0.58272   0.47673   0.00000  Uiso   1.00
C206   C     0.24552   0.55062   0.47188   0.00000  Uiso   1.00
C207   C     0.25325   0.50424   0.53134   0.00000  Uiso   1.00
H208   H     0.48499   0.59915   0.58060   0.00000  Uiso   1.00
H209   H     0.47718   0.67361   0.74048   0.00000  Uiso   1.00
H210   H     0.56371   0.60797   0.37238   0.00000  Uiso   1.00
H211   H     0.43274   0.51203   0.64622   0.00000  Uiso   1.00
H212   H     0.43917   0.76222   0.89035   0.00000  Uiso   1.00
H213   H     0.62160   0.62381   0.11419   0.00000  Uiso   1.00
H214   H     0.34544   0.42149   0.69163   0.00000  Uiso   1.00
H215   H     0.25866   0.64582   0.36981   0.00000  Uiso   1.00
H216   H     0.23842   0.72284   0.51813   0.00000  Uiso   1.00
H217   H     0.32495   0.65720   0.15002   0.00000  Uiso   1.00
H218   H     0.19398   0.56126   0.42386   0.00000  Uiso   1.00
H219   H     0.24538   0.80218   0.70987   0.00000  Uiso   1.00
H220   H     0.42782   0.66377   0.93370   0.00000  Uiso   1.00
H221   H     0.15165   0.46145   0.51115   0.00000  Uiso   1.00
O222   O     0.33306   0.83203   0.90145   0.00000  Uiso   1.00
O223   O     0.57241   0.65044   0.88315   0.00000  Uiso   1.00
O224   O     0.21009   0.38500   0.64075   0.00000  Uiso   1.00
N225   N     0.39633   0.76105   0.82753   0.00000  Uiso   1.00
N226   N     0.56690   0.63165   0.10187   0.00000  Uiso   1.00
N227   N     0.30871   0.44249   0.64170   0.00000  Uiso   1.00
N228   N     0.29205   0.78255   0.73042   0.00000  Uiso   1.00
N229   N     0.46262   0.65316   0.00476   0.00000  Uiso   1.00
N230   N     0.20444   0.46399   0.54459   0.00000  Uiso   1.00
C231   C     0.43314   0.10984   0.03232   0.00000  Uiso   1.00
C232   C     0.39750   0.15676   0.08996   0.00000  Uiso   1.00
C233   C     0.42563   0.18424   0.19251   0.00000  Uiso   1.00
C234   C     0.38475   0.22600   0.23088   0.00000  Uiso   1.00
C235   C     0.33957   0.29678   0.32978   0.00000  Uiso   1.00
C236   C     0.44452   0.12111   0.88996   0.00000  Uiso   1.00
C237   C     0.51218   0.11861   0.82436   0.00000  Uiso   1.00
C238   C     0.51087   0.13034   0.69436   0.00000  Uiso   1.00
C239   C     0.53867   0.14573   0.48274   0.00000  Uiso   1.00
C240   C     0.37336   0.06898   0.03876   0.00000  Uiso   1.00
C241   C     0.38119   0.02264   0.09823   0.00000  Uiso   1.00
C242   C     0.31998   0.99048   0.09349   0.00000  Uiso   1.00
C243   C     0.23730   0.92494   0.11289   0.00000  Uiso   1.00
C244   C     0.31051   0.13513   0.91811   0.00000  Uiso   1.00
C245   C     0.33090   0.17050   0.02792   0.00000  Uiso   1.00
C246   C     0.28996   0.21222   0.06615   0.00000  Uiso   1.00
C247   C     0.31803   0.23975   0.16874   0.00000  Uiso   1.00
C248   C     0.37792   0.13485   0.82793   0.00000  Uiso   1.00
C249   C     0.37651   0.14658   0.69800   0.00000  Uiso   1.00
C250   C     0.44414   0.14410   0.63221   0.00000  Uiso   1.00
C251   C     0.30675   0.08272   0.97673   0.00000  Uiso   1.00
C252   C     0.24552   0.05062   0.97188   0.00000  Uiso   1.00
C253   C     0.25325   0.00424   0.03134   0.00000  Uiso   1.00
H254   H     0.48499   0.09915   0.08060   0.00000  Uiso   1.00
H255   H     0.47718   0.17361   0.24048   0.00000  Uiso   1.00
H256   H     0.56371   0.10797   0.87238   0.00000  Uiso   1.00
H257   H     0.43274   0.01203   0.14622   0.00000  Uiso   1.00
H258   H     0.43917   0.26222   0.39035   0.00000  Uiso   1.00
H259   H     0.62160   0.12381   0.61419   0.00000  Uiso   1.00
H260   H     0.34544   0.92149   0.19163   0.00000  Uiso   1.00
H261   H     0.25866   0.14582   0.86981   0.00000  Uiso   1.00
H262   H     0.23842   0.22284   0.01813   0.00000  Uiso   1.00
H263   H     0.32495   0.15720   0.65002   0.00000  Uiso   1.00
H264   H     0.19398   0.06126   0.92386   0.00000  Uiso   1.00
H265   H     0.24538   0.30218   0.20987   0.00000  Uiso   1.00
H266   H     0.42782   0.16377   0.43370   0.00000  Uiso   1.00
H267   H     0.15165   0.96145   0.01115   0.00000  Uiso   1.00
O268   O     0.33306   0.33203   0.40145   0.00000  Uiso   1.00
O269   O     0.57241   0.15044   0.38315   0.00000  Uiso   1.00
O270   O     0.21009   0.88500   0.14075   0.00000  Uiso   1.00
N271   N     0.39633   0.26105   0.32753   0.00000  Uiso   1.00
N272   N     0.56690   0.13165   0.60187   0.00000  Uiso   1.00
N273   N     0.30871   0.94249   0.14170   0.00000  Uiso   1.00
N274   N     0.29205   0.28255   0.23042   0.00000  Uiso   1.00
N275   N     0.46262   0.15316   0.50476   0.00000  Uiso   1.00
N276   N     0.20444   0.96399   0.04459   0.00000  Uiso   1.00
C277   C     0.56686   0.39016   0.53232   0.00000  Uiso   1.00
C278   C     0.60250   0.34324   0.58996   0.00000  Uiso   1.00
C279   C     0.57437   0.31576   0.69251   0.00000  Uiso   1.00
C280   C     0.61525   0.27400   0.73088   0.00000  Uiso   1.00
C281   C     0.66043   0.20322   0.82978   0.00000  Uiso   1.00
C282   C     0.55548   0.37889   0.38996   0.00000  Uiso   1.00
C283   C     0.48782   0.38139   0.32436   0.00000  Uiso   1.00
C284   C     0.48913   0.36966   0.19436   0.00000  Uiso   1.00
C285   C     0.46133   0.35427   0.98274   0.00000  Uiso   1.00
C286   C     0.62664   0.43102   0.53876   0.00000  Uiso   1.00
C287   C     0.61881   0.47736   0.59823   0.00000  Uiso   1.00
C288   C     0.68002   0.50952   0.59349   0.00000  Uiso   1.00
C289   C     0.76270   0.57506   0.61289   0.00000  Uiso   1.00
C290   C     0.68949   0.36487   0.41811   0.00000  Uiso   1.00
C291   C     0.66910   0.32950   0.52792   0.00000  Uiso   1.00
C292   C     0.71004   0.28778   0.56615   0.00000  Uiso   1.00
C293   C     0.68197   0.26025   0.66874   0.00000  Uiso   1.00
C294   C     0.62208   0.36515   0.32793   0.00000  Uiso   1.00
C295   C     0.62349   0.35342   0.19800   0.00000  Uiso   1.00
C296   C     0.55586   0.35590   0.13221   0.00000  Uiso   1.00
C297   C     0.69325   0.41728   0.47673   0.00000  Uiso   1.00
C298   C     0.75448   0.44938   0.47188   0.00000  Uiso   1.00
C299   C     0.74675   0.49576   0.53134   0.00000  Uiso   1.00
H300   H     0.51501   0.40085   0.58060   0.00000  Uiso   1.00
H301   H     0.52282   0.32639   0.74048   0.00000  Uiso   1.00
H302   H     0.43629   0.39203   0.37238   0.00000  Uiso   1.00
H303   H     0.56726   0.48797   0.64622   0.00000  Uiso   1.00
H304   H     0.56083   0.23778   0.89035   0.00000  Uiso   1.00
H305   H     0.37840   0.37619   0.11419   0.00000  Uiso   1.00
H306   H     0.65456   0.57851   0.69163   0.00000  Uiso   1.00
H307   H     0.74134   0.35418   0.36981   0.00000  Uiso   1.00
H308   H     0.76158   0.27716   0.51813   0.00000  Uiso   1.00
H309   H     0.67505   0.34280   0.15002   0.00000  Uiso   1.00
H310   H     0.80602   0.43874   0.42386   0.00000  Uiso   1.00
H311   H     0.75462   0.19782   0.70987   0.00000  Uiso   1.00
H312   H     0.57218   0.33623   0.93370   0.00000  Uiso   1.00
H313   H     0.84835   0.53855   0.51115   0.00000  Uiso   1.00
O314   O     0.66694   0.16797   0.90145   0.00000  Uiso   1.00
O315   O     0.42759   0.34956   0.88315   0.00000  Uiso   1.00
O316   O     0.78991   0.61500   0.64075   0.00000  Uiso   1.00
N317   N     0.60367   0.23895   0.82753   0.00000  Uiso   1.00
N318   N     0.43310   0.36835   0.10187   0.00000  Uiso   1.00
N319   N     0.69129   0.55751   0.64170   0.00000  Uiso   1.00
N320   N     0.70795   0.21745   0.73042   0.00000  Uiso   1.00
N321   N     0.53738   0.34684   0.00476   0.00000  Uiso   1.00
N322   N     0.79556   0.53601   0.54459   0.00000  Uiso   1.00
C323   C     0.56686   0.89016   0.03232   0.00000  Uiso   1.00
C324   C     0.60250   0.84324   0.08996   0.00000  Uiso   1.00
C325   C     0.57437   0.81576   0.19251   0.00000  Uiso   1.00
C326   C     0.61525   0.77400   0.23088   0.00000  Uiso   1.00
C327   C     0.66043   0.70322   0.32978   0.00000  Uiso   1.00
C328   C     0.55548   0.87889   0.88996   0.00000  Uiso   1.00
C329   C     0.48782   0.88139   0.82436   0.00000  Uiso   1.00
C330   C     0.48913   0.86966   0.69436   0.00000  Uiso   1.00
C331   C     0.46133   0.85427   0.48274   0.00000  Uiso   1.00
C332   C     0.62664   0.93102   0.03876   0.00000  Uiso   1.00
C333   C     0.61881   0.97736   0.09823   0.00000  Uiso   1.00
C334   C     0.68002   0.00952   0.09349   0.00000  Uiso   1.00
C335   C     0.76270   0.07506   0.11289   0.00000  Uiso   1.00
C336   C     0.68949   0.86487   0.91811   0.00000  Uiso   1.00
C337   C     0.66910   0.82950   0.02792   0.00000  Uiso   1.00
C338   C     0.71004   0.78778   0.06615   0.00000  Uiso   1.00
C339   C     0.68197   0.76025   0.16874   0.00000  Uiso   1.00
C340   C     0.62208   0.86515   0.82793   0.00000  Uiso   1.00
C341   C     0.62349   0.85342   0.69800   0.00000  Uiso   1.00
C342   C     0.55586   0.85590   0.63221   0.00000  Uiso   1.00
C343   C     0.69325   0.91728   0.97673   0.00000  Uiso   1.00
C344   C     0.75448   0.94938   0.97188   0.00000  Uiso   1.00
C345   C     0.74675   0.99576   0.03134   0.00000  Uiso   1.00
H346   H     0.51501   0.90085   0.08060   0.00000  Uiso   1.00
H347   H     0.52282   0.82639   0.24048   0.00000  Uiso   1.00
H348   H     0.43629   0.89203   0.87238   0.00000  Uiso   1.00
H349   H     0.56726   0.98797   0.14622   0.00000  Uiso   1.00
H350   H     0.56083   0.73778   0.39035   0.00000  Uiso   1.00
H351   H     0.37840   0.87619   0.61419   0.00000  Uiso   1.00
H352   H     0.65456   0.07851   0.19163   0.00000  Uiso   1.00
H353   H     0.74134   0.85418   0.86981   0.00000  Uiso   1.00
H354   H     0.76158   0.77716   0.01813   0.00000  Uiso   1.00
H355   H     0.67505   0.84280   0.65002   0.00000  Uiso   1.00
H356   H     0.80602   0.93874   0.92386   0.00000  Uiso   1.00
H357   H     0.75462   0.69782   0.20987   0.00000  Uiso   1.00
H358   H     0.57218   0.83623   0.43370   0.00000  Uiso   1.00
H359   H     0.84835   0.03855   0.01115   0.00000  Uiso   1.00
O360   O     0.66694   0.66797   0.40145   0.00000  Uiso   1.00
O361   O     0.42759   0.84956   0.38315   0.00000  Uiso   1.00
O362   O     0.78991   0.11500   0.14075   0.00000  Uiso   1.00
N363   N     0.60367   0.73895   0.32753   0.00000  Uiso   1.00
N364   N     0.43310   0.86835   0.60187   0.00000  Uiso   1.00
N365   N     0.69129   0.05751   0.14170   0.00000  Uiso   1.00
N366   N     0.70795   0.71745   0.23042   0.00000  Uiso   1.00
N367   N     0.53738   0.84684   0.50476   0.00000  Uiso   1.00
N368   N     0.79556   0.03601   0.04459   0.00000  Uiso   1.00
