data_job_02685
_audit_creation_date              2018-12-19
_audit_creation_method            'Materials Studio'
_symmetry_space_group_name_H-M    'P1'
_symmetry_Int_Tables_number       1
_symmetry_cell_setting            triclinic
loop_
_symmetry_equiv_pos_as_xyz
  x,y,z
_cell_length_a                    13.5533
_cell_length_b                    14.9352
_cell_length_c                    21.1929
_cell_angle_alpha                 90.0000
_cell_angle_beta                  135.8051
_cell_angle_gamma                 90.0000
loop_
_atom_site_label
_atom_site_type_symbol
_atom_site_fract_x
_atom_site_fract_y
_atom_site_fract_z
_atom_site_U_iso_or_equiv
_atom_site_adp_type
_atom_site_occupancy
C1     C     0.81582   0.49623   0.75457   0.00000  Uiso   1.00
C2     C     0.96691   0.50686   0.84802   0.00000  Uiso   1.00
C3     C     0.00565   0.54297   0.92360   0.00000  Uiso   1.00
C4     C     0.14940   0.54685   0.00283   0.00000  Uiso   1.00
C5     C     0.36861   0.56813   0.14740   0.00000  Uiso   1.00
C6     C     0.81028   0.54540   0.68902   0.00000  Uiso   1.00
C7     C     0.71732   0.61391   0.63089   0.00000  Uiso   1.00
C8     C     0.72922   0.65021   0.57627   0.00000  Uiso   1.00
C9     C     0.70519   0.73129   0.47394   0.00000  Uiso   1.00
C10    C     0.79799   0.39713   0.73100   0.00000  Uiso   1.00
C11    C     0.69468   0.34098   0.70815   0.00000  Uiso   1.00
C12    C     0.69621   0.25246   0.68885   0.00000  Uiso   1.00
C13    C     0.65311   0.10333   0.65170   0.00000  Uiso   1.00
C14    C     0.00220   0.43888   0.76089   0.00000  Uiso   1.00
C15    C     0.06814   0.47571   0.85145   0.00000  Uiso   1.00
C16    C     0.21187   0.47952   0.93059   0.00000  Uiso   1.00
C17    C     0.25083   0.51564   0.00627   0.00000  Uiso   1.00
C18    C     0.91151   0.51425   0.69245   0.00000  Uiso   1.00
C19    C     0.92354   0.55046   0.63789   0.00000  Uiso   1.00
C20    C     0.83064   0.61901   0.57971   0.00000  Uiso   1.00
C21    C     0.89923   0.36598   0.73443   0.00000  Uiso   1.00
C22    C     0.90091   0.27753   0.71515   0.00000  Uiso   1.00
C23    C     0.79763   0.22125   0.69229   0.00000  Uiso   1.00
H24    H     0.73700   0.52048   0.75189   0.00000  Uiso   1.00
H25    H     0.92728   0.56708   0.92091   0.00000  Uiso   1.00
H26    H     0.63898   0.63799   0.62825   0.00000  Uiso   1.00
H27    H     0.61636   0.36511   0.70550   0.00000  Uiso   1.00
H28    H     0.18289   0.60504   0.10980   0.00000  Uiso   1.00
H29    H     0.57498   0.75454   0.49269   0.00000  Uiso   1.00
H30    H     0.52726   0.17911   0.65558   0.00000  Uiso   1.00
H31    H     0.08102   0.41462   0.76356   0.00000  Uiso   1.00
H32    H     0.29019   0.45541   0.93323   0.00000  Uiso   1.00
H33    H     0.00189   0.52633   0.64057   0.00000  Uiso   1.00
H34    H     0.97927   0.25345   0.71782   0.00000  Uiso   1.00
H35    H     0.47744   0.51441   0.11980   0.00000  Uiso   1.00
H36    H     0.86952   0.66391   0.50268   0.00000  Uiso   1.00
H37    H     0.82181   0.08848   0.66558   0.00000  Uiso   1.00
O38    O     0.46155   0.58849   0.22619   0.00000  Uiso   1.00
O39    O     0.66398   0.78462   0.41655   0.00000  Uiso   1.00
O40    O     0.60138   0.02968   0.63027   0.00000  Uiso   1.00
N41    N     0.22350   0.57809   0.08888   0.00000  Uiso   1.00
N42    N     0.65516   0.71788   0.51192   0.00000  Uiso   1.00
N43    N     0.61052   0.17991   0.66419   0.00000  Uiso   1.00
N44    N     0.38200   0.52932   0.09426   0.00000  Uiso   1.00
N45    N     0.81365   0.66911   0.51730   0.00000  Uiso   1.00
N46    N     0.76902   0.13114   0.66957   0.00000  Uiso   1.00
C47    C     0.18418   0.99623   0.74543   0.00000  Uiso   1.00
C48    C     0.03309   0.00686   0.65198   0.00000  Uiso   1.00
C49    C     0.99435   0.04297   0.57640   0.00000  Uiso   1.00
C50    C     0.85060   0.04685   0.49717   0.00000  Uiso   1.00
C51    C     0.63139   0.06813   0.35260   0.00000  Uiso   1.00
C52    C     0.18972   0.04540   0.81098   0.00000  Uiso   1.00
C53    C     0.28268   0.11391   0.86911   0.00000  Uiso   1.00
C54    C     0.27078   0.15021   0.92373   0.00000  Uiso   1.00
C55    C     0.29481   0.23129   0.02606   0.00000  Uiso   1.00
C56    C     0.20201   0.89713   0.76900   0.00000  Uiso   1.00
C57    C     0.30532   0.84098   0.79185   0.00000  Uiso   1.00
C58    C     0.30379   0.75246   0.81115   0.00000  Uiso   1.00
C59    C     0.34689   0.60333   0.84830   0.00000  Uiso   1.00
C60    C     0.99780   0.93888   0.73911   0.00000  Uiso   1.00
C61    C     0.93186   0.97571   0.64855   0.00000  Uiso   1.00
C62    C     0.78813   0.97952   0.56941   0.00000  Uiso   1.00
C63    C     0.74917   0.01564   0.49373   0.00000  Uiso   1.00
C64    C     0.08849   0.01425   0.80755   0.00000  Uiso   1.00
C65    C     0.07646   0.05046   0.86211   0.00000  Uiso   1.00
C66    C     0.16936   0.11901   0.92029   0.00000  Uiso   1.00
C67    C     0.10077   0.86598   0.76557   0.00000  Uiso   1.00
C68    C     0.09909   0.77753   0.78485   0.00000  Uiso   1.00
C69    C     0.20237   0.72125   0.80771   0.00000  Uiso   1.00
H70    H     0.26300   0.02048   0.74811   0.00000  Uiso   1.00
H71    H     0.07272   0.06708   0.57909   0.00000  Uiso   1.00
H72    H     0.36102   0.13799   0.87175   0.00000  Uiso   1.00
H73    H     0.38364   0.86511   0.79450   0.00000  Uiso   1.00
H74    H     0.81711   0.10504   0.39020   0.00000  Uiso   1.00
H75    H     0.42502   0.25454   0.00731   0.00000  Uiso   1.00
H76    H     0.47274   0.67911   0.84442   0.00000  Uiso   1.00
H77    H     0.91898   0.91462   0.73644   0.00000  Uiso   1.00
H78    H     0.70981   0.95541   0.56677   0.00000  Uiso   1.00
H79    H     0.99811   0.02633   0.85943   0.00000  Uiso   1.00
H80    H     0.02073   0.75345   0.78218   0.00000  Uiso   1.00
H81    H     0.52256   0.01441   0.38020   0.00000  Uiso   1.00
H82    H     0.13048   0.16391   0.99732   0.00000  Uiso   1.00
H83    H     0.17819   0.58848   0.83442   0.00000  Uiso   1.00
O84    O     0.53845   0.08849   0.27381   0.00000  Uiso   1.00
O85    O     0.33602   0.28462   0.08345   0.00000  Uiso   1.00
O86    O     0.39862   0.52968   0.86973   0.00000  Uiso   1.00
N87    N     0.77650   0.07809   0.41112   0.00000  Uiso   1.00
N88    N     0.34484   0.21788   0.98808   0.00000  Uiso   1.00
N89    N     0.38948   0.67991   0.83581   0.00000  Uiso   1.00
N90    N     0.61800   0.02932   0.40574   0.00000  Uiso   1.00
N91    N     0.18635   0.16911   0.98270   0.00000  Uiso   1.00
N92    N     0.23098   0.63114   0.83043   0.00000  Uiso   1.00
C93    C     0.18418   0.50377   0.24543   0.00000  Uiso   1.00
C94    C     0.03309   0.49314   0.15198   0.00000  Uiso   1.00
C95    C     0.99435   0.45703   0.07640   0.00000  Uiso   1.00
C96    C     0.85060   0.45315   0.99717   0.00000  Uiso   1.00
C97    C     0.63139   0.43187   0.85260   0.00000  Uiso   1.00
C98    C     0.18972   0.45460   0.31098   0.00000  Uiso   1.00
C99    C     0.28268   0.38609   0.36911   0.00000  Uiso   1.00
C100   C     0.27078   0.34979   0.42373   0.00000  Uiso   1.00
C101   C     0.29481   0.26871   0.52606   0.00000  Uiso   1.00
C102   C     0.20201   0.60287   0.26900   0.00000  Uiso   1.00
C103   C     0.30532   0.65902   0.29185   0.00000  Uiso   1.00
C104   C     0.30379   0.74754   0.31115   0.00000  Uiso   1.00
C105   C     0.34689   0.89667   0.34830   0.00000  Uiso   1.00
C106   C     0.99780   0.56112   0.23911   0.00000  Uiso   1.00
C107   C     0.93186   0.52429   0.14855   0.00000  Uiso   1.00
C108   C     0.78813   0.52048   0.06941   0.00000  Uiso   1.00
C109   C     0.74917   0.48436   0.99373   0.00000  Uiso   1.00
C110   C     0.08849   0.48575   0.30755   0.00000  Uiso   1.00
C111   C     0.07646   0.44954   0.36211   0.00000  Uiso   1.00
C112   C     0.16936   0.38099   0.42029   0.00000  Uiso   1.00
C113   C     0.10077   0.63402   0.26557   0.00000  Uiso   1.00
C114   C     0.09909   0.72247   0.28485   0.00000  Uiso   1.00
C115   C     0.20237   0.77875   0.30771   0.00000  Uiso   1.00
H116   H     0.26300   0.47952   0.24811   0.00000  Uiso   1.00
H117   H     0.07272   0.43292   0.07909   0.00000  Uiso   1.00
H118   H     0.36102   0.36201   0.37175   0.00000  Uiso   1.00
H119   H     0.38364   0.63489   0.29450   0.00000  Uiso   1.00
H120   H     0.81711   0.39496   0.89020   0.00000  Uiso   1.00
H121   H     0.42502   0.24546   0.50731   0.00000  Uiso   1.00
H122   H     0.47274   0.82089   0.34442   0.00000  Uiso   1.00
H123   H     0.91898   0.58538   0.23644   0.00000  Uiso   1.00
H124   H     0.70981   0.54459   0.06677   0.00000  Uiso   1.00
H125   H     0.99811   0.47367   0.35943   0.00000  Uiso   1.00
H126   H     0.02073   0.74655   0.28218   0.00000  Uiso   1.00
H127   H     0.52256   0.48559   0.88020   0.00000  Uiso   1.00
H128   H     0.13048   0.33609   0.49732   0.00000  Uiso   1.00
H129   H     0.17819   0.91152   0.33442   0.00000  Uiso   1.00
O130   O     0.53845   0.41151   0.77381   0.00000  Uiso   1.00
O131   O     0.33602   0.21538   0.58345   0.00000  Uiso   1.00
O132   O     0.39862   0.97032   0.36973   0.00000  Uiso   1.00
N133   N     0.77650   0.42191   0.91112   0.00000  Uiso   1.00
N134   N     0.34484   0.28212   0.48808   0.00000  Uiso   1.00
N135   N     0.38948   0.82009   0.33581   0.00000  Uiso   1.00
N136   N     0.61800   0.47068   0.90574   0.00000  Uiso   1.00
N137   N     0.18635   0.33089   0.48270   0.00000  Uiso   1.00
N138   N     0.23098   0.86886   0.33043   0.00000  Uiso   1.00
C139   C     0.81582   0.00377   0.25457   0.00000  Uiso   1.00
C140   C     0.96691   0.99314   0.34802   0.00000  Uiso   1.00
C141   C     0.00565   0.95703   0.42360   0.00000  Uiso   1.00
C142   C     0.14940   0.95315   0.50283   0.00000  Uiso   1.00
C143   C     0.36861   0.93187   0.64740   0.00000  Uiso   1.00
C144   C     0.81028   0.95460   0.18902   0.00000  Uiso   1.00
C145   C     0.71732   0.88609   0.13089   0.00000  Uiso   1.00
C146   C     0.72922   0.84979   0.07627   0.00000  Uiso   1.00
C147   C     0.70519   0.76871   0.97394   0.00000  Uiso   1.00
C148   C     0.79799   0.10287   0.23100   0.00000  Uiso   1.00
C149   C     0.69468   0.15902   0.20815   0.00000  Uiso   1.00
C150   C     0.69621   0.24754   0.18885   0.00000  Uiso   1.00
C151   C     0.65311   0.39667   0.15170   0.00000  Uiso   1.00
C152   C     0.00220   0.06112   0.26089   0.00000  Uiso   1.00
C153   C     0.06814   0.02429   0.35145   0.00000  Uiso   1.00
C154   C     0.21187   0.02048   0.43059   0.00000  Uiso   1.00
C155   C     0.25083   0.98436   0.50627   0.00000  Uiso   1.00
C156   C     0.91151   0.98575   0.19245   0.00000  Uiso   1.00
C157   C     0.92354   0.94954   0.13789   0.00000  Uiso   1.00
C158   C     0.83064   0.88099   0.07971   0.00000  Uiso   1.00
C159   C     0.89923   0.13402   0.23443   0.00000  Uiso   1.00
C160   C     0.90091   0.22247   0.21515   0.00000  Uiso   1.00
C161   C     0.79763   0.27875   0.19229   0.00000  Uiso   1.00
H162   H     0.73700   0.97952   0.25189   0.00000  Uiso   1.00
H163   H     0.92728   0.93292   0.42091   0.00000  Uiso   1.00
H164   H     0.63898   0.86201   0.12825   0.00000  Uiso   1.00
H165   H     0.61636   0.13489   0.20550   0.00000  Uiso   1.00
H166   H     0.18289   0.89496   0.60980   0.00000  Uiso   1.00
H167   H     0.57498   0.74546   0.99269   0.00000  Uiso   1.00
H168   H     0.52726   0.32089   0.15558   0.00000  Uiso   1.00
H169   H     0.08102   0.08538   0.26356   0.00000  Uiso   1.00
H170   H     0.29019   0.04459   0.43323   0.00000  Uiso   1.00
H171   H     0.00189   0.97367   0.14057   0.00000  Uiso   1.00
H172   H     0.97927   0.24655   0.21782   0.00000  Uiso   1.00
H173   H     0.47744   0.98559   0.61980   0.00000  Uiso   1.00
H174   H     0.86952   0.83609   0.00268   0.00000  Uiso   1.00
H175   H     0.82181   0.41152   0.16558   0.00000  Uiso   1.00
O176   O     0.46155   0.91151   0.72619   0.00000  Uiso   1.00
O177   O     0.66398   0.71538   0.91655   0.00000  Uiso   1.00
O178   O     0.60138   0.47032   0.13027   0.00000  Uiso   1.00
N179   N     0.22350   0.92191   0.58888   0.00000  Uiso   1.00
N180   N     0.65516   0.78212   0.01192   0.00000  Uiso   1.00
N181   N     0.61052   0.32009   0.16419   0.00000  Uiso   1.00
N182   N     0.38200   0.97068   0.59426   0.00000  Uiso   1.00
N183   N     0.81365   0.83089   0.01730   0.00000  Uiso   1.00
N184   N     0.76902   0.36886   0.16957   0.00000  Uiso   1.00
