data_job_06088
_audit_creation_date              2018-12-19
_audit_creation_method            'Materials Studio'
_symmetry_space_group_name_H-M    'P1'
_symmetry_Int_Tables_number       1
_symmetry_cell_setting            triclinic
loop_
_symmetry_equiv_pos_as_xyz
  x,y,z
_cell_length_a                    16.8909
_cell_length_b                    16.4817
_cell_length_c                    15.6661
_cell_angle_alpha                 99.8312
_cell_angle_beta                  100.0160
_cell_angle_gamma                 98.9908
loop_
_atom_site_label
_atom_site_type_symbol
_atom_site_fract_x
_atom_site_fract_y
_atom_site_fract_z
_atom_site_U_iso_or_equiv
_atom_site_adp_type
_atom_site_occupancy
C1     C     0.62526   0.76136   0.19135   0.00000  Uiso   1.00
C2     C     0.70435   0.78636   0.15981   0.00000  Uiso   1.00
C3     C     0.71993   0.75528   0.07758   0.00000  Uiso   1.00
C4     C     0.79606   0.78609   0.06149   0.00000  Uiso   1.00
C5     C     0.91000   0.81580   0.00282   0.00000  Uiso   1.00
C6     C     0.65009   0.73050   0.27668   0.00000  Uiso   1.00
C7     C     0.62002   0.65245   0.29271   0.00000  Uiso   1.00
C8     C     0.65047   0.63625   0.37500   0.00000  Uiso   1.00
C9     C     0.68011   0.57926   0.49780   0.00000  Uiso   1.00
C10    C     0.59504   0.84257   0.21817   0.00000  Uiso   1.00
C11    C     0.51868   0.85875   0.18502   0.00000  Uiso   1.00
C12    C     0.50278   0.93690   0.21807   0.00000  Uiso   1.00
C13    C     0.44695   0.05392   0.25002   0.00000  Uiso   1.00
C14    C     0.73279   0.87135   0.30900   0.00000  Uiso   1.00
C15    C     0.76275   0.84611   0.22372   0.00000  Uiso   1.00
C16    C     0.83889   0.87698   0.20775   0.00000  Uiso   1.00
C17    C     0.85457   0.84594   0.12550   0.00000  Uiso   1.00
C18    C     0.70849   0.79024   0.34058   0.00000  Uiso   1.00
C19    C     0.73898   0.77415   0.42287   0.00000  Uiso   1.00
C20    C     0.70897   0.69610   0.43902   0.00000  Uiso   1.00
C21    C     0.65344   0.90232   0.28207   0.00000  Uiso   1.00
C22    C     0.63765   0.98045   0.31518   0.00000  Uiso   1.00
C23    C     0.56129   0.99675   0.28209   0.00000  Uiso   1.00
H24    H     0.57980   0.71484   0.14160   0.00000  Uiso   1.00
H25    H     0.67472   0.70904   0.02815   0.00000  Uiso   1.00
H26    H     0.57482   0.60624   0.24325   0.00000  Uiso   1.00
H27    H     0.47351   0.81250   0.13557   0.00000  Uiso   1.00
H28    H     0.80572   0.72893   0.93056   0.00000  Uiso   1.00
H29    H     0.59506   0.51218   0.38412   0.00000  Uiso   1.00
H30    H     0.38141   0.94713   0.15706   0.00000  Uiso   1.00
H31    H     0.77826   0.91787   0.35875   0.00000  Uiso   1.00
H32    H     0.88407   0.92321   0.25721   0.00000  Uiso   1.00
H33    H     0.78417   0.82040   0.47231   0.00000  Uiso   1.00
H34    H     0.68286   0.02667   0.36464   0.00000  Uiso   1.00
H35    H     0.97564   0.90276   0.11648   0.00000  Uiso   1.00
H36    H     0.76498   0.68600   0.57004   0.00000  Uiso   1.00
H37    H     0.55133   0.12096   0.34298   0.00000  Uiso   1.00
O38    O     0.95671   0.81567   0.95282   0.00000  Uiso   1.00
O39    O     0.68033   0.53131   0.54787   0.00000  Uiso   1.00
O40    O     0.40003   0.10196   0.24998   0.00000  Uiso   1.00
N41    N     0.83118   0.76912   0.98824   0.00000  Uiso   1.00
N42    N     0.63424   0.56646   0.41229   0.00000  Uiso   1.00
N43    N     0.43449   0.97310   0.20003   0.00000  Uiso   1.00
N44    N     0.92261   0.86265   0.08829   0.00000  Uiso   1.00
N45    N     0.72567   0.66000   0.51233   0.00000  Uiso   1.00
N46    N     0.52592   0.06664   0.30007   0.00000  Uiso   1.00
C47    C     0.19645   0.62579   0.75883   0.00000  Uiso   1.00
C48    C     0.16647   0.70716   0.78564   0.00000  Uiso   1.00
C49    C     0.09010   0.72344   0.75274   0.00000  Uiso   1.00
C50    C     0.07445   0.80172   0.78569   0.00000  Uiso   1.00
C51    C     0.01899   0.91899   0.81762   0.00000  Uiso   1.00
C52    C     0.27534   0.65049   0.72681   0.00000  Uiso   1.00
C53    C     0.29050   0.61912   0.64445   0.00000  Uiso   1.00
C54    C     0.36651   0.64970   0.62789   0.00000  Uiso   1.00
C55    C     0.48008   0.67894   0.56851   0.00000  Uiso   1.00
C56    C     0.22158   0.59515   0.84423   0.00000  Uiso   1.00
C57    C     0.19157   0.51723   0.86059   0.00000  Uiso   1.00
C58    C     0.22233   0.50120   0.94288   0.00000  Uiso   1.00
C59    C     0.25244   0.44451   0.06580   0.00000  Uiso   1.00
C60    C     0.30448   0.73586   0.87586   0.00000  Uiso   1.00
C61    C     0.22515   0.76694   0.84920   0.00000  Uiso   1.00
C62    C     0.20961   0.84522   0.88222   0.00000  Uiso   1.00
C63    C     0.13323   0.86161   0.84937   0.00000  Uiso   1.00
C64    C     0.33401   0.71028   0.79037   0.00000  Uiso   1.00
C65    C     0.41002   0.74090   0.77393   0.00000  Uiso   1.00
C66    C     0.42529   0.70959   0.69157   0.00000  Uiso   1.00
C67    C     0.28026   0.65493   0.90779   0.00000  Uiso   1.00
C68    C     0.31108   0.63902   0.99007   0.00000  Uiso   1.00
C69    C     0.28111   0.56109   0.00655   0.00000  Uiso   1.00
H70    H     0.15078   0.57924   0.70934   0.00000  Uiso   1.00
H71    H     0.04471   0.67716   0.70354   0.00000  Uiso   1.00
H72    H     0.24509   0.57285   0.59528   0.00000  Uiso   1.00
H73    H     0.14617   0.47098   0.81138   0.00000  Uiso   1.00
H74    H     0.95300   0.81209   0.72512   0.00000  Uiso   1.00
H75    H     0.37552   0.59213   0.49686   0.00000  Uiso   1.00
H76    H     0.16692   0.37731   0.95255   0.00000  Uiso   1.00
H77    H     0.35016   0.78241   0.92535   0.00000  Uiso   1.00
H78    H     0.25503   0.89147   0.93141   0.00000  Uiso   1.00
H79    H     0.45541   0.78717   0.82314   0.00000  Uiso   1.00
H80    H     0.35649   0.68530   0.03924   0.00000  Uiso   1.00
H81    H     0.12370   0.98604   0.91006   0.00000  Uiso   1.00
H82    H     0.54622   0.76608   0.68180   0.00000  Uiso   1.00
H83    H     0.33763   0.55127   0.13749   0.00000  Uiso   1.00
O84    O     0.97219   0.96716   0.81766   0.00000  Uiso   1.00
O85    O     0.52651   0.67857   0.51819   0.00000  Uiso   1.00
O86    O     0.25284   0.39674   0.11605   0.00000  Uiso   1.00
N87    N     0.00623   0.83806   0.76783   0.00000  Uiso   1.00
N88    N     0.40125   0.63242   0.55441   0.00000  Uiso   1.00
N89    N     0.20624   0.43157   0.98044   0.00000  Uiso   1.00
N90    N     0.09808   0.93166   0.86735   0.00000  Uiso   1.00
N91    N     0.49310   0.72602   0.65393   0.00000  Uiso   1.00
N92    N     0.29810   0.52517   0.07995   0.00000  Uiso   1.00
C93    C     0.76287   0.19514   0.62574   0.00000  Uiso   1.00
C94    C     0.78799   0.16474   0.71129   0.00000  Uiso   1.00
C95    C     0.75820   0.08681   0.72776   0.00000  Uiso   1.00
C96    C     0.78888   0.07105   0.81020   0.00000  Uiso   1.00
C97    C     0.81896   0.01473   0.93339   0.00000  Uiso   1.00
C98    C     0.73244   0.27630   0.65223   0.00000  Uiso   1.00
C99    C     0.65595   0.29216   0.61902   0.00000  Uiso   1.00
C100   C     0.63988   0.37031   0.65172   0.00000  Uiso   1.00
C101   C     0.58375   0.48721   0.68316   0.00000  Uiso   1.00
C102   C     0.84181   0.22016   0.59394   0.00000  Uiso   1.00
C103   C     0.85728   0.18884   0.51173   0.00000  Uiso   1.00
C104   C     0.93328   0.21974   0.49535   0.00000  Uiso   1.00
C105   C     0.04697   0.24947   0.43630   0.00000  Uiso   1.00
C106   C     0.87031   0.30573   0.74284   0.00000  Uiso   1.00
C107   C     0.84634   0.22481   0.77490   0.00000  Uiso   1.00
C108   C     0.87707   0.20916   0.85733   0.00000  Uiso   1.00
C109   C     0.84734   0.13122   0.87392   0.00000  Uiso   1.00
C110   C     0.79079   0.33637   0.71583   0.00000  Uiso   1.00
C111   C     0.77483   0.41452   0.74859   0.00000  Uiso   1.00
C112   C     0.69834   0.43049   0.71545   0.00000  Uiso   1.00
C113   C     0.90017   0.28023   0.65755   0.00000  Uiso   1.00
C114   C     0.97616   0.31119   0.64130   0.00000  Uiso   1.00
C115   C     0.99174   0.27992   0.55908   0.00000  Uiso   1.00
H116   H     0.71743   0.14838   0.57621   0.00000  Uiso   1.00
H117   H     0.71303   0.04034   0.67852   0.00000  Uiso   1.00
H118   H     0.61081   0.24567   0.56979   0.00000  Uiso   1.00
H119   H     0.81211   0.14236   0.46252   0.00000  Uiso   1.00
H120   H     0.73387   0.94707   0.82002   0.00000  Uiso   1.00
H121   H     0.51833   0.38002   0.59073   0.00000  Uiso   1.00
H122   H     0.94281   0.16217   0.36452   0.00000  Uiso   1.00
H123   H     0.91575   0.35250   0.79237   0.00000  Uiso   1.00
H124   H     0.92223   0.25566   0.90654   0.00000  Uiso   1.00
H125   H     0.82000   0.46099   0.79781   0.00000  Uiso   1.00
H126   H     0.02130   0.35767   0.69054   0.00000  Uiso   1.00
H127   H     0.90366   0.12183   0.00509   0.00000  Uiso   1.00
H128   H     0.68812   0.55478   0.77579   0.00000  Uiso   1.00
H129   H     0.11260   0.33693   0.54959   0.00000  Uiso   1.00
O130   O     0.81943   0.96708   0.98377   0.00000  Uiso   1.00
O131   O     0.53666   0.53509   0.68293   0.00000  Uiso   1.00
O132   O     0.09356   0.24927   0.38616   0.00000  Uiso   1.00
N133   N     0.77295   0.00148   0.84790   0.00000  Uiso   1.00
N134   N     0.57143   0.40626   0.63353   0.00000  Uiso   1.00
N135   N     0.96828   0.20260   0.42204   0.00000  Uiso   1.00
N136   N     0.86431   0.09552   0.94748   0.00000  Uiso   1.00
N137   N     0.66280   0.50030   0.73312   0.00000  Uiso   1.00
N138   N     0.05964   0.29664   0.52163   0.00000  Uiso   1.00
C139   C     0.37474   0.23864   0.80865   0.00000  Uiso   1.00
C140   C     0.29565   0.21364   0.84019   0.00000  Uiso   1.00
C141   C     0.28007   0.24472   0.92242   0.00000  Uiso   1.00
C142   C     0.20394   0.21391   0.93851   0.00000  Uiso   1.00
C143   C     0.09000   0.18420   0.99718   0.00000  Uiso   1.00
C144   C     0.34991   0.26950   0.72332   0.00000  Uiso   1.00
C145   C     0.37998   0.34755   0.70729   0.00000  Uiso   1.00
C146   C     0.34953   0.36375   0.62500   0.00000  Uiso   1.00
C147   C     0.31989   0.42074   0.50220   0.00000  Uiso   1.00
C148   C     0.40496   0.15743   0.78183   0.00000  Uiso   1.00
C149   C     0.48132   0.14125   0.81498   0.00000  Uiso   1.00
C150   C     0.49722   0.06310   0.78193   0.00000  Uiso   1.00
C151   C     0.55305   0.94608   0.74998   0.00000  Uiso   1.00
C152   C     0.26721   0.12865   0.69100   0.00000  Uiso   1.00
C153   C     0.23725   0.15389   0.77628   0.00000  Uiso   1.00
C154   C     0.16111   0.12302   0.79225   0.00000  Uiso   1.00
C155   C     0.14543   0.15406   0.87450   0.00000  Uiso   1.00
C156   C     0.29151   0.20976   0.65942   0.00000  Uiso   1.00
C157   C     0.26102   0.22585   0.57713   0.00000  Uiso   1.00
C158   C     0.29102   0.30390   0.56098   0.00000  Uiso   1.00
C159   C     0.34656   0.09768   0.71793   0.00000  Uiso   1.00
C160   C     0.36235   0.01955   0.68482   0.00000  Uiso   1.00
C161   C     0.43871   0.00325   0.71791   0.00000  Uiso   1.00
H162   H     0.42020   0.28516   0.85840   0.00000  Uiso   1.00
H163   H     0.32528   0.29096   0.97185   0.00000  Uiso   1.00
H164   H     0.42518   0.39376   0.75675   0.00000  Uiso   1.00
H165   H     0.52649   0.18750   0.86443   0.00000  Uiso   1.00
H166   H     0.19428   0.27107   0.06944   0.00000  Uiso   1.00
H167   H     0.40494   0.48782   0.61588   0.00000  Uiso   1.00
H168   H     0.61859   0.05287   0.84294   0.00000  Uiso   1.00
H169   H     0.22174   0.08213   0.64125   0.00000  Uiso   1.00
H170   H     0.11593   0.07679   0.74279   0.00000  Uiso   1.00
H171   H     0.21583   0.17960   0.52769   0.00000  Uiso   1.00
H172   H     0.31714   0.97333   0.63536   0.00000  Uiso   1.00
H173   H     0.02436   0.09724   0.88352   0.00000  Uiso   1.00
H174   H     0.23502   0.31400   0.42996   0.00000  Uiso   1.00
H175   H     0.44866   0.87904   0.65702   0.00000  Uiso   1.00
O176   O     0.04329   0.18433   0.04718   0.00000  Uiso   1.00
O177   O     0.31967   0.46869   0.45213   0.00000  Uiso   1.00
O178   O     0.59997   0.89804   0.75002   0.00000  Uiso   1.00
N179   N     0.16882   0.23088   0.01176   0.00000  Uiso   1.00
N180   N     0.36576   0.43354   0.58771   0.00000  Uiso   1.00
N181   N     0.56551   0.02690   0.79997   0.00000  Uiso   1.00
N182   N     0.07739   0.13735   0.91171   0.00000  Uiso   1.00
N183   N     0.27433   0.34000   0.48767   0.00000  Uiso   1.00
N184   N     0.47408   0.93336   0.69993   0.00000  Uiso   1.00
C185   C     0.80354   0.37421   0.24117   0.00000  Uiso   1.00
C186   C     0.83353   0.29284   0.21436   0.00000  Uiso   1.00
C187   C     0.90990   0.27656   0.24726   0.00000  Uiso   1.00
C188   C     0.92555   0.19828   0.21431   0.00000  Uiso   1.00
C189   C     0.98101   0.08101   0.18238   0.00000  Uiso   1.00
C190   C     0.72466   0.34951   0.27319   0.00000  Uiso   1.00
C191   C     0.70950   0.38088   0.35555   0.00000  Uiso   1.00
C192   C     0.63349   0.35030   0.37211   0.00000  Uiso   1.00
C193   C     0.51992   0.32105   0.43149   0.00000  Uiso   1.00
C194   C     0.77841   0.40485   0.15577   0.00000  Uiso   1.00
C195   C     0.80843   0.48277   0.13941   0.00000  Uiso   1.00
C196   C     0.77767   0.49880   0.05712   0.00000  Uiso   1.00
C197   C     0.74756   0.55549   0.93420   0.00000  Uiso   1.00
C198   C     0.69552   0.26414   0.12414   0.00000  Uiso   1.00
C199   C     0.77485   0.23306   0.15080   0.00000  Uiso   1.00
C200   C     0.79039   0.15478   0.11778   0.00000  Uiso   1.00
C201   C     0.86677   0.13839   0.15063   0.00000  Uiso   1.00
C202   C     0.66599   0.28972   0.20963   0.00000  Uiso   1.00
C203   C     0.58998   0.25910   0.22607   0.00000  Uiso   1.00
C204   C     0.57471   0.29041   0.30843   0.00000  Uiso   1.00
C205   C     0.71974   0.34507   0.09221   0.00000  Uiso   1.00
C206   C     0.68892   0.36098   0.00993   0.00000  Uiso   1.00
C207   C     0.71889   0.43891   0.99345   0.00000  Uiso   1.00
H208   H     0.84922   0.42076   0.29066   0.00000  Uiso   1.00
H209   H     0.95529   0.32284   0.29646   0.00000  Uiso   1.00
H210   H     0.75491   0.42715   0.40472   0.00000  Uiso   1.00
H211   H     0.85383   0.52902   0.18862   0.00000  Uiso   1.00
H212   H     0.04700   0.18791   0.27488   0.00000  Uiso   1.00
H213   H     0.62448   0.40787   0.50314   0.00000  Uiso   1.00
H214   H     0.83308   0.62269   0.04745   0.00000  Uiso   1.00
H215   H     0.64984   0.21759   0.07465   0.00000  Uiso   1.00
H216   H     0.74497   0.10853   0.06859   0.00000  Uiso   1.00
H217   H     0.54459   0.21283   0.17686   0.00000  Uiso   1.00
H218   H     0.64351   0.31470   0.96076   0.00000  Uiso   1.00
H219   H     0.87630   0.01396   0.08994   0.00000  Uiso   1.00
H220   H     0.45378   0.23392   0.31820   0.00000  Uiso   1.00
H221   H     0.66237   0.44873   0.86251   0.00000  Uiso   1.00
O222   O     0.02781   0.03284   0.18234   0.00000  Uiso   1.00
O223   O     0.47349   0.32143   0.48181   0.00000  Uiso   1.00
O224   O     0.74716   0.60326   0.88395   0.00000  Uiso   1.00
N225   N     0.99377   0.16194   0.23217   0.00000  Uiso   1.00
N226   N     0.59875   0.36758   0.44559   0.00000  Uiso   1.00
N227   N     0.79376   0.56843   0.01956   0.00000  Uiso   1.00
N228   N     0.90192   0.06834   0.13265   0.00000  Uiso   1.00
N229   N     0.50690   0.27398   0.34607   0.00000  Uiso   1.00
N230   N     0.70190   0.47483   0.92005   0.00000  Uiso   1.00
C231   C     0.23713   0.80486   0.37426   0.00000  Uiso   1.00
C232   C     0.21201   0.83526   0.28871   0.00000  Uiso   1.00
C233   C     0.24180   0.91319   0.27224   0.00000  Uiso   1.00
C234   C     0.21112   0.92895   0.18980   0.00000  Uiso   1.00
C235   C     0.18104   0.98527   0.06661   0.00000  Uiso   1.00
C236   C     0.26756   0.72370   0.34777   0.00000  Uiso   1.00
C237   C     0.34405   0.70784   0.38098   0.00000  Uiso   1.00
C238   C     0.36012   0.62969   0.34828   0.00000  Uiso   1.00
C239   C     0.41625   0.51279   0.31684   0.00000  Uiso   1.00
C240   C     0.15819   0.77984   0.40606   0.00000  Uiso   1.00
C241   C     0.14272   0.81116   0.48827   0.00000  Uiso   1.00
C242   C     0.06672   0.78026   0.50465   0.00000  Uiso   1.00
C243   C     0.95303   0.75053   0.56370   0.00000  Uiso   1.00
C244   C     0.12969   0.69427   0.25716   0.00000  Uiso   1.00
C245   C     0.15366   0.77518   0.22510   0.00000  Uiso   1.00
C246   C     0.12293   0.79084   0.14267   0.00000  Uiso   1.00
C247   C     0.15266   0.86878   0.12608   0.00000  Uiso   1.00
C248   C     0.20921   0.66363   0.28417   0.00000  Uiso   1.00
C249   C     0.22517   0.58548   0.25141   0.00000  Uiso   1.00
C250   C     0.30166   0.56951   0.28455   0.00000  Uiso   1.00
C251   C     0.09983   0.71977   0.34245   0.00000  Uiso   1.00
C252   C     0.02384   0.68881   0.35870   0.00000  Uiso   1.00
C253   C     0.00826   0.72008   0.44092   0.00000  Uiso   1.00
H254   H     0.28257   0.85162   0.42379   0.00000  Uiso   1.00
H255   H     0.28697   0.95966   0.32148   0.00000  Uiso   1.00
H256   H     0.38919   0.75433   0.43021   0.00000  Uiso   1.00
H257   H     0.18789   0.85764   0.53748   0.00000  Uiso   1.00
H258   H     0.26613   0.05293   0.17998   0.00000  Uiso   1.00
H259   H     0.48167   0.61998   0.40927   0.00000  Uiso   1.00
H260   H     0.05719   0.83783   0.63548   0.00000  Uiso   1.00
H261   H     0.08425   0.64750   0.20763   0.00000  Uiso   1.00
H262   H     0.07777   0.74434   0.09346   0.00000  Uiso   1.00
H263   H     0.18000   0.53901   0.20219   0.00000  Uiso   1.00
H264   H     0.97870   0.64233   0.30946   0.00000  Uiso   1.00
H265   H     0.09634   0.87817   0.99491   0.00000  Uiso   1.00
H266   H     0.31188   0.44522   0.22421   0.00000  Uiso   1.00
H267   H     0.88740   0.66307   0.45041   0.00000  Uiso   1.00
O268   O     0.18057   0.03292   0.01623   0.00000  Uiso   1.00
O269   O     0.46334   0.46491   0.31707   0.00000  Uiso   1.00
O270   O     0.90643   0.75073   0.61384   0.00000  Uiso   1.00
N271   N     0.22705   0.99851   0.15210   0.00000  Uiso   1.00
N272   N     0.42857   0.59374   0.36647   0.00000  Uiso   1.00
N273   N     0.03172   0.79740   0.57796   0.00000  Uiso   1.00
N274   N     0.13569   0.90448   0.05252   0.00000  Uiso   1.00
N275   N     0.33720   0.49970   0.26688   0.00000  Uiso   1.00
N276   N     0.94036   0.70336   0.47837   0.00000  Uiso   1.00
