data_job_06934
_audit_creation_date              2018-12-19
_audit_creation_method            'Materials Studio'
_symmetry_space_group_name_H-M    'P1'
_symmetry_Int_Tables_number       1
_symmetry_cell_setting            triclinic
loop_
_symmetry_equiv_pos_as_xyz
  x,y,z
_cell_length_a                    20.4155
_cell_length_b                    22.1415
_cell_length_c                    21.3054
_cell_angle_alpha                 78.9670
_cell_angle_beta                  108.9470
_cell_angle_gamma                 100.2210
loop_
_atom_site_label
_atom_site_type_symbol
_atom_site_fract_x
_atom_site_fract_y
_atom_site_fract_z
_atom_site_U_iso_or_equiv
_atom_site_adp_type
_atom_site_occupancy
C1     C     0.88126   0.45801   0.62944   0.00000  Uiso   1.00
C2     C     0.81984   0.41292   0.64264   0.00000  Uiso   1.00
C3     C     0.82063   0.37385   0.70211   0.00000  Uiso   1.00
C4     C     0.75910   0.33610   0.70416   0.00000  Uiso   1.00
C5     C     0.67288   0.26587   0.73309   0.00000  Uiso   1.00
C6     C     0.89215   0.44105   0.56776   0.00000  Uiso   1.00
C7     C     0.95375   0.42563   0.56427   0.00000  Uiso   1.00
C8     C     0.95309   0.41157   0.50328   0.00000  Uiso   1.00
C9     C     0.97916   0.38505   0.41594   0.00000  Uiso   1.00
C10    C     0.85593   0.52173   0.60793   0.00000  Uiso   1.00
C11    C     0.88709   0.57416   0.63820   0.00000  Uiso   1.00
C12    C     0.85594   0.62803   0.61101   0.00000  Uiso   1.00
C13    C     0.82578   0.72677   0.58605   0.00000  Uiso   1.00
C14    C     0.77057   0.46045   0.52733   0.00000  Uiso   1.00
C15    C     0.75972   0.41425   0.58718   0.00000  Uiso   1.00
C16    C     0.69817   0.37655   0.58914   0.00000  Uiso   1.00
C17    C     0.69887   0.33743   0.64860   0.00000  Uiso   1.00
C18    C     0.83204   0.44237   0.51230   0.00000  Uiso   1.00
C19    C     0.83129   0.42833   0.45130   0.00000  Uiso   1.00
C20    C     0.89286   0.41290   0.44772   0.00000  Uiso   1.00
C21    C     0.79581   0.52305   0.55247   0.00000  Uiso   1.00
C22    C     0.76462   0.57685   0.52523   0.00000  Uiso   1.00
C23    C     0.79571   0.62935   0.55545   0.00000  Uiso   1.00
H24    H     0.92807   0.45698   0.67261   0.00000  Uiso   1.00
H25    H     0.86717   0.37283   0.74501   0.00000  Uiso   1.00
H26    H     0.00026   0.42462   0.60719   0.00000  Uiso   1.00
H27    H     0.93361   0.57311   0.68111   0.00000  Uiso   1.00
H28    H     0.77315   0.28011   0.80082   0.00000  Uiso   1.00
H29    H     0.05379   0.38932   0.51021   0.00000  Uiso   1.00
H30    H     0.91324   0.70246   0.66608   0.00000  Uiso   1.00
H31    H     0.72377   0.46148   0.48415   0.00000  Uiso   1.00
H32    H     0.65165   0.37758   0.54621   0.00000  Uiso   1.00
H33    H     0.78475   0.42937   0.40839   0.00000  Uiso   1.00
H34    H     0.71810   0.57786   0.48231   0.00000  Uiso   1.00
H35    H     0.59823   0.28397   0.63947   0.00000  Uiso   1.00
H36    H     0.87888   0.39318   0.34886   0.00000  Uiso   1.00
H37    H     0.73832   0.70631   0.50473   0.00000  Uiso   1.00
O38    O     0.64194   0.22675   0.76436   0.00000  Uiso   1.00
O39    O     0.01015   0.37004   0.38309   0.00000  Uiso   1.00
O40    O     0.82574   0.78087   0.58760   0.00000  Uiso   1.00
N41    N     0.74187   0.29254   0.75433   0.00000  Uiso   1.00
N42    N     0.00426   0.39464   0.48263   0.00000  Uiso   1.00
N43    N     0.87286   0.68740   0.62835   0.00000  Uiso   1.00
N44    N     0.64775   0.29462   0.66751   0.00000  Uiso   1.00
N45    N     0.91014   0.39671   0.39581   0.00000  Uiso   1.00
N46    N     0.77874   0.68947   0.54153   0.00000  Uiso   1.00
C47    C     0.63233   0.90408   0.40706   0.00000  Uiso   1.00
C48    C     0.68292   0.86978   0.39224   0.00000  Uiso   1.00
C49    C     0.74793   0.89517   0.38552   0.00000  Uiso   1.00
C50    C     0.78631   0.85613   0.37195   0.00000  Uiso   1.00
C51    C     0.86877   0.81233   0.34991   0.00000  Uiso   1.00
C52    C     0.56414   0.89668   0.35040   0.00000  Uiso   1.00
C53    C     0.52929   0.94470   0.30851   0.00000  Uiso   1.00
C54    C     0.46767   0.92831   0.25972   0.00000  Uiso   1.00
C55    C     0.36571   0.92629   0.17274   0.00000  Uiso   1.00
C56    C     0.61739   0.86732   0.47022   0.00000  Uiso   1.00
C57    C     0.62729   0.89064   0.52907   0.00000  Uiso   1.00
C58    C     0.61048   0.84953   0.58117   0.00000  Uiso   1.00
C59    C     0.59120   0.80191   0.68023   0.00000  Uiso   1.00
C60    C     0.58487   0.78959   0.39492   0.00000  Uiso   1.00
C61    C     0.65714   0.80759   0.38564   0.00000  Uiso   1.00
C62    C     0.69543   0.76850   0.37208   0.00000  Uiso   1.00
C63    C     0.76049   0.79383   0.36535   0.00000  Uiso   1.00
C64    C     0.53837   0.83451   0.34380   0.00000  Uiso   1.00
C65    C     0.47678   0.81804   0.29507   0.00000  Uiso   1.00
C66    C     0.44185   0.86602   0.25311   0.00000  Uiso   1.00
C67    C     0.59162   0.80513   0.46363   0.00000  Uiso   1.00
C68    C     0.57479   0.76398   0.51563   0.00000  Uiso   1.00
C69    C     0.58466   0.78723   0.57456   0.00000  Uiso   1.00
H70    H     0.65239   0.95249   0.41220   0.00000  Uiso   1.00
H71    H     0.76786   0.94329   0.39062   0.00000  Uiso   1.00
H72    H     0.54924   0.99282   0.31363   0.00000  Uiso   1.00
H73    H     0.64723   0.93876   0.53416   0.00000  Uiso   1.00
H74    H     0.88450   0.90568   0.36377   0.00000  Uiso   1.00
H75    H     0.42353   0.01010   0.20143   0.00000  Uiso   1.00
H76    H     0.63015   0.89612   0.66647   0.00000  Uiso   1.00
H77    H     0.56480   0.74118   0.38978   0.00000  Uiso   1.00
H78    H     0.67547   0.72038   0.36698   0.00000  Uiso   1.00
H79    H     0.45685   0.76991   0.28998   0.00000  Uiso   1.00
H80    H     0.55484   0.71586   0.51051   0.00000  Uiso   1.00
H81    H     0.80951   0.72476   0.34458   0.00000  Uiso   1.00
H82    H     0.34853   0.82919   0.18224   0.00000  Uiso   1.00
H83    H     0.55517   0.71521   0.64728   0.00000  Uiso   1.00
O84    O     0.92137   0.80536   0.33956   0.00000  Uiso   1.00
O85    O     0.31659   0.94236   0.12659   0.00000  Uiso   1.00
O86    O     0.58769   0.79282   0.73670   0.00000  Uiso   1.00
N87    N     0.85167   0.86595   0.36240   0.00000  Uiso   1.00
N88    N     0.42069   0.96358   0.21061   0.00000  Uiso   1.00
N89    N     0.61385   0.85702   0.64538   0.00000  Uiso   1.00
N90    N     0.81132   0.76860   0.35207   0.00000  Uiso   1.00
N91    N     0.38034   0.86623   0.20029   0.00000  Uiso   1.00
N92    N     0.57350   0.75967   0.63505   0.00000  Uiso   1.00
C93    C     0.45821   0.58759   0.72789   0.00000  Uiso   1.00
C94    C     0.41725   0.64322   0.70250   0.00000  Uiso   1.00
C95    C     0.43735   0.70030   0.72540   0.00000  Uiso   1.00
C96    C     0.39263   0.74519   0.69574   0.00000  Uiso   1.00
C97    C     0.33852   0.83334   0.66405   0.00000  Uiso   1.00
C98    C     0.40888   0.53412   0.75066   0.00000  Uiso   1.00
C99    C     0.42196   0.49947   0.81406   0.00000  Uiso   1.00
C100   C     0.37020   0.45252   0.82493   0.00000  Uiso   1.00
C101   C     0.30313   0.37128   0.86800   0.00000  Uiso   1.00
C102   C     0.46958   0.57051   0.66651   0.00000  Uiso   1.00
C103   C     0.53369   0.56645   0.65915   0.00000  Uiso   1.00
C104   C     0.53304   0.55012   0.59917   0.00000  Uiso   1.00
C105   C     0.56022   0.52538   0.51158   0.00000  Uiso   1.00
C106   C     0.34306   0.56581   0.63447   0.00000  Uiso   1.00
C107   C     0.35470   0.63138   0.65176   0.00000  Uiso   1.00
C108   C     0.30994   0.67619   0.62204   0.00000  Uiso   1.00
C109   C     0.32997   0.73333   0.64490   0.00000  Uiso   1.00
C110   C     0.34634   0.52229   0.69992   0.00000  Uiso   1.00
C111   C     0.29455   0.47537   0.71070   0.00000  Uiso   1.00
C112   C     0.30754   0.44067   0.77409   0.00000  Uiso   1.00
C113   C     0.40704   0.55868   0.61576   0.00000  Uiso   1.00
C114   C     0.40629   0.54235   0.55579   0.00000  Uiso   1.00
C115   C     0.47038   0.53826   0.54834   0.00000  Uiso   1.00
H116   H     0.50690   0.59680   0.76740   0.00000  Uiso   1.00
H117   H     0.48575   0.70943   0.76468   0.00000  Uiso   1.00
H118   H     0.47037   0.50864   0.85332   0.00000  Uiso   1.00
H119   H     0.58208   0.57561   0.69843   0.00000  Uiso   1.00
H120   H     0.43471   0.82908   0.73930   0.00000  Uiso   1.00
H121   H     0.40227   0.40568   0.92619   0.00000  Uiso   1.00
H122   H     0.63785   0.54689   0.59958   0.00000  Uiso   1.00
H123   H     0.29436   0.55659   0.59496   0.00000  Uiso   1.00
H124   H     0.26154   0.66702   0.58277   0.00000  Uiso   1.00
H125   H     0.24616   0.46623   0.67141   0.00000  Uiso   1.00
H126   H     0.35788   0.53320   0.51653   0.00000  Uiso   1.00
H127   H     0.25273   0.79466   0.59166   0.00000  Uiso   1.00
H128   H     0.22030   0.37125   0.77855   0.00000  Uiso   1.00
H129   H     0.45587   0.51247   0.45194   0.00000  Uiso   1.00
O130   O     0.32595   0.88523   0.66059   0.00000  Uiso   1.00
O131   O     0.28341   0.32974   0.90578   0.00000  Uiso   1.00
O132   O     0.59248   0.51501   0.47728   0.00000  Uiso   1.00
N133   N     0.39639   0.80583   0.70622   0.00000  Uiso   1.00
N134   N     0.36606   0.40998   0.88095   0.00000  Uiso   1.00
N135   N     0.58631   0.54199   0.57561   0.00000  Uiso   1.00
N136   N     0.29847   0.78731   0.62677   0.00000  Uiso   1.00
N137   N     0.26814   0.39146   0.80150   0.00000  Uiso   1.00
N138   N     0.48839   0.52346   0.49616   0.00000  Uiso   1.00
C139   C     0.24807   0.02513   0.92398   0.00000  Uiso   1.00
C140   C     0.21710   0.07957   0.87411   0.00000  Uiso   1.00
C141   C     0.22976   0.14091   0.88518   0.00000  Uiso   1.00
C142   C     0.19644   0.18382   0.83326   0.00000  Uiso   1.00
C143   C     0.15512   0.27106   0.76506   0.00000  Uiso   1.00
C144   C     0.28495   0.99513   0.88837   0.00000  Uiso   1.00
C145   C     0.35466   0.98547   0.91144   0.00000  Uiso   1.00
C146   C     0.37846   0.95729   0.87152   0.00000  Uiso   1.00
C147   C     0.44248   0.91340   0.82548   0.00000  Uiso   1.00
C148   C     0.18619   0.97817   0.93276   0.00000  Uiso   1.00
C149   C     0.17286   0.95424   0.99316   0.00000  Uiso   1.00
C150   C     0.11351   0.91177   0.99062   0.00000  Uiso   1.00
C151   C     0.02418   0.84154   0.01352   0.00000  Uiso   1.00
C152   C     0.16638   0.99225   0.81207   0.00000  Uiso   1.00
C153   C     0.17273   0.06170   0.81332   0.00000  Uiso   1.00
C154   C     0.13938   0.10453   0.76137   0.00000  Uiso   1.00
C155   C     0.15199   0.16593   0.77236   0.00000  Uiso   1.00
C156   C     0.24059   0.97726   0.82758   0.00000  Uiso   1.00
C157   C     0.26429   0.94909   0.78762   0.00000  Uiso   1.00
C158   C     0.33401   0.93939   0.81062   0.00000  Uiso   1.00
C159   C     0.14182   0.96031   0.87198   0.00000  Uiso   1.00
C160   C     0.08248   0.91786   0.86935   0.00000  Uiso   1.00
C161   C     0.06907   0.89387   0.92973   0.00000  Uiso   1.00
H162   H     0.28262   0.03904   0.97130   0.00000  Uiso   1.00
H163   H     0.26410   0.15472   0.93223   0.00000  Uiso   1.00
H164   H     0.38898   0.99929   0.95848   0.00000  Uiso   1.00
H165   H     0.20721   0.96807   0.04019   0.00000  Uiso   1.00
H166   H     0.22403   0.27510   0.86210   0.00000  Uiso   1.00
H167   H     0.48734   0.94736   0.91746   0.00000  Uiso   1.00
H168   H     0.10404   0.88152   0.08977   0.00000  Uiso   1.00
H169   H     0.13184   0.97834   0.76474   0.00000  Uiso   1.00
H170   H     0.10505   0.09069   0.71433   0.00000  Uiso   1.00
H171   H     0.22993   0.93527   0.74059   0.00000  Uiso   1.00
H172   H     0.04816   0.90405   0.82230   0.00000  Uiso   1.00
H173   H     0.09494   0.22313   0.68524   0.00000  Uiso   1.00
H174   H     0.35825   0.89539   0.74061   0.00000  Uiso   1.00
H175   H     0.97495   0.82955   0.91292   0.00000  Uiso   1.00
O176   O     0.14460   0.32412   0.74423   0.00000  Uiso   1.00
O177   O     0.49005   0.89413   0.81688   0.00000  Uiso   1.00
O178   O     0.98716   0.80775   0.04293   0.00000  Uiso   1.00
N179   N     0.19731   0.24745   0.82740   0.00000  Uiso   1.00
N180   N     0.44350   0.94104   0.87916   0.00000  Uiso   1.00
N181   N     0.08515   0.87947   0.04025   0.00000  Uiso   1.00
N182   N     0.12785   0.21949   0.73223   0.00000  Uiso   1.00
N183   N     0.37403   0.91307   0.78399   0.00000  Uiso   1.00
N184   N     0.01569   0.85151   0.94509   0.00000  Uiso   1.00
C185   C     0.19891   0.89051   0.48296   0.00000  Uiso   1.00
C186   C     0.23236   0.84842   0.45660   0.00000  Uiso   1.00
C187   C     0.30344   0.84616   0.47211   0.00000  Uiso   1.00
C188   C     0.32355   0.80450   0.44287   0.00000  Uiso   1.00
C189   C     0.38297   0.74490   0.40854   0.00000  Uiso   1.00
C190   C     0.14883   0.84775   0.51653   0.00000  Uiso   1.00
C191   C     0.14969   0.84492   0.58242   0.00000  Uiso   1.00
C192   C     0.09948   0.80270   0.60362   0.00000  Uiso   1.00
C193   C     0.02920   0.74208   0.66231   0.00000  Uiso   1.00
C194   C     0.15338   0.92743   0.42126   0.00000  Uiso   1.00
C195   C     0.15804   0.99161   0.40706   0.00000  Uiso   1.00
C196   C     0.11164   0.01649   0.34805   0.00000  Uiso   1.00
C197   C     0.04842   0.07960   0.25882   0.00000  Uiso   1.00
C198   C     0.10820   0.82057   0.40343   0.00000  Uiso   1.00
C199   C     0.18309   0.81043   0.41341   0.00000  Uiso   1.00
C200   C     0.20309   0.76877   0.38413   0.00000  Uiso   1.00
C201   C     0.27419   0.76644   0.39959   0.00000  Uiso   1.00
C202   C     0.09957   0.80975   0.47333   0.00000  Uiso   1.00
C203   C     0.04934   0.76753   0.49444   0.00000  Uiso   1.00
C204   C     0.05012   0.76464   0.56035   0.00000  Uiso   1.00
C205   C     0.10411   0.88944   0.37806   0.00000  Uiso   1.00
C206   C     0.05769   0.91422   0.31907   0.00000  Uiso   1.00
C207   C     0.06228   0.97842   0.30478   0.00000  Uiso   1.00
H208   H     0.23727   0.92009   0.51659   0.00000  Uiso   1.00
H209   H     0.34156   0.87557   0.50555   0.00000  Uiso   1.00
H210   H     0.18782   0.87433   0.61583   0.00000  Uiso   1.00
H211   H     0.19618   0.02100   0.44049   0.00000  Uiso   1.00
H212   H     0.43545   0.80943   0.47427   0.00000  Uiso   1.00
H213   H     0.11128   0.80684   0.70682   0.00000  Uiso   1.00
H214   H     0.12889   0.11612   0.33708   0.00000  Uiso   1.00
H215   H     0.06984   0.79098   0.36980   0.00000  Uiso   1.00
H216   H     0.16495   0.73937   0.35070   0.00000  Uiso   1.00
H217   H     0.01121   0.73814   0.46100   0.00000  Uiso   1.00
H218   H     0.01957   0.88481   0.28566   0.00000  Uiso   1.00
H219   H     0.29211   0.69888   0.34860   0.00000  Uiso   1.00
H220   H     0.96794   0.69630   0.58115   0.00000  Uiso   1.00
H221   H     0.98555   0.00558   0.21141   0.00000  Uiso   1.00
O222   O     0.42936   0.72252   0.40154   0.00000  Uiso   1.00
O223   O     0.00406   0.71914   0.70663   0.00000  Uiso   1.00
O224   O     0.02717   0.12490   0.22154   0.00000  Uiso   1.00
N225   N     0.38866   0.79050   0.44731   0.00000  Uiso   1.00
N226   N     0.08559   0.78808   0.66473   0.00000  Uiso   1.00
N227   N     0.10205   0.07723   0.31906   0.00000  Uiso   1.00
N228   N     0.31153   0.73102   0.37968   0.00000  Uiso   1.00
N229   N     0.00846   0.72860   0.59710   0.00000  Uiso   1.00
N230   N     0.02492   0.01775   0.25144   0.00000  Uiso   1.00
C231   C     0.86986   0.33809   0.95481   0.00000  Uiso   1.00
C232   C     0.84524   0.33708   0.01539   0.00000  Uiso   1.00
C233   C     0.88589   0.35715   0.07555   0.00000  Uiso   1.00
C234   C     0.85366   0.35240   0.12482   0.00000  Uiso   1.00
C235   C     0.82612   0.35451   0.22049   0.00000  Uiso   1.00
C236   C     0.82112   0.37537   0.89606   0.00000  Uiso   1.00
C237   C     0.84152   0.42763   0.85588   0.00000  Uiso   1.00
C238   C     0.78898   0.45510   0.80469   0.00000  Uiso   1.00
C239   C     0.72402   0.51663   0.71506   0.00000  Uiso   1.00
C240   C     0.85443   0.27156   0.93962   0.00000  Uiso   1.00
C241   C     0.90282   0.23654   0.93605   0.00000  Uiso   1.00
C242   C     0.87832   0.17661   0.92152   0.00000  Uiso   1.00
C243   C     0.86507   0.07697   0.89952   0.00000  Uiso   1.00
C244   C     0.74031   0.29394   0.93531   0.00000  Uiso   1.00
C245   C     0.77487   0.31310   0.00480   0.00000  Uiso   1.00
C246   C     0.74256   0.30831   0.05399   0.00000  Uiso   1.00
C247   C     0.78317   0.32837   0.11422   0.00000  Uiso   1.00
C248   C     0.75076   0.35139   0.88547   0.00000  Uiso   1.00
C249   C     0.69818   0.37879   0.83432   0.00000  Uiso   1.00
C250   C     0.71849   0.43108   0.79408   0.00000  Uiso   1.00
C251   C     0.78406   0.24758   0.92903   0.00000  Uiso   1.00
C252   C     0.75949   0.18770   0.91449   0.00000  Uiso   1.00
C253   C     0.80783   0.15259   0.91091   0.00000  Uiso   1.00
H254   H     0.92464   0.35676   0.96305   0.00000  Uiso   1.00
H255   H     0.94035   0.37571   0.08373   0.00000  Uiso   1.00
H256   H     0.89597   0.44617   0.86409   0.00000  Uiso   1.00
H257   H     0.95727   0.25511   0.94425   0.00000  Uiso   1.00
H258   H     0.92672   0.38618   0.21284   0.00000  Uiso   1.00
H259   H     0.83316   0.53473   0.74971   0.00000  Uiso   1.00
H260   H     0.96241   0.13184   0.91874   0.00000  Uiso   1.00
H261   H     0.68552   0.27527   0.92707   0.00000  Uiso   1.00
H262   H     0.68811   0.28975   0.04578   0.00000  Uiso   1.00
H263   H     0.64374   0.36022   0.82614   0.00000  Uiso   1.00
H264   H     0.70503   0.16916   0.90630   0.00000  Uiso   1.00
H265   H     0.72200   0.31641   0.18204   0.00000  Uiso   1.00
H266   H     0.62844   0.46497   0.71890   0.00000  Uiso   1.00
H267   H     0.75769   0.06208   0.88794   0.00000  Uiso   1.00
O268   O     0.83037   0.36231   0.27618   0.00000  Uiso   1.00
O269   O     0.70763   0.55720   0.66855   0.00000  Uiso   1.00
O270   O     0.87720   0.02863   0.89032   0.00000  Uiso   1.00
N271   N     0.87819   0.36776   0.18931   0.00000  Uiso   1.00
N272   N     0.79072   0.50666   0.75631   0.00000  Uiso   1.00
N273   N     0.91155   0.12999   0.91432   0.00000  Uiso   1.00
N274   N     0.76803   0.33022   0.17274   0.00000  Uiso   1.00
N275   N     0.68055   0.46912   0.73974   0.00000  Uiso   1.00
N276   N     0.80139   0.09245   0.89775   0.00000  Uiso   1.00
C277   C     0.10801   0.50788   0.29094   0.00000  Uiso   1.00
C278   C     0.17092   0.55298   0.28136   0.00000  Uiso   1.00
C279   C     0.17475   0.58999   0.22191   0.00000  Uiso   1.00
C280   C     0.23691   0.62813   0.22348   0.00000  Uiso   1.00
C281   C     0.32602   0.69802   0.19964   0.00000  Uiso   1.00
C282   C     0.08986   0.52717   0.34768   0.00000  Uiso   1.00
C283   C     0.02554   0.54247   0.34399   0.00000  Uiso   1.00
C284   C     0.01946   0.55888   0.40139   0.00000  Uiso   1.00
C285   C     0.98271   0.58865   0.48053   0.00000  Uiso   1.00
C286   C     0.13422   0.44483   0.31814   0.00000  Uiso   1.00
C287   C     0.10718   0.39089   0.28963   0.00000  Uiso   1.00
C288   C     0.13844   0.33797   0.32218   0.00000  Uiso   1.00
C289   C     0.17057   0.23990   0.35546   0.00000  Uiso   1.00
C290   C     0.21158   0.50982   0.39943   0.00000  Uiso   1.00
C291   C     0.22717   0.55404   0.34029   0.00000  Uiso   1.00
C292   C     0.28934   0.59213   0.34195   0.00000  Uiso   1.00
C293   C     0.29327   0.62919   0.28251   0.00000  Uiso   1.00
C294   C     0.14611   0.52823   0.40660   0.00000  Uiso   1.00
C295   C     0.14012   0.54461   0.46403   0.00000  Uiso   1.00
C296   C     0.07581   0.55994   0.46043   0.00000  Uiso   1.00
C297   C     0.19048   0.44589   0.37707   0.00000  Uiso   1.00
C298   C     0.22178   0.39304   0.40967   0.00000  Uiso   1.00
C299   C     0.19480   0.33903   0.38121   0.00000  Uiso   1.00
H300   H     0.06421   0.50706   0.24506   0.00000  Uiso   1.00
H301   H     0.13120   0.58916   0.17632   0.00000  Uiso   1.00
H302   H     0.98201   0.54164   0.29838   0.00000  Uiso   1.00
H303   H     0.06365   0.39009   0.24403   0.00000  Uiso   1.00
H304   H     0.23028   0.68066   0.12609   0.00000  Uiso   1.00
H305   H     0.91569   0.58045   0.38348   0.00000  Uiso   1.00
H306   H     0.08784   0.26087   0.26887   0.00000  Uiso   1.00
H307   H     0.25538   0.51064   0.44531   0.00000  Uiso   1.00
H308   H     0.33287   0.59294   0.38756   0.00000  Uiso   1.00
H309   H     0.18367   0.54542   0.50962   0.00000  Uiso   1.00
H310   H     0.26531   0.39387   0.45527   0.00000  Uiso   1.00
H311   H     0.39395   0.68373   0.29754   0.00000  Uiso   1.00
H312   H     0.07936   0.58351   0.55493   0.00000  Uiso   1.00
H313   H     0.25152   0.26394   0.44032   0.00000  Uiso   1.00
O314   O     0.35963   0.73628   0.17022   0.00000  Uiso   1.00
O315   O     0.94690   0.60479   0.50790   0.00000  Uiso   1.00
O316   O     0.17276   0.18552   0.35753   0.00000  Uiso   1.00
N317   N     0.25817   0.67008   0.17437   0.00000  Uiso   1.00
N318   N     0.96405   0.57640   0.41501   0.00000  Uiso   1.00
N319   N     0.12499   0.27762   0.30786   0.00000  Uiso   1.00
N320   N     0.34624   0.67173   0.26662   0.00000  Uiso   1.00
N321   N     0.05212   0.57805   0.50726   0.00000  Uiso   1.00
N322   N     0.21306   0.27927   0.40012   0.00000  Uiso   1.00
C323   C     0.36097   0.04052   0.56510   0.00000  Uiso   1.00
C324   C     0.31108   0.08256   0.56876   0.00000  Uiso   1.00
C325   C     0.24512   0.06320   0.57600   0.00000  Uiso   1.00
C326   C     0.20763   0.10884   0.57832   0.00000  Uiso   1.00
C327   C     0.12599   0.16457   0.58476   0.00000  Uiso   1.00
C328   C     0.42847   0.05354   0.62101   0.00000  Uiso   1.00
C329   C     0.46120   0.00978   0.67218   0.00000  Uiso   1.00
C330   C     0.52253   0.03099   0.71847   0.00000  Uiso   1.00
C331   C     0.62316   0.04166   0.80601   0.00000  Uiso   1.00
C332   C     0.37812   0.06460   0.49952   0.00000  Uiso   1.00
C333   C     0.36854   0.03015   0.44855   0.00000  Uiso   1.00
C334   C     0.38750   0.06067   0.39256   0.00000  Uiso   1.00
C335   C     0.40996   0.08852   0.29147   0.00000  Uiso   1.00
C336   C     0.41169   0.15600   0.55633   0.00000  Uiso   1.00
C337   C     0.33863   0.14528   0.56400   0.00000  Uiso   1.00
C338   C     0.30123   0.19096   0.56630   0.00000  Uiso   1.00
C339   C     0.23522   0.17168   0.57354   0.00000  Uiso   1.00
C340   C     0.45602   0.11626   0.61625   0.00000  Uiso   1.00
C341   C     0.51731   0.13754   0.66247   0.00000  Uiso   1.00
C342   C     0.55013   0.09383   0.71370   0.00000  Uiso   1.00
C343   C     0.40567   0.12733   0.49476   0.00000  Uiso   1.00
C344   C     0.42465   0.15791   0.43884   0.00000  Uiso   1.00
C345   C     0.41510   0.12351   0.38779   0.00000  Uiso   1.00
H346   H     0.33953   0.99169   0.56881   0.00000  Uiso   1.00
H347   H     0.22382   0.01465   0.57970   0.00000  Uiso   1.00
H348   H     0.43987   0.96124   0.67585   0.00000  Uiso   1.00
H349   H     0.34722   0.98161   0.45225   0.00000  Uiso   1.00
H350   H     0.10769   0.06778   0.58968   0.00000  Uiso   1.00
H351   H     0.56327   0.95515   0.79242   0.00000  Uiso   1.00
H352   H     0.36790   0.99810   0.32092   0.00000  Uiso   1.00
H353   H     0.43314   0.20483   0.55262   0.00000  Uiso   1.00
H354   H     0.32256   0.23950   0.56261   0.00000  Uiso   1.00
H355   H     0.53862   0.18608   0.65877   0.00000  Uiso   1.00
H356   H     0.44597   0.20645   0.43517   0.00000  Uiso   1.00
H357   H     0.18784   0.25026   0.57582   0.00000  Uiso   1.00
H358   H     0.64342   0.13764   0.77856   0.00000  Uiso   1.00
H359   H     0.44805   0.18058   0.30706   0.00000  Uiso   1.00
O360   O     0.07335   0.17798   0.58964   0.00000  Uiso   1.00
O361   O     0.67105   0.03021   0.85561   0.00000  Uiso   1.00
O362   O     0.41473   0.08656   0.23702   0.00000  Uiso   1.00
N363   N     0.14173   0.10597   0.58504   0.00000  Uiso   1.00
N364   N     0.56765   0.00067   0.77459   0.00000  Uiso   1.00
N365   N     0.38502   0.04082   0.33378   0.00000  Uiso   1.00
N366   N     0.18485   0.20416   0.57758   0.00000  Uiso   1.00
N367   N     0.61078   0.09887   0.76713   0.00000  Uiso   1.00
N368   N     0.42815   0.13901   0.32632   0.00000  Uiso   1.00
C369   C     0.53847   0.34968   0.17089   0.00000  Uiso   1.00
C370   C     0.58052   0.29670   0.20995   0.00000  Uiso   1.00
C371   C     0.56101   0.23454   0.20253   0.00000  Uiso   1.00
C372   C     0.60670   0.19323   0.24294   0.00000  Uiso   1.00
C373   C     0.66244   0.10790   0.29654   0.00000  Uiso   1.00
C374   C     0.58655   0.39582   0.13770   0.00000  Uiso   1.00
C375   C     0.57210   0.41701   0.06954   0.00000  Uiso   1.00
C376   C     0.62286   0.45916   0.04915   0.00000  Uiso   1.00
C377   C     0.68794   0.52775   0.99059   0.00000  Uiso   1.00
C378   C     0.52773   0.38201   0.22325   0.00000  Uiso   1.00
C379   C     0.46383   0.39160   0.22701   0.00000  Uiso   1.00
C380   C     0.46507   0.42213   0.27864   0.00000  Uiso   1.00
C381   C     0.43882   0.46927   0.35291   0.00000  Uiso   1.00
C382   C     0.65430   0.38688   0.25587   0.00000  Uiso   1.00
C383   C     0.64344   0.31690   0.25610   0.00000  Uiso   1.00
C384   C     0.68917   0.27569   0.29654   0.00000  Uiso   1.00
C385   C     0.66973   0.21347   0.28919   0.00000  Uiso   1.00
C386   C     0.64946   0.41603   0.18386   0.00000  Uiso   1.00
C387   C     0.70026   0.45816   0.16356   0.00000  Uiso   1.00
C388   C     0.68589   0.47940   0.09539   0.00000  Uiso   1.00
C389   C     0.59064   0.40221   0.26941   0.00000  Uiso   1.00
C390   C     0.59199   0.43274   0.32103   0.00000  Uiso   1.00
C391   C     0.52810   0.44237   0.32488   0.00000  Uiso   1.00
H392   H     0.48949   0.33396   0.13495   0.00000  Uiso   1.00
H393   H     0.51232   0.21892   0.16679   0.00000  Uiso   1.00
H394   H     0.52340   0.40137   0.03384   0.00000  Uiso   1.00
H395   H     0.41515   0.37596   0.19128   0.00000  Uiso   1.00
H396   H     0.56539   0.10029   0.22244   0.00000  Uiso   1.00
H397   H     0.58875   0.48502   0.94209   0.00000  Uiso   1.00
H398   H     0.36048   0.43143   0.27410   0.00000  Uiso   1.00
H399   H     0.70329   0.40261   0.29180   0.00000  Uiso   1.00
H400   H     0.73785   0.29133   0.33226   0.00000  Uiso   1.00
H401   H     0.74894   0.47378   0.19929   0.00000  Uiso   1.00
H402   H     0.64068   0.44837   0.35674   0.00000  Uiso   1.00
H403   H     0.74844   0.15907   0.35673   0.00000  Uiso   1.00
H404   H     0.77180   0.54379   0.07638   0.00000  Uiso   1.00
H405   H     0.54353   0.49020   0.40839   0.00000  Uiso   1.00
O406   O     0.67581   0.05525   0.31335   0.00000  Uiso   1.00
O407   O     0.70645   0.56000   0.94554   0.00000  Uiso   1.00
O408   O     0.40696   0.48969   0.38113   0.00000  Uiso   1.00
N409   N     0.60372   0.12940   0.24850   0.00000  Uiso   1.00
N410   N     0.62557   0.48908   0.98639   0.00000  Uiso   1.00
N411   N     0.41215   0.43900   0.29678   0.00000  Uiso   1.00
N412   N     0.70222   0.16102   0.32076   0.00000  Uiso   1.00
N413   N     0.72407   0.52071   0.05865   0.00000  Uiso   1.00
N414   N     0.51065   0.47062   0.36904   0.00000  Uiso   1.00
C415   C     0.64376   0.81890   0.04985   0.00000  Uiso   1.00
C416   C     0.69839   0.78412   0.10501   0.00000  Uiso   1.00
C417   C     0.68949   0.72186   0.13109   0.00000  Uiso   1.00
C418   C     0.74577   0.69877   0.18134   0.00000  Uiso   1.00
C419   C     0.82103   0.63902   0.26347   0.00000  Uiso   1.00
C420   C     0.63480   0.87350   0.07913   0.00000  Uiso   1.00
C421   C     0.57242   0.88639   0.08343   0.00000  Uiso   1.00
C422   C     0.57516   0.93855   0.11189   0.00000  Uiso   1.00
C423   C     0.55168   0.01759   0.15379   0.00000  Uiso   1.00
C424   C     0.67741   0.84686   0.99481   0.00000  Uiso   1.00
C425   C     0.65086   0.83736   0.92820   0.00000  Uiso   1.00
C426   C     0.68947   0.86710   0.88566   0.00000  Uiso   1.00
C427   C     0.73215   0.90477   0.79664   0.00000  Uiso   1.00
C428   C     0.75953   0.88863   0.09273   0.00000  Uiso   1.00
C429   C     0.76128   0.82200   0.12830   0.00000  Uiso   1.00
C430   C     0.81758   0.79901   0.17853   0.00000  Uiso   1.00
C431   C     0.80876   0.73672   0.20467   0.00000  Uiso   1.00
C432   C     0.69768   0.91138   0.10242   0.00000  Uiso   1.00
C433   C     0.70051   0.96354   0.13087   0.00000  Uiso   1.00
C434   C     0.63816   0.97650   0.13522   0.00000  Uiso   1.00
C435   C     0.74030   0.88474   0.01810   0.00000  Uiso   1.00
C436   C     0.77895   0.91451   0.97565   0.00000  Uiso   1.00
C437   C     0.75247   0.90505   0.90899   0.00000  Uiso   1.00
H438   H     0.59480   0.78941   0.03172   0.00000  Uiso   1.00
H439   H     0.64081   0.69256   0.11305   0.00000  Uiso   1.00
H440   H     0.52377   0.85707   0.06540   0.00000  Uiso   1.00
H441   H     0.60219   0.80804   0.91020   0.00000  Uiso   1.00
H442   H     0.71956   0.60189   0.21351   0.00000  Uiso   1.00
H443   H     0.47275   0.94878   0.11301   0.00000  Uiso   1.00
H444   H     0.63813   0.84540   0.78573   0.00000  Uiso   1.00
H445   H     0.80849   0.91812   0.11087   0.00000  Uiso   1.00
H446   H     0.86624   0.82833   0.19654   0.00000  Uiso   1.00
H447   H     0.74918   0.99284   0.14889   0.00000  Uiso   1.00
H448   H     0.82761   0.94382   0.99369   0.00000  Uiso   1.00
H449   H     0.90252   0.71209   0.28128   0.00000  Uiso   1.00
H450   H     0.65571   0.05898   0.18077   0.00000  Uiso   1.00
H451   H     0.82109   0.95560   0.85350   0.00000  Uiso   1.00
O452   O     0.84516   0.59561   0.30234   0.00000  Uiso   1.00
O453   O     0.52136   0.05071   0.17047   0.00000  Uiso   1.00
O454   O     0.73833   0.91508   0.74110   0.00000  Uiso   1.00
N455   N     0.75470   0.64015   0.21769   0.00000  Uiso   1.00
N456   N     0.52395   0.96446   0.12374   0.00000  Uiso   1.00
N457   N     0.67855   0.86782   0.81776   0.00000  Uiso   1.00
N458   N     0.85315   0.69944   0.25416   0.00000  Uiso   1.00
N459   N     0.62240   0.02376   0.16020   0.00000  Uiso   1.00
N460   N     0.77700   0.92712   0.85422   0.00000  Uiso   1.00
C461   C     0.80290   0.07268   0.46068   0.00000  Uiso   1.00
C462   C     0.76665   0.11285   0.48647   0.00000  Uiso   1.00
C463   C     0.69505   0.11131   0.47187   0.00000  Uiso   1.00
C464   C     0.67225   0.15176   0.50038   0.00000  Uiso   1.00
C465   C     0.60880   0.20799   0.53408   0.00000  Uiso   1.00
C466   C     0.85009   0.11750   0.42534   0.00000  Uiso   1.00
C467   C     0.84864   0.11985   0.35935   0.00000  Uiso   1.00
C468   C     0.89608   0.16420   0.33640   0.00000  Uiso   1.00
C469   C     0.96220   0.22762   0.27521   0.00000  Uiso   1.00
C470   C     0.85145   0.03881   0.52270   0.00000  Uiso   1.00
C471   C     0.85117   0.97500   0.53856   0.00000  Uiso   1.00
C472   C     0.89978   0.95311   0.59758   0.00000  Uiso   1.00
C473   C     0.96801   0.89435   0.68755   0.00000  Uiso   1.00
C474   C     0.88974   0.14727   0.53728   0.00000  Uiso   1.00
C475   C     0.81382   0.15337   0.52808   0.00000  Uiso   1.00
C476   C     0.79113   0.19383   0.55662   0.00000  Uiso   1.00
C477   C     0.71950   0.19234   0.54206   0.00000  Uiso   1.00
C478   C     0.89726   0.15801   0.46695   0.00000  Uiso   1.00
C479   C     0.94472   0.20237   0.44410   0.00000  Uiso   1.00
C480   C     0.94334   0.20479   0.37808   0.00000  Uiso   1.00
C481   C     0.89862   0.07933   0.56431   0.00000  Uiso   1.00
C482   C     0.94724   0.05753   0.62331   0.00000  Uiso   1.00
C483   C     0.94703   0.99370   0.63926   0.00000  Uiso   1.00
H484   H     0.76618   0.04114   0.42828   0.00000  Uiso   1.00
H485   H     0.65856   0.07995   0.43966   0.00000  Uiso   1.00
H486   H     0.81214   0.08848   0.32716   0.00000  Uiso   1.00
H487   H     0.81466   0.94366   0.50635   0.00000  Uiso   1.00
H488   H     0.56006   0.14086   0.47061   0.00000  Uiso   1.00
H489   H     0.88389   0.15884   0.23341   0.00000  Uiso   1.00
H490   H     0.88922   0.85346   0.61125   0.00000  Uiso   1.00
H491   H     0.92646   0.17881   0.56967   0.00000  Uiso   1.00
H492   H     0.82764   0.22518   0.58881   0.00000  Uiso   1.00
H493   H     0.98121   0.23371   0.47631   0.00000  Uiso   1.00
H494   H     0.98374   0.08889   0.65549   0.00000  Uiso   1.00
H495   H     0.69728   0.25873   0.59166   0.00000  Uiso   1.00
H496   H     0.02112   0.27671   0.35446   0.00000  Uiso   1.00
H497   H     0.02644   0.97133   0.73230   0.00000  Uiso   1.00
O498   O     0.56077   0.22783   0.54116   0.00000  Uiso   1.00
O499   O     0.98563   0.25141   0.22996   0.00000  Uiso   1.00
O500   O     0.99262   0.85075   0.72569   0.00000  Uiso   1.00
N501   N     0.60592   0.16223   0.49649   0.00000  Uiso   1.00
N502   N     0.90867   0.17905   0.27471   0.00000  Uiso   1.00
N503   N     0.91366   0.89354   0.62795   0.00000  Uiso   1.00
N504   N     0.67976   0.22566   0.56162   0.00000  Uiso   1.00
N505   N     0.98251   0.24248   0.33985   0.00000  Uiso   1.00
N506   N     0.98750   0.95697   0.69309   0.00000  Uiso   1.00
C507   C     0.02372   0.51726   0.93907   0.00000  Uiso   1.00
C508   C     0.05448   0.54707   0.88245   0.00000  Uiso   1.00
C509   C     0.04001   0.52522   0.82190   0.00000  Uiso   1.00
C510   C     0.07348   0.55910   0.77666   0.00000  Uiso   1.00
C511   C     0.11423   0.59718   0.68650   0.00000  Uiso   1.00
C512   C     0.08577   0.50524   0.00126   0.00000  Uiso   1.00
C513   C     0.09759   0.44823   0.04060   0.00000  Uiso   1.00
C514   C     0.15739   0.44690   0.09538   0.00000  Uiso   1.00
C515   C     0.24668   0.42006   0.18969   0.00000  Uiso   1.00
C516   C     0.98930   0.56733   0.95225   0.00000  Uiso   1.00
C517   C     0.92001   0.56252   0.95040   0.00000  Uiso   1.00
C518   C     0.89859   0.61346   0.96393   0.00000  Uiso   1.00
C519   C     0.83810   0.68302   0.98214   0.00000  Uiso   1.00
C520   C     0.10891   0.61628   0.96640   0.00000  Uiso   1.00
C521   C     0.10075   0.60085   0.89730   0.00000  Uiso   1.00
C522   C     0.13425   0.63477   0.85214   0.00000  Uiso   1.00
C523   C     0.11982   0.61298   0.79153   0.00000  Uiso   1.00
C524   C     0.13204   0.55902   0.01610   0.00000  Uiso   1.00
C525   C     0.19183   0.55778   0.07083   0.00000  Uiso   1.00
C526   C     0.20374   0.50078   0.11025   0.00000  Uiso   1.00
C527   C     0.03557   0.62111   0.96709   0.00000  Uiso   1.00
C528   C     0.01425   0.67207   0.98063   0.00000  Uiso   1.00
C529   C     0.94494   0.66734   0.97880   0.00000  Uiso   1.00
H530   H     0.98770   0.47539   0.92752   0.00000  Uiso   1.00
H531   H     0.00420   0.48359   0.81044   0.00000  Uiso   1.00
H532   H     0.06177   0.40662   0.02911   0.00000  Uiso   1.00
H533   H     0.88422   0.52089   0.93892   0.00000  Uiso   1.00
H534   H     0.04292   0.51640   0.68718   0.00000  Uiso   1.00
H535   H     0.16429   0.35409   0.14827   0.00000  Uiso   1.00
H536   H     0.78989   0.59506   0.95809   0.00000  Uiso   1.00
H537   H     0.14493   0.65815   0.97796   0.00000  Uiso   1.00
H538   H     0.17005   0.67639   0.86364   0.00000  Uiso   1.00
H539   H     0.22762   0.59941   0.08231   0.00000  Uiso   1.00
H540   H     0.05007   0.71368   0.99211   0.00000  Uiso   1.00
H541   H     0.17753   0.67287   0.73036   0.00000  Uiso   1.00
H542   H     0.29890   0.51057   0.19145   0.00000  Uiso   1.00
H543   H     0.92450   0.75153   0.00126   0.00000  Uiso   1.00
O544   O     0.12393   0.60332   0.63267   0.00000  Uiso   1.00
O545   O     0.28316   0.39039   0.23760   0.00000  Uiso   1.00
O546   O     0.79195   0.70653   0.98808   0.00000  Uiso   1.00
N547   N     0.07114   0.55073   0.71303   0.00000  Uiso   1.00
N548   N     0.18462   0.39898   0.14411   0.00000  Uiso   1.00
N549   N     0.83459   0.62426   0.96632   0.00000  Uiso   1.00
N550   N     0.14357   0.63493   0.73626   0.00000  Uiso   1.00
N551   N     0.25706   0.48318   0.16735   0.00000  Uiso   1.00
N552   N     0.90702   0.70846   0.98956   0.00000  Uiso   1.00
