data_job_02484
_audit_creation_date              2018-12-19
_audit_creation_method            'Materials Studio'
_symmetry_space_group_name_H-M    'P1'
_symmetry_Int_Tables_number       1
_symmetry_cell_setting            triclinic
loop_
_symmetry_equiv_pos_as_xyz
  x,y,z
_cell_length_a                    18.9431
_cell_length_b                    7.4154
_cell_length_c                    18.7444
_cell_angle_alpha                 90.0000
_cell_angle_beta                  90.0000
_cell_angle_gamma                 90.0000
loop_
_atom_site_label
_atom_site_type_symbol
_atom_site_fract_x
_atom_site_fract_y
_atom_site_fract_z
_atom_site_U_iso_or_equiv
_atom_site_adp_type
_atom_site_occupancy
C1     C     0.71852   0.68207   0.83812   0.00000  Uiso   1.00
C2     C     0.66331   0.61519   0.78516   0.00000  Uiso   1.00
C3     C     0.63970   0.70817   0.72550   0.00000  Uiso   1.00
C4     C     0.58893   0.62391   0.68375   0.00000  Uiso   1.00
C5     C     0.50716   0.54612   0.59889   0.00000  Uiso   1.00
C6     C     0.68323   0.67698   0.91122   0.00000  Uiso   1.00
C7     C     0.67638   0.82191   0.95755   0.00000  Uiso   1.00
C8     C     0.64239   0.78964   0.02192   0.00000  Uiso   1.00
C9     C     0.59159   0.80776   0.13279   0.00000  Uiso   1.00
C10    C     0.77600   0.53819   0.83989   0.00000  Uiso   1.00
C11    C     0.84716   0.56643   0.82628   0.00000  Uiso   1.00
C12    C     0.89129   0.41732   0.83061   0.00000  Uiso   1.00
C13    C     0.98453   0.21994   0.83074   0.00000  Uiso   1.00
C14    C     0.67035   0.36707   0.87007   0.00000  Uiso   1.00
C15    C     0.63715   0.44409   0.80251   0.00000  Uiso   1.00
C16    C     0.58640   0.35965   0.76084   0.00000  Uiso   1.00
C17    C     0.56272   0.45250   0.70113   0.00000  Uiso   1.00
C18    C     0.65706   0.50589   0.92857   0.00000  Uiso   1.00
C19    C     0.62308   0.47339   0.99289   0.00000  Uiso   1.00
C20    C     0.61617   0.61824   0.03930   0.00000  Uiso   1.00
C21    C     0.74984   0.36709   0.85724   0.00000  Uiso   1.00
C22    C     0.79386   0.21791   0.86161   0.00000  Uiso   1.00
C23    C     0.86507   0.24591   0.84800   0.00000  Uiso   1.00
H24    H     0.73889   0.81528   0.82462   0.00000  Uiso   1.00
H25    H     0.65996   0.84059   0.71210   0.00000  Uiso   1.00
H26    H     0.69664   0.95430   0.94411   0.00000  Uiso   1.00
H27    H     0.86739   0.69885   0.81285   0.00000  Uiso   1.00
H28    H     0.56089   0.79322   0.59501   0.00000  Uiso   1.00
H29    H     0.63825   0.03297   0.08423   0.00000  Uiso   1.00
H30    H     0.99832   0.49431   0.80745   0.00000  Uiso   1.00
H31    H     0.64998   0.23385   0.88358   0.00000  Uiso   1.00
H32    H     0.56617   0.22725   0.77428   0.00000  Uiso   1.00
H33    H     0.60284   0.34097   0.00630   0.00000  Uiso   1.00
H34    H     0.77360   0.08552   0.87504   0.00000  Uiso   1.00
H35    H     0.48476   0.29542   0.64548   0.00000  Uiso   1.00
H36    H     0.56212   0.53517   0.13471   0.00000  Uiso   1.00
H37    H     0.92220   0.99651   0.85792   0.00000  Uiso   1.00
O38    O     0.46928   0.55049   0.54730   0.00000  Uiso   1.00
O39    O     0.57079   0.86503   0.18914   0.00000  Uiso   1.00
O40    O     0.04319   0.15833   0.82601   0.00000  Uiso   1.00
N41    N     0.55449   0.67695   0.62188   0.00000  Uiso   1.00
N42    N     0.62680   0.90111   0.07927   0.00000  Uiso   1.00
N43    N     0.96344   0.39753   0.82052   0.00000  Uiso   1.00
N44    N     0.51352   0.40909   0.64904   0.00000  Uiso   1.00
N45    N     0.58584   0.63325   0.10643   0.00000  Uiso   1.00
N46    N     0.92248   0.12966   0.84768   0.00000  Uiso   1.00
C47    C     0.78148   0.31793   0.33812   0.00000  Uiso   1.00
C48    C     0.83669   0.38481   0.28516   0.00000  Uiso   1.00
C49    C     0.86030   0.29183   0.22550   0.00000  Uiso   1.00
C50    C     0.91107   0.37609   0.18375   0.00000  Uiso   1.00
C51    C     0.99284   0.45388   0.09889   0.00000  Uiso   1.00
C52    C     0.81677   0.32302   0.41122   0.00000  Uiso   1.00
C53    C     0.82362   0.17809   0.45755   0.00000  Uiso   1.00
C54    C     0.85761   0.21036   0.52192   0.00000  Uiso   1.00
C55    C     0.90841   0.19224   0.63279   0.00000  Uiso   1.00
C56    C     0.72400   0.46181   0.33989   0.00000  Uiso   1.00
C57    C     0.65284   0.43357   0.32628   0.00000  Uiso   1.00
C58    C     0.60871   0.58268   0.33061   0.00000  Uiso   1.00
C59    C     0.51547   0.78006   0.33074   0.00000  Uiso   1.00
C60    C     0.82965   0.63293   0.37007   0.00000  Uiso   1.00
C61    C     0.86285   0.55591   0.30251   0.00000  Uiso   1.00
C62    C     0.91360   0.64035   0.26084   0.00000  Uiso   1.00
C63    C     0.93728   0.54750   0.20113   0.00000  Uiso   1.00
C64    C     0.84294   0.49411   0.42857   0.00000  Uiso   1.00
C65    C     0.87692   0.52661   0.49289   0.00000  Uiso   1.00
C66    C     0.88383   0.38176   0.53930   0.00000  Uiso   1.00
C67    C     0.75016   0.63291   0.35724   0.00000  Uiso   1.00
C68    C     0.70614   0.78209   0.36161   0.00000  Uiso   1.00
C69    C     0.63493   0.75409   0.34800   0.00000  Uiso   1.00
H70    H     0.76111   0.18472   0.32462   0.00000  Uiso   1.00
H71    H     0.84004   0.15941   0.21210   0.00000  Uiso   1.00
H72    H     0.80336   0.04570   0.44411   0.00000  Uiso   1.00
H73    H     0.63261   0.30115   0.31285   0.00000  Uiso   1.00
H74    H     0.93911   0.20678   0.09501   0.00000  Uiso   1.00
H75    H     0.86175   0.96703   0.58423   0.00000  Uiso   1.00
H76    H     0.50168   0.50569   0.30745   0.00000  Uiso   1.00
H77    H     0.85002   0.76615   0.38358   0.00000  Uiso   1.00
H78    H     0.93383   0.77275   0.27428   0.00000  Uiso   1.00
H79    H     0.89716   0.65903   0.50630   0.00000  Uiso   1.00
H80    H     0.72640   0.91448   0.37504   0.00000  Uiso   1.00
H81    H     0.01524   0.70458   0.14548   0.00000  Uiso   1.00
H82    H     0.93788   0.46483   0.63471   0.00000  Uiso   1.00
H83    H     0.57780   0.00349   0.35792   0.00000  Uiso   1.00
O84    O     0.03072   0.44951   0.04730   0.00000  Uiso   1.00
O85    O     0.92921   0.13497   0.68914   0.00000  Uiso   1.00
O86    O     0.45681   0.84167   0.32601   0.00000  Uiso   1.00
N87    N     0.94551   0.32305   0.12188   0.00000  Uiso   1.00
N88    N     0.87320   0.09889   0.57927   0.00000  Uiso   1.00
N89    N     0.53656   0.60247   0.32052   0.00000  Uiso   1.00
N90    N     0.98648   0.59091   0.14904   0.00000  Uiso   1.00
N91    N     0.91416   0.36675   0.60643   0.00000  Uiso   1.00
N92    N     0.57752   0.87034   0.34768   0.00000  Uiso   1.00
C93    C     0.28148   0.18207   0.66188   0.00000  Uiso   1.00
C94    C     0.33669   0.11519   0.71484   0.00000  Uiso   1.00
C95    C     0.36030   0.20817   0.77450   0.00000  Uiso   1.00
C96    C     0.41107   0.12391   0.81625   0.00000  Uiso   1.00
C97    C     0.49284   0.04612   0.90111   0.00000  Uiso   1.00
C98    C     0.31677   0.17698   0.58878   0.00000  Uiso   1.00
C99    C     0.32362   0.32191   0.54245   0.00000  Uiso   1.00
C100   C     0.35761   0.28964   0.47808   0.00000  Uiso   1.00
C101   C     0.40841   0.30776   0.36721   0.00000  Uiso   1.00
C102   C     0.22400   0.03819   0.66011   0.00000  Uiso   1.00
C103   C     0.15284   0.06643   0.67372   0.00000  Uiso   1.00
C104   C     0.10871   0.91732   0.66939   0.00000  Uiso   1.00
C105   C     0.01547   0.71994   0.66926   0.00000  Uiso   1.00
C106   C     0.32965   0.86707   0.62993   0.00000  Uiso   1.00
C107   C     0.36285   0.94409   0.69749   0.00000  Uiso   1.00
C108   C     0.41360   0.85965   0.73916   0.00000  Uiso   1.00
C109   C     0.43728   0.95250   0.79887   0.00000  Uiso   1.00
C110   C     0.34294   0.00589   0.57143   0.00000  Uiso   1.00
C111   C     0.37692   0.97339   0.50711   0.00000  Uiso   1.00
C112   C     0.38383   0.11824   0.46070   0.00000  Uiso   1.00
C113   C     0.25016   0.86709   0.64276   0.00000  Uiso   1.00
C114   C     0.20614   0.71791   0.63839   0.00000  Uiso   1.00
C115   C     0.13493   0.74591   0.65200   0.00000  Uiso   1.00
H116   H     0.26111   0.31528   0.67538   0.00000  Uiso   1.00
H117   H     0.34004   0.34059   0.78790   0.00000  Uiso   1.00
H118   H     0.30336   0.45430   0.55589   0.00000  Uiso   1.00
H119   H     0.13261   0.19885   0.68715   0.00000  Uiso   1.00
H120   H     0.43911   0.29322   0.90499   0.00000  Uiso   1.00
H121   H     0.36175   0.53297   0.41577   0.00000  Uiso   1.00
H122   H     0.00168   0.99431   0.69255   0.00000  Uiso   1.00
H123   H     0.35002   0.73385   0.61642   0.00000  Uiso   1.00
H124   H     0.43383   0.72725   0.72572   0.00000  Uiso   1.00
H125   H     0.39716   0.84097   0.49370   0.00000  Uiso   1.00
H126   H     0.22640   0.58552   0.62496   0.00000  Uiso   1.00
H127   H     0.51524   0.79542   0.85452   0.00000  Uiso   1.00
H128   H     0.43788   0.03517   0.36529   0.00000  Uiso   1.00
H129   H     0.07780   0.49651   0.64208   0.00000  Uiso   1.00
O130   O     0.53072   0.05049   0.95270   0.00000  Uiso   1.00
O131   O     0.42921   0.36503   0.31086   0.00000  Uiso   1.00
O132   O     0.95681   0.65833   0.67399   0.00000  Uiso   1.00
N133   N     0.44551   0.17695   0.87812   0.00000  Uiso   1.00
N134   N     0.37320   0.40111   0.42073   0.00000  Uiso   1.00
N135   N     0.03656   0.89753   0.67948   0.00000  Uiso   1.00
N136   N     0.48648   0.90909   0.85096   0.00000  Uiso   1.00
N137   N     0.41416   0.13325   0.39357   0.00000  Uiso   1.00
N138   N     0.07752   0.62966   0.65232   0.00000  Uiso   1.00
C139   C     0.21852   0.81793   0.16188   0.00000  Uiso   1.00
C140   C     0.16331   0.88481   0.21484   0.00000  Uiso   1.00
C141   C     0.13970   0.79183   0.27450   0.00000  Uiso   1.00
C142   C     0.08893   0.87609   0.31625   0.00000  Uiso   1.00
C143   C     0.00716   0.95388   0.40111   0.00000  Uiso   1.00
C144   C     0.18323   0.82302   0.08878   0.00000  Uiso   1.00
C145   C     0.17638   0.67809   0.04245   0.00000  Uiso   1.00
C146   C     0.14239   0.71036   0.97808   0.00000  Uiso   1.00
C147   C     0.09159   0.69224   0.86721   0.00000  Uiso   1.00
C148   C     0.27600   0.96181   0.16011   0.00000  Uiso   1.00
C149   C     0.34716   0.93357   0.17372   0.00000  Uiso   1.00
C150   C     0.39129   0.08268   0.16939   0.00000  Uiso   1.00
C151   C     0.48453   0.28006   0.16926   0.00000  Uiso   1.00
C152   C     0.17035   0.13293   0.12993   0.00000  Uiso   1.00
C153   C     0.13715   0.05591   0.19749   0.00000  Uiso   1.00
C154   C     0.08640   0.14035   0.23916   0.00000  Uiso   1.00
C155   C     0.06272   0.04750   0.29887   0.00000  Uiso   1.00
C156   C     0.15706   0.99411   0.07143   0.00000  Uiso   1.00
C157   C     0.12308   0.02661   0.00711   0.00000  Uiso   1.00
C158   C     0.11617   0.88176   0.96070   0.00000  Uiso   1.00
C159   C     0.24984   0.13291   0.14276   0.00000  Uiso   1.00
C160   C     0.29386   0.28209   0.13839   0.00000  Uiso   1.00
C161   C     0.36507   0.25409   0.15200   0.00000  Uiso   1.00
H162   H     0.23889   0.68472   0.17538   0.00000  Uiso   1.00
H163   H     0.15996   0.65941   0.28790   0.00000  Uiso   1.00
H164   H     0.19664   0.54570   0.05589   0.00000  Uiso   1.00
H165   H     0.36739   0.80115   0.18715   0.00000  Uiso   1.00
H166   H     0.06089   0.70678   0.40499   0.00000  Uiso   1.00
H167   H     0.13825   0.46703   0.91577   0.00000  Uiso   1.00
H168   H     0.49832   0.00569   0.19255   0.00000  Uiso   1.00
H169   H     0.14998   0.26615   0.11642   0.00000  Uiso   1.00
H170   H     0.06617   0.27275   0.22572   0.00000  Uiso   1.00
H171   H     0.10284   0.15903   0.99370   0.00000  Uiso   1.00
H172   H     0.27360   0.41448   0.12496   0.00000  Uiso   1.00
H173   H     0.98476   0.20458   0.35452   0.00000  Uiso   1.00
H174   H     0.06212   0.96483   0.86529   0.00000  Uiso   1.00
H175   H     0.42220   0.50349   0.14208   0.00000  Uiso   1.00
O176   O     0.96928   0.94951   0.45270   0.00000  Uiso   1.00
O177   O     0.07079   0.63497   0.81086   0.00000  Uiso   1.00
O178   O     0.54319   0.34167   0.17399   0.00000  Uiso   1.00
N179   N     0.05449   0.82305   0.37812   0.00000  Uiso   1.00
N180   N     0.12680   0.59889   0.92073   0.00000  Uiso   1.00
N181   N     0.46344   0.10247   0.17948   0.00000  Uiso   1.00
N182   N     0.01352   0.09091   0.35096   0.00000  Uiso   1.00
N183   N     0.08584   0.86675   0.89357   0.00000  Uiso   1.00
N184   N     0.42248   0.37034   0.15232   0.00000  Uiso   1.00
