data_job_03527
_audit_creation_date              2018-12-19
_audit_creation_method            'Materials Studio'
_symmetry_space_group_name_H-M    'P1'
_symmetry_Int_Tables_number       1
_symmetry_cell_setting            triclinic
loop_
_symmetry_equiv_pos_as_xyz
  x,y,z
_cell_length_a                    14.9222
_cell_length_b                    21.1588
_cell_length_c                    16.2031
_cell_angle_alpha                 90.0000
_cell_angle_beta                  90.0000
_cell_angle_gamma                 90.0000
loop_
_atom_site_label
_atom_site_type_symbol
_atom_site_fract_x
_atom_site_fract_y
_atom_site_fract_z
_atom_site_U_iso_or_equiv
_atom_site_adp_type
_atom_site_occupancy
C1     C     0.66455   0.77876   0.48446   0.00000  Uiso   1.00
C2     C     0.59357   0.72757   0.47372   0.00000  Uiso   1.00
C3     C     0.60940   0.66575   0.44911   0.00000  Uiso   1.00
C4     C     0.53548   0.62618   0.44297   0.00000  Uiso   1.00
C5     C     0.43843   0.54342   0.42354   0.00000  Uiso   1.00
C6     C     0.63571   0.83347   0.42924   0.00000  Uiso   1.00
C7     C     0.68700   0.86069   0.36725   0.00000  Uiso   1.00
C8     C     0.64856   0.91027   0.32368   0.00000  Uiso   1.00
C9     C     0.61698   0.99195   0.23524   0.00000  Uiso   1.00
C10    C     0.65510   0.80243   0.57293   0.00000  Uiso   1.00
C11    C     0.72269   0.80356   0.63174   0.00000  Uiso   1.00
C12    C     0.70059   0.82702   0.70914   0.00000  Uiso   1.00
C13    C     0.69911   0.86051   0.84379   0.00000  Uiso   1.00
C14    C     0.50511   0.81842   0.51732   0.00000  Uiso   1.00
C15    C     0.50697   0.74912   0.49156   0.00000  Uiso   1.00
C16    C     0.43301   0.70963   0.48546   0.00000  Uiso   1.00
C17    C     0.44873   0.64775   0.46085   0.00000  Uiso   1.00
C18    C     0.54912   0.85501   0.44709   0.00000  Uiso   1.00
C19    C     0.51060   0.90456   0.40360   0.00000  Uiso   1.00
C20    C     0.56181   0.93185   0.34156   0.00000  Uiso   1.00
C21    C     0.56851   0.82397   0.59077   0.00000  Uiso   1.00
C22    C     0.54630   0.84743   0.66809   0.00000  Uiso   1.00
C23    C     0.61384   0.84860   0.72702   0.00000  Uiso   1.00
H24    H     0.73197   0.76200   0.47056   0.00000  Uiso   1.00
H25    H     0.67643   0.64910   0.43530   0.00000  Uiso   1.00
H26    H     0.75401   0.84401   0.35346   0.00000  Uiso   1.00
H27    H     0.78970   0.78689   0.61791   0.00000  Uiso   1.00
H28    H     0.57666   0.53344   0.40405   0.00000  Uiso   1.00
H29    H     0.74026   0.94443   0.23150   0.00000  Uiso   1.00
H30    H     0.81552   0.82399   0.78914   0.00000  Uiso   1.00
H31    H     0.43769   0.83519   0.53121   0.00000  Uiso   1.00
H32    H     0.36600   0.72631   0.49928   0.00000  Uiso   1.00
H33    H     0.44359   0.92122   0.41743   0.00000  Uiso   1.00
H34    H     0.47928   0.86410   0.68188   0.00000  Uiso   1.00
H35    H     0.32470   0.59610   0.45597   0.00000  Uiso   1.00
H36    H     0.48831   0.00710   0.28342   0.00000  Uiso   1.00
H37    H     0.56356   0.88665   0.84106   0.00000  Uiso   1.00
O38    O     0.40882   0.49183   0.40788   0.00000  Uiso   1.00
O39    O     0.62348   0.03105   0.18152   0.00000  Uiso   1.00
O40    O     0.72221   0.87302   0.91313   0.00000  Uiso   1.00
N41    N     0.52720   0.56313   0.42066   0.00000  Uiso   1.00
N42    N     0.68016   0.94738   0.25934   0.00000  Uiso   1.00
N43    N     0.75052   0.83478   0.78068   0.00000  Uiso   1.00
N44    N     0.39162   0.59685   0.44860   0.00000  Uiso   1.00
N45    N     0.54458   0.98110   0.28728   0.00000  Uiso   1.00
N46    N     0.61495   0.86850   0.80862   0.00000  Uiso   1.00
C47    C     0.83545   0.22124   0.48446   0.00000  Uiso   1.00
C48    C     0.90643   0.27243   0.47372   0.00000  Uiso   1.00
C49    C     0.89060   0.33425   0.44911   0.00000  Uiso   1.00
C50    C     0.96452   0.37382   0.44297   0.00000  Uiso   1.00
C51    C     0.06157   0.45658   0.42354   0.00000  Uiso   1.00
C52    C     0.86429   0.16653   0.42924   0.00000  Uiso   1.00
C53    C     0.81300   0.13931   0.36725   0.00000  Uiso   1.00
C54    C     0.85144   0.08973   0.32368   0.00000  Uiso   1.00
C55    C     0.88302   0.00805   0.23524   0.00000  Uiso   1.00
C56    C     0.84490   0.19757   0.57293   0.00000  Uiso   1.00
C57    C     0.77731   0.19644   0.63174   0.00000  Uiso   1.00
C58    C     0.79941   0.17298   0.70914   0.00000  Uiso   1.00
C59    C     0.80089   0.13949   0.84379   0.00000  Uiso   1.00
C60    C     0.99489   0.18158   0.51732   0.00000  Uiso   1.00
C61    C     0.99303   0.25088   0.49156   0.00000  Uiso   1.00
C62    C     0.06699   0.29037   0.48546   0.00000  Uiso   1.00
C63    C     0.05127   0.35225   0.46085   0.00000  Uiso   1.00
C64    C     0.95088   0.14499   0.44709   0.00000  Uiso   1.00
C65    C     0.98940   0.09544   0.40360   0.00000  Uiso   1.00
C66    C     0.93819   0.06815   0.34156   0.00000  Uiso   1.00
C67    C     0.93149   0.17603   0.59077   0.00000  Uiso   1.00
C68    C     0.95370   0.15257   0.66809   0.00000  Uiso   1.00
C69    C     0.88616   0.15140   0.72702   0.00000  Uiso   1.00
H70    H     0.76803   0.23800   0.47056   0.00000  Uiso   1.00
H71    H     0.82357   0.35090   0.43530   0.00000  Uiso   1.00
H72    H     0.74599   0.15599   0.35346   0.00000  Uiso   1.00
H73    H     0.71030   0.21311   0.61791   0.00000  Uiso   1.00
H74    H     0.92334   0.46656   0.40405   0.00000  Uiso   1.00
H75    H     0.75974   0.05557   0.23150   0.00000  Uiso   1.00
H76    H     0.68448   0.17601   0.78914   0.00000  Uiso   1.00
H77    H     0.06231   0.16481   0.53121   0.00000  Uiso   1.00
H78    H     0.13400   0.27369   0.49928   0.00000  Uiso   1.00
H79    H     0.05641   0.07878   0.41743   0.00000  Uiso   1.00
H80    H     0.02072   0.13590   0.68188   0.00000  Uiso   1.00
H81    H     0.17530   0.40390   0.45597   0.00000  Uiso   1.00
H82    H     0.01169   0.99290   0.28342   0.00000  Uiso   1.00
H83    H     0.93644   0.11335   0.84106   0.00000  Uiso   1.00
O84    O     0.09118   0.50817   0.40788   0.00000  Uiso   1.00
O85    O     0.87652   0.96895   0.18152   0.00000  Uiso   1.00
O86    O     0.77779   0.12698   0.91313   0.00000  Uiso   1.00
N87    N     0.97280   0.43687   0.42066   0.00000  Uiso   1.00
N88    N     0.81984   0.05262   0.25934   0.00000  Uiso   1.00
N89    N     0.74948   0.16522   0.78068   0.00000  Uiso   1.00
N90    N     0.10838   0.40315   0.44860   0.00000  Uiso   1.00
N91    N     0.95542   0.01890   0.28728   0.00000  Uiso   1.00
N92    N     0.88505   0.13150   0.80862   0.00000  Uiso   1.00
C93    C     0.83545   0.27876   0.01554   0.00000  Uiso   1.00
C94    C     0.90643   0.22757   0.02628   0.00000  Uiso   1.00
C95    C     0.89060   0.16575   0.05089   0.00000  Uiso   1.00
C96    C     0.96452   0.12618   0.05703   0.00000  Uiso   1.00
C97    C     0.06157   0.04342   0.07646   0.00000  Uiso   1.00
C98    C     0.86429   0.33347   0.07076   0.00000  Uiso   1.00
C99    C     0.81300   0.36069   0.13275   0.00000  Uiso   1.00
C100   C     0.85144   0.41027   0.17632   0.00000  Uiso   1.00
C101   C     0.88302   0.49195   0.26476   0.00000  Uiso   1.00
C102   C     0.84490   0.30243   0.92707   0.00000  Uiso   1.00
C103   C     0.77731   0.30356   0.86826   0.00000  Uiso   1.00
C104   C     0.79941   0.32702   0.79086   0.00000  Uiso   1.00
C105   C     0.80089   0.36051   0.65621   0.00000  Uiso   1.00
C106   C     0.99489   0.31842   0.98268   0.00000  Uiso   1.00
C107   C     0.99303   0.24912   0.00844   0.00000  Uiso   1.00
C108   C     0.06699   0.20963   0.01454   0.00000  Uiso   1.00
C109   C     0.05127   0.14775   0.03915   0.00000  Uiso   1.00
C110   C     0.95088   0.35501   0.05291   0.00000  Uiso   1.00
C111   C     0.98940   0.40456   0.09640   0.00000  Uiso   1.00
C112   C     0.93819   0.43185   0.15844   0.00000  Uiso   1.00
C113   C     0.93149   0.32397   0.90923   0.00000  Uiso   1.00
C114   C     0.95370   0.34743   0.83191   0.00000  Uiso   1.00
C115   C     0.88616   0.34860   0.77298   0.00000  Uiso   1.00
H116   H     0.76803   0.26200   0.02944   0.00000  Uiso   1.00
H117   H     0.82357   0.14910   0.06470   0.00000  Uiso   1.00
H118   H     0.74599   0.34401   0.14654   0.00000  Uiso   1.00
H119   H     0.71030   0.28689   0.88209   0.00000  Uiso   1.00
H120   H     0.92334   0.03344   0.09595   0.00000  Uiso   1.00
H121   H     0.75974   0.44443   0.26850   0.00000  Uiso   1.00
H122   H     0.68448   0.32399   0.71086   0.00000  Uiso   1.00
H123   H     0.06231   0.33519   0.96879   0.00000  Uiso   1.00
H124   H     0.13400   0.22631   0.00072   0.00000  Uiso   1.00
H125   H     0.05641   0.42122   0.08257   0.00000  Uiso   1.00
H126   H     0.02072   0.36410   0.81812   0.00000  Uiso   1.00
H127   H     0.17530   0.09610   0.04403   0.00000  Uiso   1.00
H128   H     0.01169   0.50710   0.21658   0.00000  Uiso   1.00
H129   H     0.93644   0.38665   0.65894   0.00000  Uiso   1.00
O130   O     0.09118   0.99183   0.09212   0.00000  Uiso   1.00
O131   O     0.87652   0.53105   0.31848   0.00000  Uiso   1.00
O132   O     0.77779   0.37302   0.58687   0.00000  Uiso   1.00
N133   N     0.97280   0.06313   0.07934   0.00000  Uiso   1.00
N134   N     0.81984   0.44738   0.24066   0.00000  Uiso   1.00
N135   N     0.74948   0.33478   0.71932   0.00000  Uiso   1.00
N136   N     0.10838   0.09685   0.05140   0.00000  Uiso   1.00
N137   N     0.95542   0.48110   0.21272   0.00000  Uiso   1.00
N138   N     0.88505   0.36850   0.69138   0.00000  Uiso   1.00
C139   C     0.66455   0.72124   0.01554   0.00000  Uiso   1.00
C140   C     0.59357   0.77243   0.02628   0.00000  Uiso   1.00
C141   C     0.60940   0.83425   0.05089   0.00000  Uiso   1.00
C142   C     0.53548   0.87382   0.05703   0.00000  Uiso   1.00
C143   C     0.43843   0.95658   0.07646   0.00000  Uiso   1.00
C144   C     0.63571   0.66653   0.07076   0.00000  Uiso   1.00
C145   C     0.68700   0.63931   0.13275   0.00000  Uiso   1.00
C146   C     0.64856   0.58973   0.17632   0.00000  Uiso   1.00
C147   C     0.61698   0.50805   0.26476   0.00000  Uiso   1.00
C148   C     0.65510   0.69757   0.92707   0.00000  Uiso   1.00
C149   C     0.72269   0.69644   0.86826   0.00000  Uiso   1.00
C150   C     0.70059   0.67298   0.79086   0.00000  Uiso   1.00
C151   C     0.69911   0.63949   0.65621   0.00000  Uiso   1.00
C152   C     0.50511   0.68158   0.98268   0.00000  Uiso   1.00
C153   C     0.50697   0.75088   0.00844   0.00000  Uiso   1.00
C154   C     0.43301   0.79037   0.01454   0.00000  Uiso   1.00
C155   C     0.44873   0.85225   0.03915   0.00000  Uiso   1.00
C156   C     0.54912   0.64499   0.05291   0.00000  Uiso   1.00
C157   C     0.51060   0.59544   0.09640   0.00000  Uiso   1.00
C158   C     0.56181   0.56815   0.15844   0.00000  Uiso   1.00
C159   C     0.56851   0.67603   0.90923   0.00000  Uiso   1.00
C160   C     0.54630   0.65257   0.83191   0.00000  Uiso   1.00
C161   C     0.61384   0.65140   0.77298   0.00000  Uiso   1.00
H162   H     0.73197   0.73800   0.02944   0.00000  Uiso   1.00
H163   H     0.67643   0.85090   0.06470   0.00000  Uiso   1.00
H164   H     0.75401   0.65599   0.14654   0.00000  Uiso   1.00
H165   H     0.78970   0.71311   0.88209   0.00000  Uiso   1.00
H166   H     0.57666   0.96656   0.09595   0.00000  Uiso   1.00
H167   H     0.74026   0.55557   0.26850   0.00000  Uiso   1.00
H168   H     0.81552   0.67601   0.71086   0.00000  Uiso   1.00
H169   H     0.43769   0.66481   0.96879   0.00000  Uiso   1.00
H170   H     0.36600   0.77369   0.00072   0.00000  Uiso   1.00
H171   H     0.44359   0.57878   0.08257   0.00000  Uiso   1.00
H172   H     0.47928   0.63590   0.81812   0.00000  Uiso   1.00
H173   H     0.32470   0.90390   0.04403   0.00000  Uiso   1.00
H174   H     0.48831   0.49290   0.21658   0.00000  Uiso   1.00
H175   H     0.56356   0.61335   0.65894   0.00000  Uiso   1.00
O176   O     0.40882   0.00817   0.09212   0.00000  Uiso   1.00
O177   O     0.62348   0.46895   0.31848   0.00000  Uiso   1.00
O178   O     0.72221   0.62698   0.58687   0.00000  Uiso   1.00
N179   N     0.52720   0.93687   0.07934   0.00000  Uiso   1.00
N180   N     0.68016   0.55262   0.24066   0.00000  Uiso   1.00
N181   N     0.75052   0.66522   0.71932   0.00000  Uiso   1.00
N182   N     0.39162   0.90315   0.05140   0.00000  Uiso   1.00
N183   N     0.54458   0.51890   0.21272   0.00000  Uiso   1.00
N184   N     0.61495   0.63150   0.69138   0.00000  Uiso   1.00
C185   C     0.33545   0.22124   0.51554   0.00000  Uiso   1.00
C186   C     0.40643   0.27243   0.52628   0.00000  Uiso   1.00
C187   C     0.39060   0.33425   0.55089   0.00000  Uiso   1.00
C188   C     0.46452   0.37382   0.55703   0.00000  Uiso   1.00
C189   C     0.56157   0.45658   0.57646   0.00000  Uiso   1.00
C190   C     0.36429   0.16653   0.57076   0.00000  Uiso   1.00
C191   C     0.31300   0.13931   0.63275   0.00000  Uiso   1.00
C192   C     0.35144   0.08973   0.67632   0.00000  Uiso   1.00
C193   C     0.38302   0.00805   0.76476   0.00000  Uiso   1.00
C194   C     0.34490   0.19757   0.42707   0.00000  Uiso   1.00
C195   C     0.27731   0.19644   0.36826   0.00000  Uiso   1.00
C196   C     0.29941   0.17298   0.29086   0.00000  Uiso   1.00
C197   C     0.30089   0.13949   0.15621   0.00000  Uiso   1.00
C198   C     0.49489   0.18158   0.48268   0.00000  Uiso   1.00
C199   C     0.49303   0.25088   0.50844   0.00000  Uiso   1.00
C200   C     0.56699   0.29037   0.51454   0.00000  Uiso   1.00
C201   C     0.55127   0.35225   0.53915   0.00000  Uiso   1.00
C202   C     0.45088   0.14499   0.55291   0.00000  Uiso   1.00
C203   C     0.48940   0.09544   0.59640   0.00000  Uiso   1.00
C204   C     0.43819   0.06815   0.65844   0.00000  Uiso   1.00
C205   C     0.43149   0.17603   0.40923   0.00000  Uiso   1.00
C206   C     0.45370   0.15257   0.33191   0.00000  Uiso   1.00
C207   C     0.38616   0.15140   0.27298   0.00000  Uiso   1.00
H208   H     0.26803   0.23800   0.52944   0.00000  Uiso   1.00
H209   H     0.32357   0.35090   0.56470   0.00000  Uiso   1.00
H210   H     0.24599   0.15599   0.64654   0.00000  Uiso   1.00
H211   H     0.21030   0.21311   0.38209   0.00000  Uiso   1.00
H212   H     0.42334   0.46656   0.59595   0.00000  Uiso   1.00
H213   H     0.25974   0.05557   0.76850   0.00000  Uiso   1.00
H214   H     0.18448   0.17601   0.21086   0.00000  Uiso   1.00
H215   H     0.56231   0.16481   0.46879   0.00000  Uiso   1.00
H216   H     0.63400   0.27369   0.50072   0.00000  Uiso   1.00
H217   H     0.55641   0.07878   0.58257   0.00000  Uiso   1.00
H218   H     0.52072   0.13590   0.31812   0.00000  Uiso   1.00
H219   H     0.67530   0.40390   0.54403   0.00000  Uiso   1.00
H220   H     0.51169   0.99290   0.71658   0.00000  Uiso   1.00
H221   H     0.43644   0.11335   0.15894   0.00000  Uiso   1.00
O222   O     0.59118   0.50817   0.59212   0.00000  Uiso   1.00
O223   O     0.37652   0.96895   0.81848   0.00000  Uiso   1.00
O224   O     0.27779   0.12698   0.08687   0.00000  Uiso   1.00
N225   N     0.47280   0.43687   0.57934   0.00000  Uiso   1.00
N226   N     0.31984   0.05262   0.74066   0.00000  Uiso   1.00
N227   N     0.24948   0.16522   0.21932   0.00000  Uiso   1.00
N228   N     0.60838   0.40315   0.55140   0.00000  Uiso   1.00
N229   N     0.45542   0.01890   0.71272   0.00000  Uiso   1.00
N230   N     0.38505   0.13150   0.19138   0.00000  Uiso   1.00
C231   C     0.16455   0.77876   0.51554   0.00000  Uiso   1.00
C232   C     0.09357   0.72757   0.52628   0.00000  Uiso   1.00
C233   C     0.10940   0.66575   0.55089   0.00000  Uiso   1.00
C234   C     0.03548   0.62618   0.55703   0.00000  Uiso   1.00
C235   C     0.93843   0.54342   0.57646   0.00000  Uiso   1.00
C236   C     0.13571   0.83347   0.57076   0.00000  Uiso   1.00
C237   C     0.18700   0.86069   0.63275   0.00000  Uiso   1.00
C238   C     0.14856   0.91027   0.67632   0.00000  Uiso   1.00
C239   C     0.11698   0.99195   0.76476   0.00000  Uiso   1.00
C240   C     0.15510   0.80243   0.42707   0.00000  Uiso   1.00
C241   C     0.22269   0.80356   0.36826   0.00000  Uiso   1.00
C242   C     0.20059   0.82702   0.29086   0.00000  Uiso   1.00
C243   C     0.19911   0.86051   0.15621   0.00000  Uiso   1.00
C244   C     0.00511   0.81842   0.48268   0.00000  Uiso   1.00
C245   C     0.00697   0.74912   0.50844   0.00000  Uiso   1.00
C246   C     0.93301   0.70963   0.51454   0.00000  Uiso   1.00
C247   C     0.94873   0.64775   0.53915   0.00000  Uiso   1.00
C248   C     0.04912   0.85501   0.55291   0.00000  Uiso   1.00
C249   C     0.01060   0.90456   0.59640   0.00000  Uiso   1.00
C250   C     0.06181   0.93185   0.65844   0.00000  Uiso   1.00
C251   C     0.06851   0.82397   0.40923   0.00000  Uiso   1.00
C252   C     0.04630   0.84743   0.33191   0.00000  Uiso   1.00
C253   C     0.11384   0.84860   0.27298   0.00000  Uiso   1.00
H254   H     0.23197   0.76200   0.52944   0.00000  Uiso   1.00
H255   H     0.17643   0.64910   0.56470   0.00000  Uiso   1.00
H256   H     0.25401   0.84401   0.64654   0.00000  Uiso   1.00
H257   H     0.28970   0.78689   0.38209   0.00000  Uiso   1.00
H258   H     0.07666   0.53344   0.59595   0.00000  Uiso   1.00
H259   H     0.24026   0.94443   0.76850   0.00000  Uiso   1.00
H260   H     0.31552   0.82399   0.21086   0.00000  Uiso   1.00
H261   H     0.93769   0.83519   0.46879   0.00000  Uiso   1.00
H262   H     0.86600   0.72631   0.50072   0.00000  Uiso   1.00
H263   H     0.94359   0.92122   0.58257   0.00000  Uiso   1.00
H264   H     0.97928   0.86410   0.31812   0.00000  Uiso   1.00
H265   H     0.82470   0.59610   0.54403   0.00000  Uiso   1.00
H266   H     0.98831   0.00710   0.71658   0.00000  Uiso   1.00
H267   H     0.06356   0.88665   0.15894   0.00000  Uiso   1.00
O268   O     0.90882   0.49183   0.59212   0.00000  Uiso   1.00
O269   O     0.12348   0.03105   0.81848   0.00000  Uiso   1.00
O270   O     0.22221   0.87302   0.08687   0.00000  Uiso   1.00
N271   N     0.02720   0.56313   0.57934   0.00000  Uiso   1.00
N272   N     0.18016   0.94738   0.74066   0.00000  Uiso   1.00
N273   N     0.25052   0.83478   0.21932   0.00000  Uiso   1.00
N274   N     0.89162   0.59685   0.55140   0.00000  Uiso   1.00
N275   N     0.04458   0.98110   0.71272   0.00000  Uiso   1.00
N276   N     0.11495   0.86850   0.19138   0.00000  Uiso   1.00
C277   C     0.16455   0.72124   0.98446   0.00000  Uiso   1.00
C278   C     0.09357   0.77243   0.97372   0.00000  Uiso   1.00
C279   C     0.10940   0.83425   0.94911   0.00000  Uiso   1.00
C280   C     0.03548   0.87382   0.94297   0.00000  Uiso   1.00
C281   C     0.93843   0.95658   0.92354   0.00000  Uiso   1.00
C282   C     0.13571   0.66653   0.92924   0.00000  Uiso   1.00
C283   C     0.18700   0.63931   0.86725   0.00000  Uiso   1.00
C284   C     0.14856   0.58973   0.82368   0.00000  Uiso   1.00
C285   C     0.11698   0.50805   0.73524   0.00000  Uiso   1.00
C286   C     0.15510   0.69757   0.07293   0.00000  Uiso   1.00
C287   C     0.22269   0.69644   0.13174   0.00000  Uiso   1.00
C288   C     0.20059   0.67298   0.20914   0.00000  Uiso   1.00
C289   C     0.19911   0.63949   0.34379   0.00000  Uiso   1.00
C290   C     0.00511   0.68158   0.01732   0.00000  Uiso   1.00
C291   C     0.00697   0.75088   0.99156   0.00000  Uiso   1.00
C292   C     0.93301   0.79037   0.98546   0.00000  Uiso   1.00
C293   C     0.94873   0.85225   0.96085   0.00000  Uiso   1.00
C294   C     0.04912   0.64499   0.94709   0.00000  Uiso   1.00
C295   C     0.01060   0.59544   0.90360   0.00000  Uiso   1.00
C296   C     0.06181   0.56815   0.84156   0.00000  Uiso   1.00
C297   C     0.06851   0.67603   0.09077   0.00000  Uiso   1.00
C298   C     0.04630   0.65257   0.16809   0.00000  Uiso   1.00
C299   C     0.11384   0.65140   0.22702   0.00000  Uiso   1.00
H300   H     0.23197   0.73800   0.97056   0.00000  Uiso   1.00
H301   H     0.17643   0.85090   0.93530   0.00000  Uiso   1.00
H302   H     0.25401   0.65599   0.85346   0.00000  Uiso   1.00
H303   H     0.28970   0.71311   0.11791   0.00000  Uiso   1.00
H304   H     0.07666   0.96656   0.90405   0.00000  Uiso   1.00
H305   H     0.24026   0.55557   0.73150   0.00000  Uiso   1.00
H306   H     0.31552   0.67601   0.28914   0.00000  Uiso   1.00
H307   H     0.93769   0.66481   0.03121   0.00000  Uiso   1.00
H308   H     0.86600   0.77369   0.99928   0.00000  Uiso   1.00
H309   H     0.94359   0.57878   0.91743   0.00000  Uiso   1.00
H310   H     0.97928   0.63590   0.18188   0.00000  Uiso   1.00
H311   H     0.82470   0.90390   0.95597   0.00000  Uiso   1.00
H312   H     0.98831   0.49290   0.78342   0.00000  Uiso   1.00
H313   H     0.06356   0.61335   0.34106   0.00000  Uiso   1.00
O314   O     0.90882   0.00817   0.90788   0.00000  Uiso   1.00
O315   O     0.12348   0.46895   0.68152   0.00000  Uiso   1.00
O316   O     0.22221   0.62698   0.41313   0.00000  Uiso   1.00
N317   N     0.02720   0.93687   0.92066   0.00000  Uiso   1.00
N318   N     0.18016   0.55262   0.75934   0.00000  Uiso   1.00
N319   N     0.25052   0.66522   0.28068   0.00000  Uiso   1.00
N320   N     0.89162   0.90315   0.94860   0.00000  Uiso   1.00
N321   N     0.04458   0.51890   0.78728   0.00000  Uiso   1.00
N322   N     0.11495   0.63150   0.30862   0.00000  Uiso   1.00
C323   C     0.33545   0.27876   0.98446   0.00000  Uiso   1.00
C324   C     0.40643   0.22757   0.97372   0.00000  Uiso   1.00
C325   C     0.39060   0.16575   0.94911   0.00000  Uiso   1.00
C326   C     0.46452   0.12618   0.94297   0.00000  Uiso   1.00
C327   C     0.56157   0.04342   0.92354   0.00000  Uiso   1.00
C328   C     0.36429   0.33347   0.92924   0.00000  Uiso   1.00
C329   C     0.31300   0.36069   0.86725   0.00000  Uiso   1.00
C330   C     0.35144   0.41027   0.82368   0.00000  Uiso   1.00
C331   C     0.38302   0.49195   0.73524   0.00000  Uiso   1.00
C332   C     0.34490   0.30243   0.07293   0.00000  Uiso   1.00
C333   C     0.27731   0.30356   0.13174   0.00000  Uiso   1.00
C334   C     0.29941   0.32702   0.20914   0.00000  Uiso   1.00
C335   C     0.30089   0.36051   0.34379   0.00000  Uiso   1.00
C336   C     0.49489   0.31842   0.01732   0.00000  Uiso   1.00
C337   C     0.49303   0.24912   0.99156   0.00000  Uiso   1.00
C338   C     0.56699   0.20963   0.98546   0.00000  Uiso   1.00
C339   C     0.55127   0.14775   0.96085   0.00000  Uiso   1.00
C340   C     0.45088   0.35501   0.94709   0.00000  Uiso   1.00
C341   C     0.48940   0.40456   0.90360   0.00000  Uiso   1.00
C342   C     0.43819   0.43185   0.84156   0.00000  Uiso   1.00
C343   C     0.43149   0.32397   0.09077   0.00000  Uiso   1.00
C344   C     0.45370   0.34743   0.16809   0.00000  Uiso   1.00
C345   C     0.38616   0.34860   0.22702   0.00000  Uiso   1.00
H346   H     0.26803   0.26200   0.97056   0.00000  Uiso   1.00
H347   H     0.32357   0.14910   0.93530   0.00000  Uiso   1.00
H348   H     0.24599   0.34401   0.85346   0.00000  Uiso   1.00
H349   H     0.21030   0.28689   0.11791   0.00000  Uiso   1.00
H350   H     0.42334   0.03344   0.90405   0.00000  Uiso   1.00
H351   H     0.25974   0.44443   0.73150   0.00000  Uiso   1.00
H352   H     0.18448   0.32399   0.28914   0.00000  Uiso   1.00
H353   H     0.56231   0.33519   0.03121   0.00000  Uiso   1.00
H354   H     0.63400   0.22631   0.99928   0.00000  Uiso   1.00
H355   H     0.55641   0.42122   0.91743   0.00000  Uiso   1.00
H356   H     0.52072   0.36410   0.18188   0.00000  Uiso   1.00
H357   H     0.67530   0.09610   0.95597   0.00000  Uiso   1.00
H358   H     0.51169   0.50710   0.78342   0.00000  Uiso   1.00
H359   H     0.43644   0.38665   0.34106   0.00000  Uiso   1.00
O360   O     0.59118   0.99183   0.90788   0.00000  Uiso   1.00
O361   O     0.37652   0.53105   0.68152   0.00000  Uiso   1.00
O362   O     0.27779   0.37302   0.41313   0.00000  Uiso   1.00
N363   N     0.47280   0.06313   0.92066   0.00000  Uiso   1.00
N364   N     0.31984   0.44738   0.75934   0.00000  Uiso   1.00
N365   N     0.24948   0.33478   0.28068   0.00000  Uiso   1.00
N366   N     0.60838   0.09685   0.94860   0.00000  Uiso   1.00
N367   N     0.45542   0.48110   0.78728   0.00000  Uiso   1.00
N368   N     0.38505   0.36850   0.30862   0.00000  Uiso   1.00
