data_job_02945
_audit_creation_date              2018-12-19
_audit_creation_method            'Materials Studio'
_symmetry_space_group_name_H-M    'P1'
_symmetry_Int_Tables_number       1
_symmetry_cell_setting            triclinic
loop_
_symmetry_equiv_pos_as_xyz
  x,y,z
_cell_length_a                    17.4520
_cell_length_b                    14.3399
_cell_length_c                    11.5859
_cell_angle_alpha                 90.0000
_cell_angle_beta                  75.0022
_cell_angle_gamma                 90.0000
loop_
_atom_site_label
_atom_site_type_symbol
_atom_site_fract_x
_atom_site_fract_y
_atom_site_fract_z
_atom_site_U_iso_or_equiv
_atom_site_adp_type
_atom_site_occupancy
C1     C     0.30332   0.60396   0.94175   0.00000  Uiso   1.00
C2     C     0.27155   0.68785   0.88773   0.00000  Uiso   1.00
C3     C     0.26087   0.69261   0.77328   0.00000  Uiso   1.00
C4     C     0.23114   0.77557   0.74074   0.00000  Uiso   1.00
C5     C     0.18465   0.89436   0.64480   0.00000  Uiso   1.00
C6     C     0.37495   0.63913   0.98141   0.00000  Uiso   1.00
C7     C     0.45119   0.60292   0.94572   0.00000  Uiso   1.00
C8     C     0.50849   0.64486   0.99205   0.00000  Uiso   1.00
C9     C     0.62251   0.68797   0.04162   0.00000  Uiso   1.00
C10    C     0.24030   0.58006   0.05598   0.00000  Uiso   1.00
C11    C     0.20334   0.49419   0.08302   0.00000  Uiso   1.00
C12    C     0.14729   0.48639   0.19215   0.00000  Uiso   1.00
C13    C     0.05224   0.43780   0.35749   0.00000  Uiso   1.00
C14    C     0.26952   0.74280   0.08749   0.00000  Uiso   1.00
C15    C     0.25320   0.76326   0.96690   0.00000  Uiso   1.00
C16    C     0.22348   0.84623   0.93452   0.00000  Uiso   1.00
C17    C     0.21274   0.85112   0.82004   0.00000  Uiso   1.00
C18    C     0.35660   0.71454   0.06056   0.00000  Uiso   1.00
C19    C     0.41380   0.75654   0.10697   0.00000  Uiso   1.00
C20    C     0.49011   0.72041   0.07136   0.00000  Uiso   1.00
C21    C     0.22194   0.65548   0.13514   0.00000  Uiso   1.00
C22    C     0.16594   0.64781   0.24425   0.00000  Uiso   1.00
C23    C     0.12890   0.56194   0.27145   0.00000  Uiso   1.00
H24    H     0.31761   0.54525   0.88012   0.00000  Uiso   1.00
H25    H     0.27509   0.63424   0.71204   0.00000  Uiso   1.00
H26    H     0.46538   0.54456   0.88447   0.00000  Uiso   1.00
H27    H     0.21756   0.43585   0.02174   0.00000  Uiso   1.00
H28    H     0.21987   0.76617   0.56059   0.00000  Uiso   1.00
H29    H     0.62110   0.57705   0.92420   0.00000  Uiso   1.00
H30    H     0.09853   0.34781   0.21365   0.00000  Uiso   1.00
H31    H     0.25523   0.80152   0.14912   0.00000  Uiso   1.00
H32    H     0.20928   0.90457   0.99580   0.00000  Uiso   1.00
H33    H     0.39957   0.81489   0.16823   0.00000  Uiso   1.00
H34    H     0.15175   0.70618   0.30549   0.00000  Uiso   1.00
H35    H     0.16646   0.98559   0.79089   0.00000  Uiso   1.00
H36    H     0.56769   0.79646   0.15451   0.00000  Uiso   1.00
H37    H     0.04512   0.56723   0.44396   0.00000  Uiso   1.00
O38    O     0.16409   0.93906   0.57001   0.00000  Uiso   1.00
O39    O     0.69048   0.69092   0.04707   0.00000  Uiso   1.00
O40    O     0.00488   0.39017   0.42682   0.00000  Uiso   1.00
N41    N     0.21359   0.80366   0.63584   0.00000  Uiso   1.00
N42    N     0.58872   0.62685   0.97578   0.00000  Uiso   1.00
N43    N     0.10017   0.41253   0.24640   0.00000  Uiso   1.00
N44    N     0.18485   0.92173   0.75976   0.00000  Uiso   1.00
N45    N     0.55998   0.74492   0.09970   0.00000  Uiso   1.00
N46    N     0.07143   0.53059   0.37033   0.00000  Uiso   1.00
C47    C     0.69668   0.60396   0.55825   0.00000  Uiso   1.00
C48    C     0.72845   0.68785   0.61227   0.00000  Uiso   1.00
C49    C     0.73913   0.69261   0.72672   0.00000  Uiso   1.00
C50    C     0.76886   0.77557   0.75926   0.00000  Uiso   1.00
C51    C     0.81535   0.89436   0.85520   0.00000  Uiso   1.00
C52    C     0.62505   0.63913   0.51859   0.00000  Uiso   1.00
C53    C     0.54881   0.60292   0.55428   0.00000  Uiso   1.00
C54    C     0.49151   0.64486   0.50795   0.00000  Uiso   1.00
C55    C     0.37749   0.68797   0.45838   0.00000  Uiso   1.00
C56    C     0.75970   0.58006   0.44402   0.00000  Uiso   1.00
C57    C     0.79666   0.49419   0.41698   0.00000  Uiso   1.00
C58    C     0.85271   0.48639   0.30785   0.00000  Uiso   1.00
C59    C     0.94776   0.43780   0.14251   0.00000  Uiso   1.00
C60    C     0.73048   0.74280   0.41251   0.00000  Uiso   1.00
C61    C     0.74680   0.76326   0.53310   0.00000  Uiso   1.00
C62    C     0.77652   0.84623   0.56548   0.00000  Uiso   1.00
C63    C     0.78726   0.85112   0.67996   0.00000  Uiso   1.00
C64    C     0.64340   0.71454   0.43944   0.00000  Uiso   1.00
C65    C     0.58620   0.75654   0.39303   0.00000  Uiso   1.00
C66    C     0.50989   0.72041   0.42864   0.00000  Uiso   1.00
C67    C     0.77806   0.65548   0.36486   0.00000  Uiso   1.00
C68    C     0.83406   0.64781   0.25575   0.00000  Uiso   1.00
C69    C     0.87110   0.56194   0.22855   0.00000  Uiso   1.00
H70    H     0.68239   0.54525   0.61988   0.00000  Uiso   1.00
H71    H     0.72491   0.63424   0.78796   0.00000  Uiso   1.00
H72    H     0.53462   0.54456   0.61553   0.00000  Uiso   1.00
H73    H     0.78244   0.43585   0.47826   0.00000  Uiso   1.00
H74    H     0.78013   0.76617   0.93941   0.00000  Uiso   1.00
H75    H     0.37890   0.57705   0.57580   0.00000  Uiso   1.00
H76    H     0.90147   0.34781   0.28635   0.00000  Uiso   1.00
H77    H     0.74477   0.80152   0.35088   0.00000  Uiso   1.00
H78    H     0.79072   0.90457   0.50420   0.00000  Uiso   1.00
H79    H     0.60043   0.81489   0.33177   0.00000  Uiso   1.00
H80    H     0.84825   0.70618   0.19451   0.00000  Uiso   1.00
H81    H     0.83354   0.98559   0.70911   0.00000  Uiso   1.00
H82    H     0.43231   0.79646   0.34549   0.00000  Uiso   1.00
H83    H     0.95488   0.56723   0.05604   0.00000  Uiso   1.00
O84    O     0.83591   0.93906   0.92999   0.00000  Uiso   1.00
O85    O     0.30952   0.69092   0.45293   0.00000  Uiso   1.00
O86    O     0.99512   0.39017   0.07318   0.00000  Uiso   1.00
N87    N     0.78641   0.80366   0.86416   0.00000  Uiso   1.00
N88    N     0.41128   0.62685   0.52422   0.00000  Uiso   1.00
N89    N     0.89983   0.41253   0.25360   0.00000  Uiso   1.00
N90    N     0.81515   0.92173   0.74024   0.00000  Uiso   1.00
N91    N     0.44002   0.74492   0.40030   0.00000  Uiso   1.00
N92    N     0.92857   0.53059   0.12967   0.00000  Uiso   1.00
C93    C     0.69668   0.39604   0.05825   0.00000  Uiso   1.00
C94    C     0.72845   0.31215   0.11227   0.00000  Uiso   1.00
C95    C     0.73913   0.30739   0.22672   0.00000  Uiso   1.00
C96    C     0.76886   0.22443   0.25926   0.00000  Uiso   1.00
C97    C     0.81535   0.10564   0.35520   0.00000  Uiso   1.00
C98    C     0.62505   0.36087   0.01859   0.00000  Uiso   1.00
C99    C     0.54881   0.39708   0.05428   0.00000  Uiso   1.00
C100   C     0.49151   0.35514   0.00795   0.00000  Uiso   1.00
C101   C     0.37749   0.31203   0.95838   0.00000  Uiso   1.00
C102   C     0.75970   0.41994   0.94402   0.00000  Uiso   1.00
C103   C     0.79666   0.50581   0.91698   0.00000  Uiso   1.00
C104   C     0.85271   0.51361   0.80785   0.00000  Uiso   1.00
C105   C     0.94776   0.56220   0.64251   0.00000  Uiso   1.00
C106   C     0.73048   0.25720   0.91251   0.00000  Uiso   1.00
C107   C     0.74680   0.23674   0.03310   0.00000  Uiso   1.00
C108   C     0.77652   0.15377   0.06548   0.00000  Uiso   1.00
C109   C     0.78726   0.14888   0.17996   0.00000  Uiso   1.00
C110   C     0.64340   0.28546   0.93944   0.00000  Uiso   1.00
C111   C     0.58620   0.24346   0.89303   0.00000  Uiso   1.00
C112   C     0.50989   0.27959   0.92864   0.00000  Uiso   1.00
C113   C     0.77806   0.34452   0.86486   0.00000  Uiso   1.00
C114   C     0.83406   0.35219   0.75575   0.00000  Uiso   1.00
C115   C     0.87110   0.43806   0.72855   0.00000  Uiso   1.00
H116   H     0.68239   0.45475   0.11988   0.00000  Uiso   1.00
H117   H     0.72491   0.36576   0.28796   0.00000  Uiso   1.00
H118   H     0.53462   0.45544   0.11553   0.00000  Uiso   1.00
H119   H     0.78244   0.56415   0.97826   0.00000  Uiso   1.00
H120   H     0.78013   0.23383   0.43941   0.00000  Uiso   1.00
H121   H     0.37890   0.42295   0.07580   0.00000  Uiso   1.00
H122   H     0.90147   0.65219   0.78635   0.00000  Uiso   1.00
H123   H     0.74477   0.19848   0.85088   0.00000  Uiso   1.00
H124   H     0.79072   0.09543   0.00420   0.00000  Uiso   1.00
H125   H     0.60043   0.18511   0.83177   0.00000  Uiso   1.00
H126   H     0.84825   0.29382   0.69451   0.00000  Uiso   1.00
H127   H     0.83354   0.01441   0.20911   0.00000  Uiso   1.00
H128   H     0.43231   0.20354   0.84549   0.00000  Uiso   1.00
H129   H     0.95488   0.43277   0.55604   0.00000  Uiso   1.00
O130   O     0.83591   0.06094   0.42999   0.00000  Uiso   1.00
O131   O     0.30952   0.30908   0.95293   0.00000  Uiso   1.00
O132   O     0.99512   0.60983   0.57318   0.00000  Uiso   1.00
N133   N     0.78641   0.19634   0.36416   0.00000  Uiso   1.00
N134   N     0.41128   0.37315   0.02422   0.00000  Uiso   1.00
N135   N     0.89983   0.58747   0.75360   0.00000  Uiso   1.00
N136   N     0.81515   0.07827   0.24024   0.00000  Uiso   1.00
N137   N     0.44002   0.25508   0.90030   0.00000  Uiso   1.00
N138   N     0.92857   0.46941   0.62967   0.00000  Uiso   1.00
C139   C     0.30332   0.39604   0.44175   0.00000  Uiso   1.00
C140   C     0.27155   0.31215   0.38773   0.00000  Uiso   1.00
C141   C     0.26087   0.30739   0.27328   0.00000  Uiso   1.00
C142   C     0.23114   0.22443   0.24074   0.00000  Uiso   1.00
C143   C     0.18465   0.10564   0.14480   0.00000  Uiso   1.00
C144   C     0.37495   0.36087   0.48141   0.00000  Uiso   1.00
C145   C     0.45119   0.39708   0.44572   0.00000  Uiso   1.00
C146   C     0.50849   0.35514   0.49205   0.00000  Uiso   1.00
C147   C     0.62251   0.31203   0.54162   0.00000  Uiso   1.00
C148   C     0.24030   0.41994   0.55598   0.00000  Uiso   1.00
C149   C     0.20334   0.50581   0.58302   0.00000  Uiso   1.00
C150   C     0.14729   0.51361   0.69215   0.00000  Uiso   1.00
C151   C     0.05224   0.56220   0.85749   0.00000  Uiso   1.00
C152   C     0.26952   0.25720   0.58749   0.00000  Uiso   1.00
C153   C     0.25320   0.23674   0.46690   0.00000  Uiso   1.00
C154   C     0.22348   0.15377   0.43452   0.00000  Uiso   1.00
C155   C     0.21274   0.14888   0.32004   0.00000  Uiso   1.00
C156   C     0.35660   0.28546   0.56056   0.00000  Uiso   1.00
C157   C     0.41380   0.24346   0.60697   0.00000  Uiso   1.00
C158   C     0.49011   0.27959   0.57136   0.00000  Uiso   1.00
C159   C     0.22194   0.34452   0.63514   0.00000  Uiso   1.00
C160   C     0.16594   0.35219   0.74425   0.00000  Uiso   1.00
C161   C     0.12890   0.43806   0.77145   0.00000  Uiso   1.00
H162   H     0.31761   0.45475   0.38012   0.00000  Uiso   1.00
H163   H     0.27509   0.36576   0.21204   0.00000  Uiso   1.00
H164   H     0.46538   0.45544   0.38447   0.00000  Uiso   1.00
H165   H     0.21756   0.56415   0.52174   0.00000  Uiso   1.00
H166   H     0.21987   0.23383   0.06059   0.00000  Uiso   1.00
H167   H     0.62110   0.42295   0.42420   0.00000  Uiso   1.00
H168   H     0.09853   0.65219   0.71365   0.00000  Uiso   1.00
H169   H     0.25523   0.19848   0.64912   0.00000  Uiso   1.00
H170   H     0.20928   0.09543   0.49580   0.00000  Uiso   1.00
H171   H     0.39957   0.18511   0.66823   0.00000  Uiso   1.00
H172   H     0.15175   0.29382   0.80549   0.00000  Uiso   1.00
H173   H     0.16646   0.01441   0.29089   0.00000  Uiso   1.00
H174   H     0.56769   0.20354   0.65451   0.00000  Uiso   1.00
H175   H     0.04512   0.43277   0.94396   0.00000  Uiso   1.00
O176   O     0.16409   0.06094   0.07001   0.00000  Uiso   1.00
O177   O     0.69048   0.30908   0.54707   0.00000  Uiso   1.00
O178   O     0.00488   0.60983   0.92682   0.00000  Uiso   1.00
N179   N     0.21359   0.19634   0.13584   0.00000  Uiso   1.00
N180   N     0.58872   0.37315   0.47578   0.00000  Uiso   1.00
N181   N     0.10017   0.58747   0.74640   0.00000  Uiso   1.00
N182   N     0.18485   0.07827   0.25976   0.00000  Uiso   1.00
N183   N     0.55998   0.25508   0.59970   0.00000  Uiso   1.00
N184   N     0.07143   0.46941   0.87033   0.00000  Uiso   1.00
