data_job_05553
_audit_creation_date              2018-12-19
_audit_creation_method            'Materials Studio'
_symmetry_space_group_name_H-M    'P1'
_symmetry_Int_Tables_number       1
_symmetry_cell_setting            triclinic
loop_
_symmetry_equiv_pos_as_xyz
  x,y,z
_cell_length_a                    27.2690
_cell_length_b                    12.3622
_cell_length_c                    18.3445
_cell_angle_alpha                 90.0000
_cell_angle_beta                  90.0000
_cell_angle_gamma                 90.0000
loop_
_atom_site_label
_atom_site_type_symbol
_atom_site_fract_x
_atom_site_fract_y
_atom_site_fract_z
_atom_site_U_iso_or_equiv
_atom_site_adp_type
_atom_site_occupancy
C1     C     0.11841   0.13973   0.08615   0.00000  Uiso   1.00
C2     C     0.13316   0.21551   0.14797   0.00000  Uiso   1.00
C3     C     0.10783   0.30747   0.16954   0.00000  Uiso   1.00
C4     C     0.12732   0.36598   0.22728   0.00000  Uiso   1.00
C5     C     0.14365   0.48861   0.31794   0.00000  Uiso   1.00
C6     C     0.16221   0.13550   0.03454   0.00000  Uiso   1.00
C7     C     0.16130   0.16016   0.96075   0.00000  Uiso   1.00
C8     C     0.20525   0.15130   0.92300   0.00000  Uiso   1.00
C9     C     0.26668   0.14962   0.83756   0.00000  Uiso   1.00
C10    C     0.11446   0.02735   0.11991   0.00000  Uiso   1.00
C11    C     0.07341   0.96106   0.11787   0.00000  Uiso   1.00
C12    C     0.07716   0.86114   0.15198   0.00000  Uiso   1.00
C13    C     0.06444   0.69155   0.19908   0.00000  Uiso   1.00
C14    C     0.19807   0.08014   0.15032   0.00000  Uiso   1.00
C15    C     0.17643   0.18314   0.18282   0.00000  Uiso   1.00
C16    C     0.19596   0.24153   0.24054   0.00000  Uiso   1.00
C17    C     0.17067   0.33355   0.26220   0.00000  Uiso   1.00
C18    C     0.20548   0.10313   0.06940   0.00000  Uiso   1.00
C19    C     0.24944   0.09422   0.03175   0.00000  Uiso   1.00
C20    C     0.24860   0.11887   0.95792   0.00000  Uiso   1.00
C21    C     0.15773   0.99498   0.15477   0.00000  Uiso   1.00
C22    C     0.16154   0.89514   0.18888   0.00000  Uiso   1.00
C23    C     0.12050   0.82871   0.18690   0.00000  Uiso   1.00
H24    H     0.08473   0.16493   0.05901   0.00000  Uiso   1.00
H25    H     0.07435   0.33250   0.14255   0.00000  Uiso   1.00
H26    H     0.12781   0.18520   0.93379   0.00000  Uiso   1.00
H27    H     0.03993   0.98614   0.09089   0.00000  Uiso   1.00
H28    H     0.08193   0.50402   0.25052   0.00000  Uiso   1.00
H29    H     0.19466   0.19340   0.81034   0.00000  Uiso   1.00
H30    H     0.00934   0.77364   0.14162   0.00000  Uiso   1.00
H31    H     0.23176   0.05493   0.17746   0.00000  Uiso   1.00
H32    H     0.22945   0.21646   0.26751   0.00000  Uiso   1.00
H33    H     0.28292   0.06917   0.05874   0.00000  Uiso   1.00
H34    H     0.19503   0.87011   0.21585   0.00000  Uiso   1.00
H35    H     0.20782   0.40984   0.35194   0.00000  Uiso   1.00
H36    H     0.32055   0.09922   0.91175   0.00000  Uiso   1.00
H37    H     0.13523   0.67947   0.24304   0.00000  Uiso   1.00
O38    O     0.14071   0.56519   0.35831   0.00000  Uiso   1.00
O39    O     0.28861   0.15765   0.78080   0.00000  Uiso   1.00
O40    O     0.04547   0.60695   0.21544   0.00000  Uiso   1.00
N41    N     0.11187   0.45967   0.26204   0.00000  Uiso   1.00
N42    N     0.21727   0.16928   0.85050   0.00000  Uiso   1.00
N43    N     0.04402   0.77683   0.16020   0.00000  Uiso   1.00
N44    N     0.17961   0.40900   0.31662   0.00000  Uiso   1.00
N45    N     0.28501   0.11860   0.90507   0.00000  Uiso   1.00
N46    N     0.11176   0.72616   0.21477   0.00000  Uiso   1.00
C47    C     0.37951   0.53065   0.40920   0.00000  Uiso   1.00
C48    C     0.36364   0.45518   0.34782   0.00000  Uiso   1.00
C49    C     0.38865   0.36354   0.32487   0.00000  Uiso   1.00
C50    C     0.36810   0.30527   0.26784   0.00000  Uiso   1.00
C51    C     0.35013   0.18314   0.17756   0.00000  Uiso   1.00
C52    C     0.33675   0.53427   0.46271   0.00000  Uiso   1.00
C53    C     0.33915   0.50913   0.53636   0.00000  Uiso   1.00
C54    C     0.29595   0.51746   0.57603   0.00000  Uiso   1.00
C55    C     0.23625   0.51818   0.66413   0.00000  Uiso   1.00
C56    C     0.38265   0.64328   0.37562   0.00000  Uiso   1.00
C57    C     0.42364   0.70981   0.37606   0.00000  Uiso   1.00
C58    C     0.41909   0.80993   0.34243   0.00000  Uiso   1.00
C59    C     0.43066   0.97991   0.29531   0.00000  Uiso   1.00
C60    C     0.29854   0.59016   0.34872   0.00000  Uiso   1.00
C61    C     0.31966   0.48751   0.31497   0.00000  Uiso   1.00
C62    C     0.29906   0.42937   0.25795   0.00000  Uiso   1.00
C63    C     0.32404   0.33765   0.23492   0.00000  Uiso   1.00
C64    C     0.29277   0.56659   0.42986   0.00000  Uiso   1.00
C65    C     0.24956   0.57496   0.46944   0.00000  Uiso   1.00
C66    C     0.25189   0.54984   0.54312   0.00000  Uiso   1.00
C67    C     0.33867   0.67560   0.34277   0.00000  Uiso   1.00
C68    C     0.33406   0.77564   0.30914   0.00000  Uiso   1.00
C69    C     0.37503   0.84231   0.30953   0.00000  Uiso   1.00
H70    H     0.41375   0.50549   0.43478   0.00000  Uiso   1.00
H71    H     0.42268   0.33854   0.35031   0.00000  Uiso   1.00
H72    H     0.37319   0.48413   0.56176   0.00000  Uiso   1.00
H73    H     0.45767   0.68477   0.40149   0.00000  Uiso   1.00
H74    H     0.41318   0.16768   0.24220   0.00000  Uiso   1.00
H75    H     0.30882   0.47469   0.68806   0.00000  Uiso   1.00
H76    H     0.48697   0.89780   0.35009   0.00000  Uiso   1.00
H77    H     0.26430   0.61532   0.32314   0.00000  Uiso   1.00
H78    H     0.26503   0.45440   0.23254   0.00000  Uiso   1.00
H79    H     0.21553   0.59998   0.44400   0.00000  Uiso   1.00
H80    H     0.30002   0.80063   0.28372   0.00000  Uiso   1.00
H81    H     0.28522   0.26171   0.14662   0.00000  Uiso   1.00
H82    H     0.18086   0.56873   0.59248   0.00000  Uiso   1.00
H83    H     0.35901   0.99183   0.25451   0.00000  Uiso   1.00
O84    O     0.35237   0.10684   0.13684   0.00000  Uiso   1.00
O85    O     0.21546   0.50964   0.72180   0.00000  Uiso   1.00
O86    O     0.44919   0.06474   0.27839   0.00000  Uiso   1.00
N87    N     0.38297   0.21191   0.23213   0.00000  Uiso   1.00
N88    N     0.28540   0.49893   0.64898   0.00000  Uiso   1.00
N89    N     0.45195   0.89451   0.33302   0.00000  Uiso   1.00
N90    N     0.31411   0.26251   0.18069   0.00000  Uiso   1.00
N91    N     0.21655   0.54953   0.59754   0.00000  Uiso   1.00
N92    N     0.38310   0.94510   0.28159   0.00000  Uiso   1.00
C93    C     0.88159   0.86027   0.08615   0.00000  Uiso   1.00
C94    C     0.86684   0.78449   0.14797   0.00000  Uiso   1.00
C95    C     0.89217   0.69253   0.16954   0.00000  Uiso   1.00
C96    C     0.87268   0.63402   0.22728   0.00000  Uiso   1.00
C97    C     0.85635   0.51139   0.31794   0.00000  Uiso   1.00
C98    C     0.83779   0.86450   0.03454   0.00000  Uiso   1.00
C99    C     0.83870   0.83984   0.96075   0.00000  Uiso   1.00
C100   C     0.79475   0.84870   0.92300   0.00000  Uiso   1.00
C101   C     0.73332   0.85038   0.83756   0.00000  Uiso   1.00
C102   C     0.88554   0.97265   0.11991   0.00000  Uiso   1.00
C103   C     0.92659   0.03894   0.11787   0.00000  Uiso   1.00
C104   C     0.92284   0.13886   0.15198   0.00000  Uiso   1.00
C105   C     0.93556   0.30845   0.19908   0.00000  Uiso   1.00
C106   C     0.80193   0.91986   0.15032   0.00000  Uiso   1.00
C107   C     0.82357   0.81686   0.18282   0.00000  Uiso   1.00
C108   C     0.80404   0.75847   0.24054   0.00000  Uiso   1.00
C109   C     0.82933   0.66645   0.26220   0.00000  Uiso   1.00
C110   C     0.79452   0.89687   0.06940   0.00000  Uiso   1.00
C111   C     0.75056   0.90578   0.03175   0.00000  Uiso   1.00
C112   C     0.75140   0.88113   0.95792   0.00000  Uiso   1.00
C113   C     0.84227   0.00502   0.15477   0.00000  Uiso   1.00
C114   C     0.83846   0.10486   0.18888   0.00000  Uiso   1.00
C115   C     0.87950   0.17129   0.18690   0.00000  Uiso   1.00
H116   H     0.91527   0.83507   0.05901   0.00000  Uiso   1.00
H117   H     0.92565   0.66750   0.14255   0.00000  Uiso   1.00
H118   H     0.87219   0.81480   0.93379   0.00000  Uiso   1.00
H119   H     0.96007   0.01386   0.09089   0.00000  Uiso   1.00
H120   H     0.91807   0.49598   0.25052   0.00000  Uiso   1.00
H121   H     0.80534   0.80660   0.81034   0.00000  Uiso   1.00
H122   H     0.99066   0.22636   0.14162   0.00000  Uiso   1.00
H123   H     0.76824   0.94507   0.17746   0.00000  Uiso   1.00
H124   H     0.77055   0.78354   0.26751   0.00000  Uiso   1.00
H125   H     0.71708   0.93083   0.05874   0.00000  Uiso   1.00
H126   H     0.80497   0.12989   0.21585   0.00000  Uiso   1.00
H127   H     0.79218   0.59016   0.35194   0.00000  Uiso   1.00
H128   H     0.67945   0.90078   0.91175   0.00000  Uiso   1.00
H129   H     0.86477   0.32053   0.24304   0.00000  Uiso   1.00
O130   O     0.85929   0.43481   0.35831   0.00000  Uiso   1.00
O131   O     0.71139   0.84235   0.78080   0.00000  Uiso   1.00
O132   O     0.95453   0.39305   0.21544   0.00000  Uiso   1.00
N133   N     0.88813   0.54033   0.26204   0.00000  Uiso   1.00
N134   N     0.78273   0.83072   0.85050   0.00000  Uiso   1.00
N135   N     0.95598   0.22317   0.16020   0.00000  Uiso   1.00
N136   N     0.82039   0.59100   0.31662   0.00000  Uiso   1.00
N137   N     0.71499   0.88140   0.90507   0.00000  Uiso   1.00
N138   N     0.88824   0.27384   0.21477   0.00000  Uiso   1.00
C139   C     0.62049   0.46935   0.40920   0.00000  Uiso   1.00
C140   C     0.63636   0.54482   0.34782   0.00000  Uiso   1.00
C141   C     0.61135   0.63646   0.32487   0.00000  Uiso   1.00
C142   C     0.63190   0.69473   0.26784   0.00000  Uiso   1.00
C143   C     0.64987   0.81686   0.17756   0.00000  Uiso   1.00
C144   C     0.66325   0.46573   0.46271   0.00000  Uiso   1.00
C145   C     0.66085   0.49087   0.53636   0.00000  Uiso   1.00
C146   C     0.70405   0.48254   0.57603   0.00000  Uiso   1.00
C147   C     0.76375   0.48182   0.66413   0.00000  Uiso   1.00
C148   C     0.61735   0.35672   0.37562   0.00000  Uiso   1.00
C149   C     0.57636   0.29019   0.37606   0.00000  Uiso   1.00
C150   C     0.58091   0.19007   0.34243   0.00000  Uiso   1.00
C151   C     0.56934   0.02009   0.29531   0.00000  Uiso   1.00
C152   C     0.70146   0.40984   0.34872   0.00000  Uiso   1.00
C153   C     0.68034   0.51249   0.31497   0.00000  Uiso   1.00
C154   C     0.70094   0.57063   0.25795   0.00000  Uiso   1.00
C155   C     0.67596   0.66235   0.23492   0.00000  Uiso   1.00
C156   C     0.70723   0.43341   0.42986   0.00000  Uiso   1.00
C157   C     0.75044   0.42504   0.46944   0.00000  Uiso   1.00
C158   C     0.74811   0.45016   0.54312   0.00000  Uiso   1.00
C159   C     0.66133   0.32440   0.34277   0.00000  Uiso   1.00
C160   C     0.66594   0.22436   0.30914   0.00000  Uiso   1.00
C161   C     0.62497   0.15769   0.30953   0.00000  Uiso   1.00
H162   H     0.58625   0.49451   0.43478   0.00000  Uiso   1.00
H163   H     0.57732   0.66146   0.35031   0.00000  Uiso   1.00
H164   H     0.62681   0.51587   0.56176   0.00000  Uiso   1.00
H165   H     0.54233   0.31523   0.40149   0.00000  Uiso   1.00
H166   H     0.58682   0.83232   0.24220   0.00000  Uiso   1.00
H167   H     0.69118   0.52531   0.68806   0.00000  Uiso   1.00
H168   H     0.51303   0.10220   0.35009   0.00000  Uiso   1.00
H169   H     0.73570   0.38468   0.32314   0.00000  Uiso   1.00
H170   H     0.73497   0.54560   0.23254   0.00000  Uiso   1.00
H171   H     0.78447   0.40002   0.44400   0.00000  Uiso   1.00
H172   H     0.69998   0.19937   0.28372   0.00000  Uiso   1.00
H173   H     0.71478   0.73829   0.14662   0.00000  Uiso   1.00
H174   H     0.81914   0.43127   0.59248   0.00000  Uiso   1.00
H175   H     0.64099   0.00817   0.25451   0.00000  Uiso   1.00
O176   O     0.64763   0.89316   0.13684   0.00000  Uiso   1.00
O177   O     0.78454   0.49036   0.72180   0.00000  Uiso   1.00
O178   O     0.55081   0.93526   0.27839   0.00000  Uiso   1.00
N179   N     0.61703   0.78809   0.23213   0.00000  Uiso   1.00
N180   N     0.71460   0.50107   0.64898   0.00000  Uiso   1.00
N181   N     0.54805   0.10549   0.33302   0.00000  Uiso   1.00
N182   N     0.68589   0.73749   0.18069   0.00000  Uiso   1.00
N183   N     0.78345   0.45047   0.59754   0.00000  Uiso   1.00
N184   N     0.61690   0.05490   0.28159   0.00000  Uiso   1.00
C185   C     0.38159   0.63973   0.91385   0.00000  Uiso   1.00
C186   C     0.36684   0.71551   0.85203   0.00000  Uiso   1.00
C187   C     0.39217   0.80747   0.83046   0.00000  Uiso   1.00
C188   C     0.37268   0.86598   0.77272   0.00000  Uiso   1.00
C189   C     0.35635   0.98861   0.68206   0.00000  Uiso   1.00
C190   C     0.33779   0.63550   0.96546   0.00000  Uiso   1.00
C191   C     0.33870   0.66016   0.03925   0.00000  Uiso   1.00
C192   C     0.29475   0.65130   0.07700   0.00000  Uiso   1.00
C193   C     0.23332   0.64962   0.16244   0.00000  Uiso   1.00
C194   C     0.38554   0.52735   0.88009   0.00000  Uiso   1.00
C195   C     0.42659   0.46106   0.88213   0.00000  Uiso   1.00
C196   C     0.42284   0.36114   0.84802   0.00000  Uiso   1.00
C197   C     0.43556   0.19155   0.80092   0.00000  Uiso   1.00
C198   C     0.30193   0.58014   0.84968   0.00000  Uiso   1.00
C199   C     0.32357   0.68314   0.81718   0.00000  Uiso   1.00
C200   C     0.30404   0.74153   0.75946   0.00000  Uiso   1.00
C201   C     0.32933   0.83355   0.73780   0.00000  Uiso   1.00
C202   C     0.29452   0.60313   0.93060   0.00000  Uiso   1.00
C203   C     0.25056   0.59422   0.96825   0.00000  Uiso   1.00
C204   C     0.25140   0.61887   0.04208   0.00000  Uiso   1.00
C205   C     0.34227   0.49498   0.84523   0.00000  Uiso   1.00
C206   C     0.33846   0.39514   0.81112   0.00000  Uiso   1.00
C207   C     0.37950   0.32871   0.81310   0.00000  Uiso   1.00
H208   H     0.41527   0.66493   0.94099   0.00000  Uiso   1.00
H209   H     0.42565   0.83250   0.85745   0.00000  Uiso   1.00
H210   H     0.37219   0.68520   0.06621   0.00000  Uiso   1.00
H211   H     0.46007   0.48614   0.90911   0.00000  Uiso   1.00
H212   H     0.41807   0.00402   0.74948   0.00000  Uiso   1.00
H213   H     0.30534   0.69340   0.18966   0.00000  Uiso   1.00
H214   H     0.49066   0.27364   0.85838   0.00000  Uiso   1.00
H215   H     0.26824   0.55493   0.82254   0.00000  Uiso   1.00
H216   H     0.27055   0.71646   0.73249   0.00000  Uiso   1.00
H217   H     0.21708   0.56917   0.94126   0.00000  Uiso   1.00
H218   H     0.30497   0.37011   0.78415   0.00000  Uiso   1.00
H219   H     0.29218   0.90984   0.64806   0.00000  Uiso   1.00
H220   H     0.17945   0.59922   0.08825   0.00000  Uiso   1.00
H221   H     0.36477   0.17947   0.75696   0.00000  Uiso   1.00
O222   O     0.35929   0.06519   0.64169   0.00000  Uiso   1.00
O223   O     0.21139   0.65765   0.21920   0.00000  Uiso   1.00
O224   O     0.45453   0.10695   0.78456   0.00000  Uiso   1.00
N225   N     0.38813   0.95967   0.73796   0.00000  Uiso   1.00
N226   N     0.28273   0.66928   0.14950   0.00000  Uiso   1.00
N227   N     0.45598   0.27683   0.83980   0.00000  Uiso   1.00
N228   N     0.32039   0.90900   0.68338   0.00000  Uiso   1.00
N229   N     0.21499   0.61860   0.09493   0.00000  Uiso   1.00
N230   N     0.38824   0.22616   0.78523   0.00000  Uiso   1.00
C231   C     0.12049   0.03065   0.59080   0.00000  Uiso   1.00
C232   C     0.13636   0.95518   0.65218   0.00000  Uiso   1.00
C233   C     0.11135   0.86354   0.67513   0.00000  Uiso   1.00
C234   C     0.13190   0.80527   0.73216   0.00000  Uiso   1.00
C235   C     0.14987   0.68314   0.82244   0.00000  Uiso   1.00
C236   C     0.16325   0.03427   0.53729   0.00000  Uiso   1.00
C237   C     0.16085   0.00913   0.46364   0.00000  Uiso   1.00
C238   C     0.20405   0.01746   0.42397   0.00000  Uiso   1.00
C239   C     0.26375   0.01818   0.33587   0.00000  Uiso   1.00
C240   C     0.11735   0.14328   0.62438   0.00000  Uiso   1.00
C241   C     0.07636   0.20981   0.62394   0.00000  Uiso   1.00
C242   C     0.08091   0.30993   0.65757   0.00000  Uiso   1.00
C243   C     0.06934   0.47991   0.70469   0.00000  Uiso   1.00
C244   C     0.20146   0.09016   0.65128   0.00000  Uiso   1.00
C245   C     0.18034   0.98751   0.68503   0.00000  Uiso   1.00
C246   C     0.20094   0.92937   0.74205   0.00000  Uiso   1.00
C247   C     0.17596   0.83765   0.76508   0.00000  Uiso   1.00
C248   C     0.20723   0.06659   0.57014   0.00000  Uiso   1.00
C249   C     0.25044   0.07496   0.53056   0.00000  Uiso   1.00
C250   C     0.24811   0.04984   0.45688   0.00000  Uiso   1.00
C251   C     0.16133   0.17560   0.65723   0.00000  Uiso   1.00
C252   C     0.16594   0.27564   0.69086   0.00000  Uiso   1.00
C253   C     0.12497   0.34231   0.69047   0.00000  Uiso   1.00
H254   H     0.08625   0.00549   0.56522   0.00000  Uiso   1.00
H255   H     0.07732   0.83854   0.64969   0.00000  Uiso   1.00
H256   H     0.12681   0.98413   0.43824   0.00000  Uiso   1.00
H257   H     0.04233   0.18477   0.59851   0.00000  Uiso   1.00
H258   H     0.08682   0.66768   0.75780   0.00000  Uiso   1.00
H259   H     0.19118   0.97469   0.31194   0.00000  Uiso   1.00
H260   H     0.01303   0.39780   0.64991   0.00000  Uiso   1.00
H261   H     0.23570   0.11532   0.67686   0.00000  Uiso   1.00
H262   H     0.23497   0.95440   0.76746   0.00000  Uiso   1.00
H263   H     0.28447   0.09998   0.55600   0.00000  Uiso   1.00
H264   H     0.19998   0.30063   0.71628   0.00000  Uiso   1.00
H265   H     0.21478   0.76171   0.85338   0.00000  Uiso   1.00
H266   H     0.31914   0.06873   0.40752   0.00000  Uiso   1.00
H267   H     0.14099   0.49183   0.74549   0.00000  Uiso   1.00
O268   O     0.14763   0.60684   0.86316   0.00000  Uiso   1.00
O269   O     0.28454   0.00964   0.27820   0.00000  Uiso   1.00
O270   O     0.05081   0.56474   0.72161   0.00000  Uiso   1.00
N271   N     0.11703   0.71191   0.76787   0.00000  Uiso   1.00
N272   N     0.21460   0.99893   0.35102   0.00000  Uiso   1.00
N273   N     0.04805   0.39451   0.66698   0.00000  Uiso   1.00
N274   N     0.18589   0.76251   0.81931   0.00000  Uiso   1.00
N275   N     0.28345   0.04953   0.40246   0.00000  Uiso   1.00
N276   N     0.11690   0.44510   0.71841   0.00000  Uiso   1.00
C277   C     0.61841   0.36027   0.91385   0.00000  Uiso   1.00
C278   C     0.63316   0.28449   0.85203   0.00000  Uiso   1.00
C279   C     0.60783   0.19253   0.83046   0.00000  Uiso   1.00
C280   C     0.62732   0.13402   0.77272   0.00000  Uiso   1.00
C281   C     0.64365   0.01139   0.68206   0.00000  Uiso   1.00
C282   C     0.66221   0.36450   0.96546   0.00000  Uiso   1.00
C283   C     0.66130   0.33984   0.03925   0.00000  Uiso   1.00
C284   C     0.70525   0.34870   0.07700   0.00000  Uiso   1.00
C285   C     0.76668   0.35038   0.16244   0.00000  Uiso   1.00
C286   C     0.61446   0.47265   0.88009   0.00000  Uiso   1.00
C287   C     0.57341   0.53894   0.88213   0.00000  Uiso   1.00
C288   C     0.57716   0.63886   0.84802   0.00000  Uiso   1.00
C289   C     0.56444   0.80845   0.80092   0.00000  Uiso   1.00
C290   C     0.69807   0.41986   0.84968   0.00000  Uiso   1.00
C291   C     0.67643   0.31686   0.81718   0.00000  Uiso   1.00
C292   C     0.69596   0.25847   0.75946   0.00000  Uiso   1.00
C293   C     0.67067   0.16645   0.73780   0.00000  Uiso   1.00
C294   C     0.70548   0.39687   0.93060   0.00000  Uiso   1.00
C295   C     0.74944   0.40578   0.96825   0.00000  Uiso   1.00
C296   C     0.74860   0.38113   0.04208   0.00000  Uiso   1.00
C297   C     0.65773   0.50502   0.84523   0.00000  Uiso   1.00
C298   C     0.66154   0.60486   0.81112   0.00000  Uiso   1.00
C299   C     0.62050   0.67129   0.81310   0.00000  Uiso   1.00
H300   H     0.58473   0.33507   0.94099   0.00000  Uiso   1.00
H301   H     0.57435   0.16750   0.85745   0.00000  Uiso   1.00
H302   H     0.62781   0.31480   0.06621   0.00000  Uiso   1.00
H303   H     0.53993   0.51386   0.90911   0.00000  Uiso   1.00
H304   H     0.58193   0.99598   0.74948   0.00000  Uiso   1.00
H305   H     0.69466   0.30660   0.18966   0.00000  Uiso   1.00
H306   H     0.50934   0.72636   0.85838   0.00000  Uiso   1.00
H307   H     0.73176   0.44507   0.82254   0.00000  Uiso   1.00
H308   H     0.72945   0.28354   0.73249   0.00000  Uiso   1.00
H309   H     0.78292   0.43083   0.94126   0.00000  Uiso   1.00
H310   H     0.69503   0.62989   0.78415   0.00000  Uiso   1.00
H311   H     0.70782   0.09016   0.64806   0.00000  Uiso   1.00
H312   H     0.82055   0.40078   0.08825   0.00000  Uiso   1.00
H313   H     0.63523   0.82053   0.75696   0.00000  Uiso   1.00
O314   O     0.64071   0.93481   0.64169   0.00000  Uiso   1.00
O315   O     0.78861   0.34235   0.21920   0.00000  Uiso   1.00
O316   O     0.54547   0.89305   0.78456   0.00000  Uiso   1.00
N317   N     0.61187   0.04033   0.73796   0.00000  Uiso   1.00
N318   N     0.71727   0.33072   0.14950   0.00000  Uiso   1.00
N319   N     0.54402   0.72317   0.83980   0.00000  Uiso   1.00
N320   N     0.67961   0.09100   0.68338   0.00000  Uiso   1.00
N321   N     0.78501   0.38140   0.09493   0.00000  Uiso   1.00
N322   N     0.61176   0.77384   0.78523   0.00000  Uiso   1.00
C323   C     0.87951   0.96935   0.59080   0.00000  Uiso   1.00
C324   C     0.86364   0.04482   0.65218   0.00000  Uiso   1.00
C325   C     0.88865   0.13646   0.67513   0.00000  Uiso   1.00
C326   C     0.86810   0.19473   0.73216   0.00000  Uiso   1.00
C327   C     0.85013   0.31686   0.82244   0.00000  Uiso   1.00
C328   C     0.83675   0.96573   0.53729   0.00000  Uiso   1.00
C329   C     0.83915   0.99087   0.46364   0.00000  Uiso   1.00
C330   C     0.79595   0.98254   0.42397   0.00000  Uiso   1.00
C331   C     0.73625   0.98182   0.33587   0.00000  Uiso   1.00
C332   C     0.88265   0.85672   0.62438   0.00000  Uiso   1.00
C333   C     0.92364   0.79019   0.62394   0.00000  Uiso   1.00
C334   C     0.91909   0.69007   0.65757   0.00000  Uiso   1.00
C335   C     0.93066   0.52009   0.70469   0.00000  Uiso   1.00
C336   C     0.79854   0.90984   0.65128   0.00000  Uiso   1.00
C337   C     0.81966   0.01249   0.68503   0.00000  Uiso   1.00
C338   C     0.79906   0.07063   0.74205   0.00000  Uiso   1.00
C339   C     0.82404   0.16235   0.76508   0.00000  Uiso   1.00
C340   C     0.79277   0.93341   0.57014   0.00000  Uiso   1.00
C341   C     0.74956   0.92504   0.53056   0.00000  Uiso   1.00
C342   C     0.75189   0.95016   0.45688   0.00000  Uiso   1.00
C343   C     0.83867   0.82440   0.65723   0.00000  Uiso   1.00
C344   C     0.83406   0.72436   0.69086   0.00000  Uiso   1.00
C345   C     0.87503   0.65769   0.69047   0.00000  Uiso   1.00
H346   H     0.91375   0.99451   0.56522   0.00000  Uiso   1.00
H347   H     0.92268   0.16146   0.64969   0.00000  Uiso   1.00
H348   H     0.87319   0.01587   0.43824   0.00000  Uiso   1.00
H349   H     0.95767   0.81523   0.59851   0.00000  Uiso   1.00
H350   H     0.91318   0.33232   0.75780   0.00000  Uiso   1.00
H351   H     0.80882   0.02531   0.31194   0.00000  Uiso   1.00
H352   H     0.98697   0.60220   0.64991   0.00000  Uiso   1.00
H353   H     0.76430   0.88468   0.67686   0.00000  Uiso   1.00
H354   H     0.76503   0.04560   0.76746   0.00000  Uiso   1.00
H355   H     0.71553   0.90002   0.55600   0.00000  Uiso   1.00
H356   H     0.80002   0.69937   0.71628   0.00000  Uiso   1.00
H357   H     0.78522   0.23829   0.85338   0.00000  Uiso   1.00
H358   H     0.68086   0.93127   0.40752   0.00000  Uiso   1.00
H359   H     0.85901   0.50817   0.74549   0.00000  Uiso   1.00
O360   O     0.85237   0.39316   0.86316   0.00000  Uiso   1.00
O361   O     0.71546   0.99036   0.27820   0.00000  Uiso   1.00
O362   O     0.94919   0.43526   0.72161   0.00000  Uiso   1.00
N363   N     0.88297   0.28809   0.76787   0.00000  Uiso   1.00
N364   N     0.78540   0.00107   0.35102   0.00000  Uiso   1.00
N365   N     0.95195   0.60549   0.66698   0.00000  Uiso   1.00
N366   N     0.81411   0.23749   0.81931   0.00000  Uiso   1.00
N367   N     0.71655   0.95047   0.40246   0.00000  Uiso   1.00
N368   N     0.88310   0.55490   0.71841   0.00000  Uiso   1.00
