data_job_03639
_audit_creation_date              2018-12-19
_audit_creation_method            'Materials Studio'
_symmetry_space_group_name_H-M    'P1'
_symmetry_Int_Tables_number       1
_symmetry_cell_setting            triclinic
loop_
_symmetry_equiv_pos_as_xyz
  x,y,z
_cell_length_a                    24.6395
_cell_length_b                    7.2998
_cell_length_c                    23.6784
_cell_angle_alpha                 90.0000
_cell_angle_beta                  69.6198
_cell_angle_gamma                 90.0000
loop_
_atom_site_label
_atom_site_type_symbol
_atom_site_fract_x
_atom_site_fract_y
_atom_site_fract_z
_atom_site_U_iso_or_equiv
_atom_site_adp_type
_atom_site_occupancy
C1     C     0.68482   0.44092   0.15791   0.00000  Uiso   1.00
C2     C     0.65804   0.53634   0.11663   0.00000  Uiso   1.00
C3     C     0.61748   0.46073   0.09492   0.00000  Uiso   1.00
C4     C     0.59832   0.57027   0.05771   0.00000  Uiso   1.00
C5     C     0.55362   0.69122   0.99585   0.00000  Uiso   1.00
C6     C     0.75016   0.44783   0.12527   0.00000  Uiso   1.00
C7     C     0.78705   0.29779   0.11084   0.00000  Uiso   1.00
C8     C     0.84545   0.33282   0.08093   0.00000  Uiso   1.00
C9     C     0.94377   0.31636   0.03253   0.00000  Uiso   1.00
C10    C     0.67238   0.56404   0.21301   0.00000  Uiso   1.00
C11    C     0.64389   0.51171   0.27235   0.00000  Uiso   1.00
C12    C     0.63681   0.64459   0.31630   0.00000  Uiso   1.00
C13    C     0.61437   0.80856   0.40412   0.00000  Uiso   1.00
C14    C     0.72294   0.76992   0.13045   0.00000  Uiso   1.00
C15    C     0.67875   0.71504   0.10171   0.00000  Uiso   1.00
C16    C     0.65966   0.82473   0.06453   0.00000  Uiso   1.00
C17    C     0.61907   0.74929   0.04277   0.00000  Uiso   1.00
C18    C     0.77087   0.62652   0.11036   0.00000  Uiso   1.00
C19    C     0.82923   0.66178   0.08046   0.00000  Uiso   1.00
C20    C     0.86620   0.51184   0.06598   0.00000  Uiso   1.00
C21    C     0.69309   0.74274   0.19809   0.00000  Uiso   1.00
C22    C     0.68607   0.87571   0.24196   0.00000  Uiso   1.00
C23    C     0.65756   0.82360   0.30135   0.00000  Uiso   1.00
H24    H     0.66870   0.30180   0.16952   0.00000  Uiso   1.00
H25    H     0.60147   0.32243   0.10647   0.00000  Uiso   1.00
H26    H     0.77102   0.15952   0.12240   0.00000  Uiso   1.00
H27    H     0.62787   0.37342   0.28387   0.00000  Uiso   1.00
H28    H     0.53607   0.42408   0.02996   0.00000  Uiso   1.00
H29    H     0.89358   0.08059   0.06357   0.00000  Uiso   1.00
H30    H     0.59173   0.53163   0.40408   0.00000  Uiso   1.00
H31    H     0.73907   0.90904   0.11883   0.00000  Uiso   1.00
H32    H     0.67569   0.96301   0.05299   0.00000  Uiso   1.00
H33    H     0.84524   0.80009   0.06893   0.00000  Uiso   1.00
H34    H     0.70210   0.01399   0.23040   0.00000  Uiso   1.00
H35    H     0.59631   0.94400   0.98655   0.00000  Uiso   1.00
H36    H     0.95382   0.60049   0.02017   0.00000  Uiso   1.00
H37    H     0.65197   0.05154   0.36067   0.00000  Uiso   1.00
O38    O     0.52324   0.70856   0.96584   0.00000  Uiso   1.00
O39    O     0.99228   0.25790   0.00996   0.00000  Uiso   1.00
O40    O     0.59626   0.84966   0.45669   0.00000  Uiso   1.00
N41    N     0.55894   0.53905   0.02879   0.00000  Uiso   1.00
N42    N     0.89318   0.21790   0.06021   0.00000  Uiso   1.00
N43    N     0.61100   0.63957   0.37855   0.00000  Uiso   1.00
N44    N     0.59135   0.81882   0.00543   0.00000  Uiso   1.00
N45    N     0.92560   0.49766   0.03685   0.00000  Uiso   1.00
N46    N     0.64341   0.91933   0.35520   0.00000  Uiso   1.00
C47    C     0.31518   0.44092   0.34209   0.00000  Uiso   1.00
C48    C     0.34196   0.53634   0.38337   0.00000  Uiso   1.00
C49    C     0.38252   0.46073   0.40508   0.00000  Uiso   1.00
C50    C     0.40168   0.57027   0.44229   0.00000  Uiso   1.00
C51    C     0.44638   0.69122   0.50415   0.00000  Uiso   1.00
C52    C     0.24984   0.44783   0.37473   0.00000  Uiso   1.00
C53    C     0.21295   0.29779   0.38916   0.00000  Uiso   1.00
C54    C     0.15455   0.33282   0.41907   0.00000  Uiso   1.00
C55    C     0.05623   0.31636   0.46747   0.00000  Uiso   1.00
C56    C     0.32762   0.56404   0.28699   0.00000  Uiso   1.00
C57    C     0.35611   0.51171   0.22765   0.00000  Uiso   1.00
C58    C     0.36319   0.64459   0.18370   0.00000  Uiso   1.00
C59    C     0.38563   0.80856   0.09588   0.00000  Uiso   1.00
C60    C     0.27706   0.76992   0.36955   0.00000  Uiso   1.00
C61    C     0.32125   0.71504   0.39829   0.00000  Uiso   1.00
C62    C     0.34034   0.82473   0.43547   0.00000  Uiso   1.00
C63    C     0.38093   0.74929   0.45723   0.00000  Uiso   1.00
C64    C     0.22913   0.62652   0.38964   0.00000  Uiso   1.00
C65    C     0.17077   0.66178   0.41954   0.00000  Uiso   1.00
C66    C     0.13380   0.51184   0.43402   0.00000  Uiso   1.00
C67    C     0.30691   0.74274   0.30191   0.00000  Uiso   1.00
C68    C     0.31393   0.87571   0.25804   0.00000  Uiso   1.00
C69    C     0.34244   0.82360   0.19865   0.00000  Uiso   1.00
H70    H     0.33130   0.30180   0.33048   0.00000  Uiso   1.00
H71    H     0.39853   0.32243   0.39353   0.00000  Uiso   1.00
H72    H     0.22898   0.15952   0.37760   0.00000  Uiso   1.00
H73    H     0.37213   0.37342   0.21613   0.00000  Uiso   1.00
H74    H     0.46393   0.42408   0.47004   0.00000  Uiso   1.00
H75    H     0.10642   0.08059   0.43643   0.00000  Uiso   1.00
H76    H     0.40827   0.53163   0.09592   0.00000  Uiso   1.00
H77    H     0.26093   0.90904   0.38117   0.00000  Uiso   1.00
H78    H     0.32431   0.96301   0.44701   0.00000  Uiso   1.00
H79    H     0.15476   0.80009   0.43107   0.00000  Uiso   1.00
H80    H     0.29790   0.01399   0.26960   0.00000  Uiso   1.00
H81    H     0.40369   0.94400   0.51345   0.00000  Uiso   1.00
H82    H     0.04618   0.60049   0.47983   0.00000  Uiso   1.00
H83    H     0.34803   0.05154   0.13933   0.00000  Uiso   1.00
O84    O     0.47676   0.70856   0.53416   0.00000  Uiso   1.00
O85    O     0.00772   0.25790   0.49004   0.00000  Uiso   1.00
O86    O     0.40374   0.84966   0.04331   0.00000  Uiso   1.00
N87    N     0.44106   0.53905   0.47121   0.00000  Uiso   1.00
N88    N     0.10682   0.21790   0.43979   0.00000  Uiso   1.00
N89    N     0.38900   0.63957   0.12145   0.00000  Uiso   1.00
N90    N     0.40865   0.81882   0.49457   0.00000  Uiso   1.00
N91    N     0.07440   0.49766   0.46315   0.00000  Uiso   1.00
N92    N     0.35659   0.91933   0.14480   0.00000  Uiso   1.00
C93    C     0.31518   0.55908   0.84209   0.00000  Uiso   1.00
C94    C     0.34196   0.46366   0.88337   0.00000  Uiso   1.00
C95    C     0.38252   0.53927   0.90508   0.00000  Uiso   1.00
C96    C     0.40168   0.42973   0.94229   0.00000  Uiso   1.00
C97    C     0.44638   0.30878   0.00415   0.00000  Uiso   1.00
C98    C     0.24984   0.55217   0.87473   0.00000  Uiso   1.00
C99    C     0.21295   0.70221   0.88916   0.00000  Uiso   1.00
C100   C     0.15455   0.66718   0.91907   0.00000  Uiso   1.00
C101   C     0.05623   0.68364   0.96747   0.00000  Uiso   1.00
C102   C     0.32762   0.43596   0.78699   0.00000  Uiso   1.00
C103   C     0.35611   0.48829   0.72765   0.00000  Uiso   1.00
C104   C     0.36319   0.35541   0.68370   0.00000  Uiso   1.00
C105   C     0.38563   0.19144   0.59588   0.00000  Uiso   1.00
C106   C     0.27706   0.23008   0.86955   0.00000  Uiso   1.00
C107   C     0.32125   0.28496   0.89829   0.00000  Uiso   1.00
C108   C     0.34034   0.17527   0.93547   0.00000  Uiso   1.00
C109   C     0.38093   0.25071   0.95723   0.00000  Uiso   1.00
C110   C     0.22913   0.37348   0.88964   0.00000  Uiso   1.00
C111   C     0.17077   0.33822   0.91954   0.00000  Uiso   1.00
C112   C     0.13380   0.48816   0.93402   0.00000  Uiso   1.00
C113   C     0.30691   0.25726   0.80191   0.00000  Uiso   1.00
C114   C     0.31393   0.12429   0.75804   0.00000  Uiso   1.00
C115   C     0.34244   0.17640   0.69865   0.00000  Uiso   1.00
H116   H     0.33130   0.69820   0.83048   0.00000  Uiso   1.00
H117   H     0.39853   0.67757   0.89353   0.00000  Uiso   1.00
H118   H     0.22898   0.84048   0.87760   0.00000  Uiso   1.00
H119   H     0.37213   0.62658   0.71613   0.00000  Uiso   1.00
H120   H     0.46393   0.57592   0.97004   0.00000  Uiso   1.00
H121   H     0.10642   0.91941   0.93643   0.00000  Uiso   1.00
H122   H     0.40827   0.46837   0.59592   0.00000  Uiso   1.00
H123   H     0.26093   0.09096   0.88117   0.00000  Uiso   1.00
H124   H     0.32431   0.03699   0.94701   0.00000  Uiso   1.00
H125   H     0.15476   0.19991   0.93107   0.00000  Uiso   1.00
H126   H     0.29790   0.98601   0.76960   0.00000  Uiso   1.00
H127   H     0.40369   0.05600   0.01345   0.00000  Uiso   1.00
H128   H     0.04618   0.39951   0.97983   0.00000  Uiso   1.00
H129   H     0.34803   0.94846   0.63933   0.00000  Uiso   1.00
O130   O     0.47676   0.29144   0.03416   0.00000  Uiso   1.00
O131   O     0.00772   0.74210   0.99004   0.00000  Uiso   1.00
O132   O     0.40374   0.15034   0.54331   0.00000  Uiso   1.00
N133   N     0.44106   0.46095   0.97121   0.00000  Uiso   1.00
N134   N     0.10682   0.78210   0.93979   0.00000  Uiso   1.00
N135   N     0.38900   0.36043   0.62145   0.00000  Uiso   1.00
N136   N     0.40865   0.18118   0.99457   0.00000  Uiso   1.00
N137   N     0.07440   0.50234   0.96315   0.00000  Uiso   1.00
N138   N     0.35659   0.08067   0.64480   0.00000  Uiso   1.00
C139   C     0.68482   0.55908   0.65791   0.00000  Uiso   1.00
C140   C     0.65804   0.46366   0.61663   0.00000  Uiso   1.00
C141   C     0.61748   0.53927   0.59492   0.00000  Uiso   1.00
C142   C     0.59832   0.42973   0.55771   0.00000  Uiso   1.00
C143   C     0.55362   0.30878   0.49585   0.00000  Uiso   1.00
C144   C     0.75016   0.55217   0.62527   0.00000  Uiso   1.00
C145   C     0.78705   0.70221   0.61084   0.00000  Uiso   1.00
C146   C     0.84545   0.66718   0.58093   0.00000  Uiso   1.00
C147   C     0.94377   0.68364   0.53253   0.00000  Uiso   1.00
C148   C     0.67238   0.43596   0.71301   0.00000  Uiso   1.00
C149   C     0.64389   0.48829   0.77235   0.00000  Uiso   1.00
C150   C     0.63681   0.35541   0.81630   0.00000  Uiso   1.00
C151   C     0.61437   0.19144   0.90412   0.00000  Uiso   1.00
C152   C     0.72294   0.23008   0.63045   0.00000  Uiso   1.00
C153   C     0.67875   0.28496   0.60171   0.00000  Uiso   1.00
C154   C     0.65966   0.17527   0.56453   0.00000  Uiso   1.00
C155   C     0.61907   0.25071   0.54277   0.00000  Uiso   1.00
C156   C     0.77087   0.37348   0.61036   0.00000  Uiso   1.00
C157   C     0.82923   0.33822   0.58046   0.00000  Uiso   1.00
C158   C     0.86620   0.48816   0.56598   0.00000  Uiso   1.00
C159   C     0.69309   0.25726   0.69809   0.00000  Uiso   1.00
C160   C     0.68607   0.12429   0.74196   0.00000  Uiso   1.00
C161   C     0.65756   0.17640   0.80135   0.00000  Uiso   1.00
H162   H     0.66870   0.69820   0.66952   0.00000  Uiso   1.00
H163   H     0.60147   0.67757   0.60647   0.00000  Uiso   1.00
H164   H     0.77102   0.84048   0.62240   0.00000  Uiso   1.00
H165   H     0.62787   0.62658   0.78387   0.00000  Uiso   1.00
H166   H     0.53607   0.57592   0.52996   0.00000  Uiso   1.00
H167   H     0.89358   0.91941   0.56357   0.00000  Uiso   1.00
H168   H     0.59173   0.46837   0.90408   0.00000  Uiso   1.00
H169   H     0.73907   0.09096   0.61883   0.00000  Uiso   1.00
H170   H     0.67569   0.03699   0.55299   0.00000  Uiso   1.00
H171   H     0.84524   0.19991   0.56893   0.00000  Uiso   1.00
H172   H     0.70210   0.98601   0.73040   0.00000  Uiso   1.00
H173   H     0.59631   0.05600   0.48655   0.00000  Uiso   1.00
H174   H     0.95382   0.39951   0.52017   0.00000  Uiso   1.00
H175   H     0.65197   0.94846   0.86067   0.00000  Uiso   1.00
O176   O     0.52324   0.29144   0.46584   0.00000  Uiso   1.00
O177   O     0.99228   0.74210   0.50996   0.00000  Uiso   1.00
O178   O     0.59626   0.15034   0.95669   0.00000  Uiso   1.00
N179   N     0.55894   0.46095   0.52879   0.00000  Uiso   1.00
N180   N     0.89318   0.78210   0.56021   0.00000  Uiso   1.00
N181   N     0.61100   0.36043   0.87855   0.00000  Uiso   1.00
N182   N     0.59135   0.18118   0.50543   0.00000  Uiso   1.00
N183   N     0.92560   0.50234   0.53685   0.00000  Uiso   1.00
N184   N     0.64341   0.08067   0.85520   0.00000  Uiso   1.00
