data_job_04198
_audit_creation_date              2018-12-19
_audit_creation_method            'Materials Studio'
_symmetry_space_group_name_H-M    'P1'
_symmetry_Int_Tables_number       1
_symmetry_cell_setting            triclinic
loop_
_symmetry_equiv_pos_as_xyz
  x,y,z
_cell_length_a                    9.6937
_cell_length_b                    12.0443
_cell_length_c                    19.2848
_cell_angle_alpha                 103.1674
_cell_angle_beta                  84.0146
_cell_angle_gamma                 111.7157
loop_
_atom_site_label
_atom_site_type_symbol
_atom_site_fract_x
_atom_site_fract_y
_atom_site_fract_z
_atom_site_U_iso_or_equiv
_atom_site_adp_type
_atom_site_occupancy
C1     C     0.11020   0.71990   0.24423   0.00000  Uiso   1.00
C2     C     0.17188   0.61739   0.21995   0.00000  Uiso   1.00
C3     C     0.31908   0.62917   0.22331   0.00000  Uiso   1.00
C4     C     0.35314   0.52451   0.19840   0.00000  Uiso   1.00
C5     C     0.46555   0.38244   0.16482   0.00000  Uiso   1.00
C6     C     0.03425   0.72338   0.17979   0.00000  Uiso   1.00
C7     C     0.06573   0.82427   0.14939   0.00000  Uiso   1.00
C8     C     0.98391   0.80884   0.09068   0.00000  Uiso   1.00
C9     C     0.88258   0.83134   0.99479   0.00000  Uiso   1.00
C10    C     0.98654   0.67721   0.29852   0.00000  Uiso   1.00
C11    C     0.97787   0.73930   0.36796   0.00000  Uiso   1.00
C12    C     0.85586   0.68500   0.40921   0.00000  Uiso   1.00
C13    C     0.68045   0.63583   0.49767   0.00000  Uiso   1.00
C14    C     0.90891   0.51310   0.19401   0.00000  Uiso   1.00
C15    C     0.06254   0.50507   0.19267   0.00000  Uiso   1.00
C16    C     0.09638   0.40037   0.16775   0.00000  Uiso   1.00
C17    C     0.24361   0.41198   0.17108   0.00000  Uiso   1.00
C18    C     0.92492   0.61106   0.15251   0.00000  Uiso   1.00
C19    C     0.84303   0.59548   0.09384   0.00000  Uiso   1.00
C20    C     0.87438   0.69631   0.06336   0.00000  Uiso   1.00
C21    C     0.87721   0.56489   0.27125   0.00000  Uiso   1.00
C22    C     0.75518   0.51049   0.31240   0.00000  Uiso   1.00
C23    C     0.74633   0.57248   0.38189   0.00000  Uiso   1.00
H24    H     0.19532   0.80735   0.26546   0.00000  Uiso   1.00
H25    H     0.40366   0.71611   0.24441   0.00000  Uiso   1.00
H26    H     0.15033   0.91119   0.17052   0.00000  Uiso   1.00
H27    H     0.06250   0.82622   0.38904   0.00000  Uiso   1.00
H28    H     0.58644   0.56543   0.20903   0.00000  Uiso   1.00
H29    H     0.05225   0.97677   0.05323   0.00000  Uiso   1.00
H30    H     0.86704   0.79760   0.51404   0.00000  Uiso   1.00
H31    H     0.82379   0.42565   0.17278   0.00000  Uiso   1.00
H32    H     0.01175   0.31346   0.14665   0.00000  Uiso   1.00
H33    H     0.75843   0.50854   0.07275   0.00000  Uiso   1.00
H34    H     0.67059   0.42357   0.29128   0.00000  Uiso   1.00
H35    H     0.26836   0.23862   0.12968   0.00000  Uiso   1.00
H36    H     0.73416   0.64997   0.97388   0.00000  Uiso   1.00
H37    H     0.54895   0.47079   0.43469   0.00000  Uiso   1.00
O38    O     0.55776   0.33512   0.15382   0.00000  Uiso   1.00
O39    O     0.85690   0.87479   0.94942   0.00000  Uiso   1.00
O40    O     0.61391   0.63972   0.55400   0.00000  Uiso   1.00
N41    N     0.48578   0.50390   0.19395   0.00000  Uiso   1.00
N42    N     0.98636   0.88848   0.04828   0.00000  Uiso   1.00
N43    N     0.81318   0.72099   0.47910   0.00000  Uiso   1.00
N44    N     0.31462   0.32805   0.15126   0.00000  Uiso   1.00
N45    N     0.81520   0.71263   0.00558   0.00000  Uiso   1.00
N46    N     0.64202   0.54514   0.43640   0.00000  Uiso   1.00
C47    C     0.88980   0.28010   0.75577   0.00000  Uiso   1.00
C48    C     0.82812   0.38261   0.78005   0.00000  Uiso   1.00
C49    C     0.68092   0.37083   0.77669   0.00000  Uiso   1.00
C50    C     0.64686   0.47549   0.80160   0.00000  Uiso   1.00
C51    C     0.53445   0.61756   0.83518   0.00000  Uiso   1.00
C52    C     0.96575   0.27662   0.82021   0.00000  Uiso   1.00
C53    C     0.93427   0.17573   0.85061   0.00000  Uiso   1.00
C54    C     0.01609   0.19116   0.90932   0.00000  Uiso   1.00
C55    C     0.11742   0.16866   0.00521   0.00000  Uiso   1.00
C56    C     0.01346   0.32279   0.70148   0.00000  Uiso   1.00
C57    C     0.02213   0.26070   0.63204   0.00000  Uiso   1.00
C58    C     0.14414   0.31500   0.59079   0.00000  Uiso   1.00
C59    C     0.31955   0.36417   0.50233   0.00000  Uiso   1.00
C60    C     0.09109   0.48690   0.80599   0.00000  Uiso   1.00
C61    C     0.93746   0.49493   0.80733   0.00000  Uiso   1.00
C62    C     0.90362   0.59963   0.83225   0.00000  Uiso   1.00
C63    C     0.75639   0.58802   0.82892   0.00000  Uiso   1.00
C64    C     0.07508   0.38894   0.84749   0.00000  Uiso   1.00
C65    C     0.15697   0.40452   0.90616   0.00000  Uiso   1.00
C66    C     0.12562   0.30369   0.93664   0.00000  Uiso   1.00
C67    C     0.12279   0.43511   0.72875   0.00000  Uiso   1.00
C68    C     0.24482   0.48951   0.68760   0.00000  Uiso   1.00
C69    C     0.25367   0.42752   0.61811   0.00000  Uiso   1.00
H70    H     0.80468   0.19265   0.73454   0.00000  Uiso   1.00
H71    H     0.59634   0.28389   0.75559   0.00000  Uiso   1.00
H72    H     0.84967   0.08881   0.82948   0.00000  Uiso   1.00
H73    H     0.93750   0.17378   0.61096   0.00000  Uiso   1.00
H74    H     0.41356   0.43457   0.79097   0.00000  Uiso   1.00
H75    H     0.94775   0.02323   0.94677   0.00000  Uiso   1.00
H76    H     0.13296   0.20240   0.48596   0.00000  Uiso   1.00
H77    H     0.17621   0.57435   0.82722   0.00000  Uiso   1.00
H78    H     0.98825   0.68654   0.85335   0.00000  Uiso   1.00
H79    H     0.24157   0.49146   0.92725   0.00000  Uiso   1.00
H80    H     0.32941   0.57643   0.70872   0.00000  Uiso   1.00
H81    H     0.73164   0.76138   0.87032   0.00000  Uiso   1.00
H82    H     0.26584   0.35003   0.02612   0.00000  Uiso   1.00
H83    H     0.45105   0.52921   0.56531   0.00000  Uiso   1.00
O84    O     0.44224   0.66488   0.84618   0.00000  Uiso   1.00
O85    O     0.14310   0.12521   0.05058   0.00000  Uiso   1.00
O86    O     0.38609   0.36028   0.44600   0.00000  Uiso   1.00
N87    N     0.51422   0.49610   0.80605   0.00000  Uiso   1.00
N88    N     0.01364   0.11152   0.95172   0.00000  Uiso   1.00
N89    N     0.18682   0.27901   0.52090   0.00000  Uiso   1.00
N90    N     0.68538   0.67195   0.84874   0.00000  Uiso   1.00
N91    N     0.18480   0.28737   0.99442   0.00000  Uiso   1.00
N92    N     0.35798   0.45486   0.56360   0.00000  Uiso   1.00
