data_job_03139
_audit_creation_date              2018-12-19
_audit_creation_method            'Materials Studio'
_symmetry_space_group_name_H-M    'P1'
_symmetry_Int_Tables_number       1
_symmetry_cell_setting            triclinic
loop_
_symmetry_equiv_pos_as_xyz
  x,y,z
_cell_length_a                    12.2223
_cell_length_b                    15.3100
_cell_length_c                    13.9237
_cell_angle_alpha                 90.0000
_cell_angle_beta                  90.0000
_cell_angle_gamma                 90.0000
loop_
_atom_site_label
_atom_site_type_symbol
_atom_site_fract_x
_atom_site_fract_y
_atom_site_fract_z
_atom_site_U_iso_or_equiv
_atom_site_adp_type
_atom_site_occupancy
C1     C     0.66985   0.00622   0.73669   0.00000  Uiso   1.00
C2     C     0.69575   0.08834   0.67903   0.00000  Uiso   1.00
C3     C     0.68830   0.17350   0.71252   0.00000  Uiso   1.00
C4     C     0.71556   0.23961   0.64860   0.00000  Uiso   1.00
C5     C     0.75062   0.36993   0.57334   0.00000  Uiso   1.00
C6     C     0.58327   0.95696   0.67938   0.00000  Uiso   1.00
C7     C     0.48126   0.93166   0.71318   0.00000  Uiso   1.00
C8     C     0.41384   0.88717   0.64955   0.00000  Uiso   1.00
C9     C     0.27431   0.81347   0.57486   0.00000  Uiso   1.00
C10    C     0.77278   0.95004   0.73306   0.00000  Uiso   1.00
C11    C     0.83010   0.91889   0.81199   0.00000  Uiso   1.00
C12    C     0.92223   0.86854   0.79356   0.00000  Uiso   1.00
C13    C     0.07695   0.78409   0.80222   0.00000  Uiso   1.00
C14    C     0.73152   0.97218   0.56361   0.00000  Uiso   1.00
C15    C     0.72924   0.06985   0.58501   0.00000  Uiso   1.00
C16    C     0.75653   0.13584   0.52103   0.00000  Uiso   1.00
C17    C     0.74912   0.22109   0.55442   0.00000  Uiso   1.00
C18    C     0.61676   0.93847   0.58537   0.00000  Uiso   1.00
C19    C     0.54949   0.89400   0.52168   0.00000  Uiso   1.00
C20    C     0.44740   0.86864   0.55537   0.00000  Uiso   1.00
C21    C     0.80628   0.93155   0.63905   0.00000  Uiso   1.00
C22    C     0.89834   0.88123   0.62049   0.00000  Uiso   1.00
C23    C     0.95579   0.85002   0.69938   0.00000  Uiso   1.00
H24    H     0.64377   0.02061   0.80988   0.00000  Uiso   1.00
H25    H     0.66236   0.18778   0.78528   0.00000  Uiso   1.00
H26    H     0.45536   0.94597   0.78593   0.00000  Uiso   1.00
H27    H     0.80415   0.93321   0.88473   0.00000  Uiso   1.00
H28    H     0.69771   0.36498   0.71653   0.00000  Uiso   1.00
H29    H     0.26125   0.85507   0.71792   0.00000  Uiso   1.00
H30    H     0.99675   0.82815   0.92626   0.00000  Uiso   1.00
H31    H     0.75760   0.95778   0.49042   0.00000  Uiso   1.00
H32    H     0.78245   0.12152   0.44828   0.00000  Uiso   1.00
H33    H     0.57544   0.87970   0.44894   0.00000  Uiso   1.00
H34    H     0.92423   0.86694   0.54773   0.00000  Uiso   1.00
H35    H     0.79517   0.31119   0.44301   0.00000  Uiso   1.00
H36    H     0.35871   0.80128   0.44440   0.00000  Uiso   1.00
H37    H     0.09421   0.77437   0.65274   0.00000  Uiso   1.00
O38    O     0.76069   0.44692   0.55780   0.00000  Uiso   1.00
O39    O     0.18809   0.77794   0.55964   0.00000  Uiso   1.00
O40    O     0.15305   0.74263   0.83297   0.00000  Uiso   1.00
N41    N     0.71726   0.32985   0.65794   0.00000  Uiso   1.00
N42    N     0.30919   0.85313   0.65924   0.00000  Uiso   1.00
N43    N     0.99680   0.82795   0.85402   0.00000  Uiso   1.00
N44    N     0.76970   0.30091   0.51076   0.00000  Uiso   1.00
N45    N     0.36163   0.82419   0.51206   0.00000  Uiso   1.00
N46    N     0.04925   0.79900   0.70684   0.00000  Uiso   1.00
C47    C     0.33015   0.99378   0.23669   0.00000  Uiso   1.00
C48    C     0.30425   0.91166   0.17903   0.00000  Uiso   1.00
C49    C     0.31170   0.82650   0.21252   0.00000  Uiso   1.00
C50    C     0.28444   0.76039   0.14860   0.00000  Uiso   1.00
C51    C     0.24938   0.63007   0.07334   0.00000  Uiso   1.00
C52    C     0.41673   0.04304   0.17938   0.00000  Uiso   1.00
C53    C     0.51874   0.06834   0.21318   0.00000  Uiso   1.00
C54    C     0.58616   0.11283   0.14955   0.00000  Uiso   1.00
C55    C     0.72569   0.18653   0.07486   0.00000  Uiso   1.00
C56    C     0.22722   0.04996   0.23306   0.00000  Uiso   1.00
C57    C     0.16990   0.08111   0.31199   0.00000  Uiso   1.00
C58    C     0.07777   0.13146   0.29356   0.00000  Uiso   1.00
C59    C     0.92305   0.21591   0.30222   0.00000  Uiso   1.00
C60    C     0.26848   0.02782   0.06361   0.00000  Uiso   1.00
C61    C     0.27076   0.93015   0.08501   0.00000  Uiso   1.00
C62    C     0.24347   0.86416   0.02103   0.00000  Uiso   1.00
C63    C     0.25088   0.77891   0.05442   0.00000  Uiso   1.00
C64    C     0.38324   0.06153   0.08537   0.00000  Uiso   1.00
C65    C     0.45051   0.10600   0.02168   0.00000  Uiso   1.00
C66    C     0.55260   0.13136   0.05537   0.00000  Uiso   1.00
C67    C     0.19372   0.06845   0.13905   0.00000  Uiso   1.00
C68    C     0.10166   0.11877   0.12049   0.00000  Uiso   1.00
C69    C     0.04421   0.14998   0.19938   0.00000  Uiso   1.00
H70    H     0.35623   0.97939   0.30988   0.00000  Uiso   1.00
H71    H     0.33764   0.81222   0.28528   0.00000  Uiso   1.00
H72    H     0.54464   0.05403   0.28593   0.00000  Uiso   1.00
H73    H     0.19585   0.06679   0.38473   0.00000  Uiso   1.00
H74    H     0.30229   0.63502   0.21653   0.00000  Uiso   1.00
H75    H     0.73875   0.14493   0.21792   0.00000  Uiso   1.00
H76    H     0.00325   0.17185   0.42626   0.00000  Uiso   1.00
H77    H     0.24240   0.04222   0.99042   0.00000  Uiso   1.00
H78    H     0.21755   0.87848   0.94828   0.00000  Uiso   1.00
H79    H     0.42456   0.12030   0.94894   0.00000  Uiso   1.00
H80    H     0.07577   0.13306   0.04773   0.00000  Uiso   1.00
H81    H     0.20483   0.68881   0.94301   0.00000  Uiso   1.00
H82    H     0.64129   0.19872   0.94440   0.00000  Uiso   1.00
H83    H     0.90579   0.22563   0.15274   0.00000  Uiso   1.00
O84    O     0.23931   0.55308   0.05780   0.00000  Uiso   1.00
O85    O     0.81191   0.22206   0.05964   0.00000  Uiso   1.00
O86    O     0.84695   0.25737   0.33297   0.00000  Uiso   1.00
N87    N     0.28274   0.67015   0.15794   0.00000  Uiso   1.00
N88    N     0.69081   0.14687   0.15924   0.00000  Uiso   1.00
N89    N     0.00320   0.17205   0.35402   0.00000  Uiso   1.00
N90    N     0.23030   0.69909   0.01076   0.00000  Uiso   1.00
N91    N     0.63837   0.17581   0.01206   0.00000  Uiso   1.00
N92    N     0.95075   0.20100   0.20684   0.00000  Uiso   1.00
C93    C     0.16985   0.49378   0.73669   0.00000  Uiso   1.00
C94    C     0.19575   0.41166   0.67903   0.00000  Uiso   1.00
C95    C     0.18830   0.32650   0.71252   0.00000  Uiso   1.00
C96    C     0.21556   0.26039   0.64860   0.00000  Uiso   1.00
C97    C     0.25062   0.13007   0.57334   0.00000  Uiso   1.00
C98    C     0.08327   0.54304   0.67938   0.00000  Uiso   1.00
C99    C     0.98126   0.56834   0.71318   0.00000  Uiso   1.00
C100   C     0.91384   0.61283   0.64955   0.00000  Uiso   1.00
C101   C     0.77431   0.68653   0.57486   0.00000  Uiso   1.00
C102   C     0.27278   0.54996   0.73306   0.00000  Uiso   1.00
C103   C     0.33010   0.58111   0.81199   0.00000  Uiso   1.00
C104   C     0.42223   0.63146   0.79356   0.00000  Uiso   1.00
C105   C     0.57695   0.71591   0.80222   0.00000  Uiso   1.00
C106   C     0.23152   0.52782   0.56361   0.00000  Uiso   1.00
C107   C     0.22924   0.43015   0.58501   0.00000  Uiso   1.00
C108   C     0.25653   0.36416   0.52103   0.00000  Uiso   1.00
C109   C     0.24912   0.27891   0.55442   0.00000  Uiso   1.00
C110   C     0.11676   0.56153   0.58537   0.00000  Uiso   1.00
C111   C     0.04949   0.60600   0.52168   0.00000  Uiso   1.00
C112   C     0.94740   0.63136   0.55537   0.00000  Uiso   1.00
C113   C     0.30628   0.56845   0.63905   0.00000  Uiso   1.00
C114   C     0.39834   0.61877   0.62049   0.00000  Uiso   1.00
C115   C     0.45579   0.64998   0.69938   0.00000  Uiso   1.00
H116   H     0.14377   0.47939   0.80988   0.00000  Uiso   1.00
H117   H     0.16236   0.31222   0.78528   0.00000  Uiso   1.00
H118   H     0.95536   0.55403   0.78593   0.00000  Uiso   1.00
H119   H     0.30415   0.56679   0.88473   0.00000  Uiso   1.00
H120   H     0.19771   0.13502   0.71653   0.00000  Uiso   1.00
H121   H     0.76125   0.64493   0.71792   0.00000  Uiso   1.00
H122   H     0.49675   0.67185   0.92626   0.00000  Uiso   1.00
H123   H     0.25760   0.54222   0.49042   0.00000  Uiso   1.00
H124   H     0.28245   0.37848   0.44828   0.00000  Uiso   1.00
H125   H     0.07544   0.62030   0.44894   0.00000  Uiso   1.00
H126   H     0.42423   0.63306   0.54773   0.00000  Uiso   1.00
H127   H     0.29517   0.18881   0.44301   0.00000  Uiso   1.00
H128   H     0.85871   0.69872   0.44440   0.00000  Uiso   1.00
H129   H     0.59421   0.72563   0.65274   0.00000  Uiso   1.00
O130   O     0.26069   0.05308   0.55780   0.00000  Uiso   1.00
O131   O     0.68809   0.72206   0.55964   0.00000  Uiso   1.00
O132   O     0.65305   0.75737   0.83297   0.00000  Uiso   1.00
N133   N     0.21726   0.17015   0.65794   0.00000  Uiso   1.00
N134   N     0.80919   0.64687   0.65924   0.00000  Uiso   1.00
N135   N     0.49680   0.67205   0.85402   0.00000  Uiso   1.00
N136   N     0.26970   0.19909   0.51076   0.00000  Uiso   1.00
N137   N     0.86163   0.67581   0.51206   0.00000  Uiso   1.00
N138   N     0.54925   0.70100   0.70684   0.00000  Uiso   1.00
C139   C     0.83015   0.50622   0.23669   0.00000  Uiso   1.00
C140   C     0.80425   0.58834   0.17903   0.00000  Uiso   1.00
C141   C     0.81170   0.67350   0.21252   0.00000  Uiso   1.00
C142   C     0.78444   0.73961   0.14860   0.00000  Uiso   1.00
C143   C     0.74938   0.86993   0.07334   0.00000  Uiso   1.00
C144   C     0.91673   0.45696   0.17938   0.00000  Uiso   1.00
C145   C     0.01874   0.43166   0.21318   0.00000  Uiso   1.00
C146   C     0.08616   0.38717   0.14955   0.00000  Uiso   1.00
C147   C     0.22569   0.31347   0.07486   0.00000  Uiso   1.00
C148   C     0.72722   0.45004   0.23306   0.00000  Uiso   1.00
C149   C     0.66990   0.41889   0.31199   0.00000  Uiso   1.00
C150   C     0.57777   0.36854   0.29356   0.00000  Uiso   1.00
C151   C     0.42305   0.28409   0.30222   0.00000  Uiso   1.00
C152   C     0.76848   0.47218   0.06361   0.00000  Uiso   1.00
C153   C     0.77076   0.56985   0.08501   0.00000  Uiso   1.00
C154   C     0.74347   0.63584   0.02103   0.00000  Uiso   1.00
C155   C     0.75088   0.72109   0.05442   0.00000  Uiso   1.00
C156   C     0.88324   0.43847   0.08537   0.00000  Uiso   1.00
C157   C     0.95051   0.39400   0.02168   0.00000  Uiso   1.00
C158   C     0.05260   0.36864   0.05537   0.00000  Uiso   1.00
C159   C     0.69372   0.43155   0.13905   0.00000  Uiso   1.00
C160   C     0.60166   0.38123   0.12049   0.00000  Uiso   1.00
C161   C     0.54421   0.35002   0.19938   0.00000  Uiso   1.00
H162   H     0.85623   0.52061   0.30988   0.00000  Uiso   1.00
H163   H     0.83764   0.68778   0.28528   0.00000  Uiso   1.00
H164   H     0.04464   0.44597   0.28593   0.00000  Uiso   1.00
H165   H     0.69585   0.43321   0.38473   0.00000  Uiso   1.00
H166   H     0.80229   0.86498   0.21653   0.00000  Uiso   1.00
H167   H     0.23875   0.35507   0.21792   0.00000  Uiso   1.00
H168   H     0.50325   0.32815   0.42626   0.00000  Uiso   1.00
H169   H     0.74240   0.45778   0.99042   0.00000  Uiso   1.00
H170   H     0.71755   0.62152   0.94828   0.00000  Uiso   1.00
H171   H     0.92456   0.37970   0.94894   0.00000  Uiso   1.00
H172   H     0.57577   0.36694   0.04773   0.00000  Uiso   1.00
H173   H     0.70483   0.81119   0.94301   0.00000  Uiso   1.00
H174   H     0.14129   0.30128   0.94440   0.00000  Uiso   1.00
H175   H     0.40579   0.27437   0.15274   0.00000  Uiso   1.00
O176   O     0.73931   0.94692   0.05780   0.00000  Uiso   1.00
O177   O     0.31191   0.27794   0.05964   0.00000  Uiso   1.00
O178   O     0.34695   0.24263   0.33297   0.00000  Uiso   1.00
N179   N     0.78274   0.82985   0.15794   0.00000  Uiso   1.00
N180   N     0.19081   0.35313   0.15924   0.00000  Uiso   1.00
N181   N     0.50320   0.32795   0.35402   0.00000  Uiso   1.00
N182   N     0.73030   0.80091   0.01076   0.00000  Uiso   1.00
N183   N     0.13837   0.32419   0.01206   0.00000  Uiso   1.00
N184   N     0.45075   0.29900   0.20684   0.00000  Uiso   1.00
