data_job_06598
_audit_creation_date              2018-12-19
_audit_creation_method            'Materials Studio'
_symmetry_space_group_name_H-M    'P1'
_symmetry_Int_Tables_number       1
_symmetry_cell_setting            triclinic
loop_
_symmetry_equiv_pos_as_xyz
  x,y,z
_cell_length_a                    19.0258
_cell_length_b                    19.4191
_cell_length_c                    25.4483
_cell_angle_alpha                 110.1660
_cell_angle_beta                  90.1001
_cell_angle_gamma                 119.1160
loop_
_atom_site_label
_atom_site_type_symbol
_atom_site_fract_x
_atom_site_fract_y
_atom_site_fract_z
_atom_site_U_iso_or_equiv
_atom_site_adp_type
_atom_site_occupancy
C1     C     0.17640   0.81366   0.07585   0.00000  Uiso   1.00
C2     C     0.13236   0.83084   0.03633   0.00000  Uiso   1.00
C3     C     0.07374   0.76961   0.98661   0.00000  Uiso   1.00
C4     C     0.04072   0.79827   0.95642   0.00000  Uiso   1.00
C5     C     0.96860   0.81176   0.89217   0.00000  Uiso   1.00
C6     C     0.26810   0.87137   0.08005   0.00000  Uiso   1.00
C7     C     0.32362   0.84421   0.06709   0.00000  Uiso   1.00
C8     C     0.40487   0.90699   0.07371   0.00000  Uiso   1.00
C9     C     0.54351   0.98341   0.07737   0.00000  Uiso   1.00
C10    C     0.15998   0.84825   0.13503   0.00000  Uiso   1.00
C11    C     0.12461   0.80167   0.16830   0.00000  Uiso   1.00
C12    C     0.11485   0.84500   0.22123   0.00000  Uiso   1.00
C13    C     0.08562   0.88552   0.31025   0.00000  Uiso   1.00
C14    C     0.22198   0.97344   0.11067   0.00000  Uiso   1.00
C15    C     0.15712   0.91763   0.05525   0.00000  Uiso   1.00
C16    C     0.12417   0.94639   0.02513   0.00000  Uiso   1.00
C17    C     0.06552   0.88521   0.97537   0.00000  Uiso   1.00
C18    C     0.29286   0.95815   0.09896   0.00000  Uiso   1.00
C19    C     0.37405   0.02099   0.10561   0.00000  Uiso   1.00
C20    C     0.42968   0.99393   0.09266   0.00000  Uiso   1.00
C21    C     0.18474   0.93504   0.15394   0.00000  Uiso   1.00
C22    C     0.17504   0.97845   0.20683   0.00000  Uiso   1.00
C23    C     0.13966   0.93194   0.24018   0.00000  Uiso   1.00
H24    H     0.15713   0.74609   0.06112   0.00000  Uiso   1.00
H25    H     0.05461   0.70245   0.97198   0.00000  Uiso   1.00
H26    H     0.30444   0.77705   0.05246   0.00000  Uiso   1.00
H27    H     0.10546   0.73451   0.15365   0.00000  Uiso   1.00
H28    H     0.95188   0.69235   0.88148   0.00000  Uiso   1.00
H29    H     0.47868   0.84964   0.05118   0.00000  Uiso   1.00
H30    H     0.05910   0.75994   0.26458   0.00000  Uiso   1.00
H31    H     0.24126   0.04101   0.12540   0.00000  Uiso   1.00
H32    H     0.14335   0.01355   0.03978   0.00000  Uiso   1.00
H33    H     0.39319   0.08814   0.12025   0.00000  Uiso   1.00
H34    H     0.19421   0.04561   0.22145   0.00000  Uiso   1.00
H35    H     0.02391   0.94485   0.93651   0.00000  Uiso   1.00
H36    H     0.55072   0.10214   0.10621   0.00000  Uiso   1.00
H37    H     0.13112   0.01244   0.31961   0.00000  Uiso   1.00
O38    O     0.92199   0.79522   0.85150   0.00000  Uiso   1.00
O39    O     0.61313   0.00157   0.07416   0.00000  Uiso   1.00
O40    O     0.06264   0.88390   0.35412   0.00000  Uiso   1.00
N41    N     0.98226   0.75554   0.90619   0.00000  Uiso   1.00
N42    N     0.47479   0.90259   0.06484   0.00000  Uiso   1.00
N43    N     0.08252   0.81874   0.26435   0.00000  Uiso   1.00
N44    N     0.02101   0.89141   0.93580   0.00000  Uiso   1.00
N45    N     0.51354   0.03846   0.09445   0.00000  Uiso   1.00
N46    N     0.12128   0.95461   0.29396   0.00000  Uiso   1.00
C47    C     0.43309   0.55041   0.02187   0.00000  Uiso   1.00
C48    C     0.36711   0.47229   0.97137   0.00000  Uiso   1.00
C49    C     0.36120   0.46311   0.91472   0.00000  Uiso   1.00
C50    C     0.29635   0.38676   0.87487   0.00000  Uiso   1.00
C51    C     0.20253   0.27533   0.79399   0.00000  Uiso   1.00
C52    C     0.38734   0.58016   0.06443   0.00000  Uiso   1.00
C53    C     0.39846   0.66167   0.08601   0.00000  Uiso   1.00
C54    C     0.35065   0.67612   0.12450   0.00000  Uiso   1.00
C55    C     0.28828   0.73218   0.18812   0.00000  Uiso   1.00
C56    C     0.47308   0.51706   0.05035   0.00000  Uiso   1.00
C57    C     0.55629   0.54553   0.06012   0.00000  Uiso   1.00
C58    C     0.58067   0.50687   0.08678   0.00000  Uiso   1.00
C59    C     0.65142   0.46496   0.12855   0.00000  Uiso   1.00
C60    C     0.32841   0.43115   0.05186   0.00000  Uiso   1.00
C61    C     0.31025   0.40752   0.98766   0.00000  Uiso   1.00
C62    C     0.24539   0.33116   0.94789   0.00000  Uiso   1.00
C63    C     0.23940   0.32186   0.89119   0.00000  Uiso   1.00
C64    C     0.33049   0.51539   0.08071   0.00000  Uiso   1.00
C65    C     0.28265   0.52972   0.11919   0.00000  Uiso   1.00
C66    C     0.29369   0.61123   0.14082   0.00000  Uiso   1.00
C67    C     0.41622   0.45228   0.06664   0.00000  Uiso   1.00
C68    C     0.44048   0.41358   0.09330   0.00000  Uiso   1.00
C69    C     0.52371   0.44198   0.10310   0.00000  Uiso   1.00
H70    H     0.47735   0.60085   0.00919   0.00000  Uiso   1.00
H71    H     0.40521   0.51326   0.90213   0.00000  Uiso   1.00
H72    H     0.44247   0.71179   0.07340   0.00000  Uiso   1.00
H73    H     0.60027   0.59566   0.04751   0.00000  Uiso   1.00
H74    H     0.30014   0.38759   0.79062   0.00000  Uiso   1.00
H75    H     0.37872   0.80621   0.15177   0.00000  Uiso   1.00
H76    H     0.71148   0.56134   0.09718   0.00000  Uiso   1.00
H77    H     0.28415   0.38072   0.06454   0.00000  Uiso   1.00
H78    H     0.20141   0.28104   0.96051   0.00000  Uiso   1.00
H79    H     0.23866   0.47958   0.13178   0.00000  Uiso   1.00
H80    H     0.39646   0.36345   0.10590   0.00000  Uiso   1.00
H81    H     0.13473   0.19912   0.83801   0.00000  Uiso   1.00
H82    H     0.21331   0.61775   0.19916   0.00000  Uiso   1.00
H83    H     0.54606   0.37287   0.14457   0.00000  Uiso   1.00
O84    O     0.16648   0.23177   0.74489   0.00000  Uiso   1.00
O85    O     0.26958   0.78099   0.21871   0.00000  Uiso   1.00
O86    O     0.70614   0.45972   0.14709   0.00000  Uiso   1.00
N87    N     0.27258   0.35690   0.81605   0.00000  Uiso   1.00
N88    N     0.34603   0.74829   0.15369   0.00000  Uiso   1.00
N89    N     0.65713   0.51937   0.10267   0.00000  Uiso   1.00
N90    N     0.18357   0.25549   0.84154   0.00000  Uiso   1.00
N91    N     0.25702   0.64688   0.17919   0.00000  Uiso   1.00
N92    N     0.56813   0.41796   0.12817   0.00000  Uiso   1.00
C93    C     0.75926   0.94381   0.10726   0.00000  Uiso   1.00
C94    C     0.75386   0.89533   0.04436   0.00000  Uiso   1.00
C95    C     0.68437   0.84925   0.00107   0.00000  Uiso   1.00
C96    C     0.69199   0.80942   0.94632   0.00000  Uiso   1.00
C97    C     0.67226   0.73318   0.85033   0.00000  Uiso   1.00
C98    C     0.78885   0.90761   0.14060   0.00000  Uiso   1.00
C99    C     0.74879   0.87188   0.17824   0.00000  Uiso   1.00
C100   C     0.78588   0.84240   0.20450   0.00000  Uiso   1.00
C101   C     0.82051   0.78530   0.25796   0.00000  Uiso   1.00
C102   C     0.82902   0.03615   0.12293   0.00000  Uiso   1.00
C103   C     0.82275   0.10850   0.14573   0.00000  Uiso   1.00
C104   C     0.89367   0.18724   0.15714   0.00000  Uiso   1.00
C105   C     0.99067   0.32971   0.18316   0.00000  Uiso   1.00
C106   C     0.89636   0.95501   0.08699   0.00000  Uiso   1.00
C107   C     0.82833   0.90141   0.03335   0.00000  Uiso   1.00
C108   C     0.83606   0.86164   0.97864   0.00000  Uiso   1.00
C109   C     0.76660   0.81552   0.93529   0.00000  Uiso   1.00
C110   C     0.86332   0.91370   0.12959   0.00000  Uiso   1.00
C111   C     0.90048   0.88427   0.15581   0.00000  Uiso   1.00
C112   C     0.86048   0.84850   0.19348   0.00000  Uiso   1.00
C113   C     0.90349   0.04224   0.11192   0.00000  Uiso   1.00
C114   C     0.97444   0.12089   0.12330   0.00000  Uiso   1.00
C115   C     0.96827   0.19334   0.14611   0.00000  Uiso   1.00
H116   H     0.70128   0.93907   0.11583   0.00000  Uiso   1.00
H117   H     0.62675   0.84455   0.00961   0.00000  Uiso   1.00
H118   H     0.69117   0.86719   0.18675   0.00000  Uiso   1.00
H119   H     0.76511   0.10376   0.15424   0.00000  Uiso   1.00
H120   H     0.57695   0.74241   0.88699   0.00000  Uiso   1.00
H121   H     0.71279   0.79017   0.26052   0.00000  Uiso   1.00
H122   H     0.86871   0.28904   0.19197   0.00000  Uiso   1.00
H123   H     0.95434   0.95975   0.07842   0.00000  Uiso   1.00
H124   H     0.89370   0.86636   0.97014   0.00000  Uiso   1.00
H125   H     0.95811   0.88900   0.14728   0.00000  Uiso   1.00
H126   H     0.03205   0.12557   0.11477   0.00000  Uiso   1.00
H127   H     0.79361   0.76011   0.85496   0.00000  Uiso   1.00
H128   H     0.92945   0.80787   0.22849   0.00000  Uiso   1.00
H129   H     0.08538   0.30674   0.15994   0.00000  Uiso   1.00
O130   O     0.64081   0.68943   0.80042   0.00000  Uiso   1.00
O131   O     0.81903   0.75211   0.29049   0.00000  Uiso   1.00
O132   O     0.02360   0.40661   0.20055   0.00000  Uiso   1.00
N133   N     0.63627   0.75941   0.89431   0.00000  Uiso   1.00
N134   N     0.76326   0.80405   0.24353   0.00000  Uiso   1.00
N135   N     0.90904   0.27045   0.17946   0.00000  Uiso   1.00
N136   N     0.75285   0.76894   0.87707   0.00000  Uiso   1.00
N137   N     0.87985   0.81357   0.22629   0.00000  Uiso   1.00
N138   N     0.02563   0.27998   0.16222   0.00000  Uiso   1.00
C139   C     0.61631   0.66301   0.61196   0.00000  Uiso   1.00
C140   C     0.62785   0.65020   0.55072   0.00000  Uiso   1.00
C141   C     0.57289   0.58118   0.50168   0.00000  Uiso   1.00
C142   C     0.59472   0.58132   0.44967   0.00000  Uiso   1.00
C143   C     0.60135   0.55129   0.35501   0.00000  Uiso   1.00
C144   C     0.62325   0.75004   0.63849   0.00000  Uiso   1.00
C145   C     0.56441   0.76497   0.66323   0.00000  Uiso   1.00
C146   C     0.58237   0.84916   0.68511   0.00000  Uiso   1.00
C147   C     0.58187   0.97414   0.72675   0.00000  Uiso   1.00
C148   C     0.69138   0.67308   0.64313   0.00000  Uiso   1.00
C149   C     0.68984   0.62331   0.67180   0.00000  Uiso   1.00
C150   C     0.76517   0.64272   0.69761   0.00000  Uiso   1.00
C151   C     0.87046   0.64820   0.74646   0.00000  Uiso   1.00
C152   C     0.75283   0.78600   0.60681   0.00000  Uiso   1.00
C153   C     0.70201   0.71700   0.54793   0.00000  Uiso   1.00
C154   C     0.72394   0.71725   0.49598   0.00000  Uiso   1.00
C155   C     0.66901   0.64824   0.44687   0.00000  Uiso   1.00
C156   C     0.69740   0.81684   0.63569   0.00000  Uiso   1.00
C157   C     0.71546   0.90103   0.65754   0.00000  Uiso   1.00
C158   C     0.65666   0.91608   0.68231   0.00000  Uiso   1.00
C159   C     0.76554   0.73988   0.64034   0.00000  Uiso   1.00
C160   C     0.84089   0.75937   0.66611   0.00000  Uiso   1.00
C161   C     0.83946   0.70964   0.69481   0.00000  Uiso   1.00
H162   H     0.55858   0.61101   0.61413   0.00000  Uiso   1.00
H163   H     0.51550   0.52950   0.50386   0.00000  Uiso   1.00
H164   H     0.50703   0.71326   0.66540   0.00000  Uiso   1.00
H165   H     0.63244   0.57162   0.67396   0.00000  Uiso   1.00
H166   H     0.50044   0.46861   0.38036   0.00000  Uiso   1.00
H167   H     0.48259   0.85608   0.72099   0.00000  Uiso   1.00
H168   H     0.74704   0.55740   0.73905   0.00000  Uiso   1.00
H169   H     0.81057   0.83801   0.60464   0.00000  Uiso   1.00
H170   H     0.78133   0.76895   0.49383   0.00000  Uiso   1.00
H171   H     0.77285   0.95271   0.65537   0.00000  Uiso   1.00
H172   H     0.89826   0.81107   0.66394   0.00000  Uiso   1.00
H173   H     0.71619   0.66296   0.37222   0.00000  Uiso   1.00
H174   H     0.69834   0.05043   0.71286   0.00000  Uiso   1.00
H175   H     0.96279   0.75175   0.73092   0.00000  Uiso   1.00
O176   O     0.58452   0.51628   0.30357   0.00000  Uiso   1.00
O177   O     0.56110   0.02462   0.75048   0.00000  Uiso   1.00
O178   O     0.90805   0.63276   0.77417   0.00000  Uiso   1.00
N179   N     0.55524   0.52382   0.39365   0.00000  Uiso   1.00
N180   N     0.53854   0.88608   0.71211   0.00000  Uiso   1.00
N181   N     0.78578   0.60685   0.72901   0.00000  Uiso   1.00
N182   N     0.67133   0.62840   0.38927   0.00000  Uiso   1.00
N183   N     0.65463   0.99065   0.70774   0.00000  Uiso   1.00
N184   N     0.90187   0.71143   0.72463   0.00000  Uiso   1.00
C185   C     0.20906   0.51309   0.58910   0.00000  Uiso   1.00
C186   C     0.18101   0.41996   0.55221   0.00000  Uiso   1.00
C187   C     0.20504   0.39172   0.50163   0.00000  Uiso   1.00
C188   C     0.17252   0.30393   0.47424   0.00000  Uiso   1.00
C189   C     0.13730   0.16806   0.41355   0.00000  Uiso   1.00
C190   C     0.24640   0.53045   0.64865   0.00000  Uiso   1.00
C191   C     0.32541   0.59511   0.67916   0.00000  Uiso   1.00
C192   C     0.34792   0.60033   0.73295   0.00000  Uiso   1.00
C193   C     0.41420   0.63603   0.82200   0.00000  Uiso   1.00
C194   C     0.13089   0.51645   0.59476   0.00000  Uiso   1.00
C195   C     0.11279   0.56936   0.57998   0.00000  Uiso   1.00
C196   C     0.03806   0.56281   0.58841   0.00000  Uiso   1.00
C197   C     0.92500   0.57677   0.59379   0.00000  Uiso   1.00
C198   C     0.10854   0.40741   0.63039   0.00000  Uiso   1.00
C199   C     0.12641   0.36256   0.57464   0.00000  Uiso   1.00
C200   C     0.09383   0.27479   0.54731   0.00000  Uiso   1.00
C201   C     0.11782   0.24642   0.49670   0.00000  Uiso   1.00
C202   C     0.19181   0.47305   0.67107   0.00000  Uiso   1.00
C203   C     0.21420   0.47818   0.72484   0.00000  Uiso   1.00
C204   C     0.29323   0.54282   0.75542   0.00000  Uiso   1.00
C205   C     0.07629   0.45904   0.61718   0.00000  Uiso   1.00
C206   C     0.00158   0.45242   0.62565   0.00000  Uiso   1.00
C207   C     0.98336   0.50530   0.61088   0.00000  Uiso   1.00
H208   H     0.25157   0.55779   0.57165   0.00000  Uiso   1.00
H209   H     0.24730   0.43617   0.48429   0.00000  Uiso   1.00
H210   H     0.36764   0.63953   0.66179   0.00000  Uiso   1.00
H211   H     0.15505   0.61377   0.56262   0.00000  Uiso   1.00
H212   H     0.21852   0.27601   0.39735   0.00000  Uiso   1.00
H213   H     0.47226   0.70483   0.77162   0.00000  Uiso   1.00
H214   H     0.02397   0.65052   0.56250   0.00000  Uiso   1.00
H215   H     0.06603   0.36272   0.64786   0.00000  Uiso   1.00
H216   H     0.05159   0.23038   0.56468   0.00000  Uiso   1.00
H217   H     0.17193   0.43375   0.74218   0.00000  Uiso   1.00
H218   H     0.95934   0.40799   0.64301   0.00000  Uiso   1.00
H219   H     0.05968   0.10899   0.46259   0.00000  Uiso   1.00
H220   H     0.31341   0.53781   0.83687   0.00000  Uiso   1.00
H221   H     0.86513   0.48350   0.62774   0.00000  Uiso   1.00
O222   O     0.13297   0.10897   0.37389   0.00000  Uiso   1.00
O223   O     0.46585   0.67157   0.86493   0.00000  Uiso   1.00
O224   O     0.87771   0.60031   0.59056   0.00000  Uiso   1.00
N225   N     0.18311   0.25486   0.42411   0.00000  Uiso   1.00
N226   N     0.42034   0.65577   0.77403   0.00000  Uiso   1.00
N227   N     0.00124   0.60501   0.57854   0.00000  Uiso   1.00
N228   N     0.09763   0.16499   0.45922   0.00000  Uiso   1.00
N229   N     0.33487   0.56590   0.80914   0.00000  Uiso   1.00
N230   N     0.91577   0.51514   0.61364   0.00000  Uiso   1.00
C231   C     0.41387   0.96736   0.58961   0.00000  Uiso   1.00
C232   C     0.39622   0.92903   0.52437   0.00000  Uiso   1.00
C233   C     0.41469   0.86926   0.49032   0.00000  Uiso   1.00
C234   C     0.39357   0.84214   0.43151   0.00000  Uiso   1.00
C235   C     0.37194   0.77779   0.33384   0.00000  Uiso   1.00
C236   C     0.33148   0.94847   0.60640   0.00000  Uiso   1.00
C237   C     0.29552   0.90505   0.64132   0.00000  Uiso   1.00
C238   C     0.21990   0.89431   0.65156   0.00000  Uiso   1.00
C239   C     0.09779   0.86019   0.68128   0.00000  Uiso   1.00
C240   C     0.46570   0.06441   0.60796   0.00000  Uiso   1.00
C241   C     0.54259   0.11848   0.64420   0.00000  Uiso   1.00
C242   C     0.57998   0.20536   0.65576   0.00000  Uiso   1.00
C243   C     0.66627   0.35125   0.68790   0.00000  Uiso   1.00
C244   C     0.34353   0.02549   0.54570   0.00000  Uiso   1.00
C245   C     0.35801   0.96060   0.50053   0.00000  Uiso   1.00
C246   C     0.33686   0.93357   0.44175   0.00000  Uiso   1.00
C247   C     0.35530   0.87377   0.40762   0.00000  Uiso   1.00
C248   C     0.29327   0.98004   0.58255   0.00000  Uiso   1.00
C249   C     0.21770   0.96936   0.59275   0.00000  Uiso   1.00
C250   C     0.18163   0.92594   0.62767   0.00000  Uiso   1.00
C251   C     0.42750   0.09598   0.58411   0.00000  Uiso   1.00
C252   C     0.46477   0.18279   0.59562   0.00000  Uiso   1.00
C253   C     0.54170   0.23699   0.63187   0.00000  Uiso   1.00
H254   H     0.44361   0.94278   0.60817   0.00000  Uiso   1.00
H255   H     0.44425   0.84484   0.50879   0.00000  Uiso   1.00
H256   H     0.32510   0.88064   0.65978   0.00000  Uiso   1.00
H257   H     0.57214   0.09403   0.66265   0.00000  Uiso   1.00
H258   H     0.42808   0.75015   0.38810   0.00000  Uiso   1.00
H259   H     0.17686   0.82566   0.70647   0.00000  Uiso   1.00
H260   H     0.69779   0.27564   0.71252   0.00000  Uiso   1.00
H261   H     0.31378   0.05007   0.52714   0.00000  Uiso   1.00
H262   H     0.30730   0.95801   0.42331   0.00000  Uiso   1.00
H263   H     0.18815   0.99381   0.57429   0.00000  Uiso   1.00
H264   H     0.43519   0.20720   0.57716   0.00000  Uiso   1.00
H265   H     0.31692   0.84200   0.31871   0.00000  Uiso   1.00
H266   H     0.06571   0.91751   0.63708   0.00000  Uiso   1.00
H267   H     0.58664   0.36750   0.64314   0.00000  Uiso   1.00
O268   O     0.37055   0.73356   0.28656   0.00000  Uiso   1.00
O269   O     0.04098   0.83264   0.70426   0.00000  Uiso   1.00
O270   O     0.72442   0.42300   0.71220   0.00000  Uiso   1.00
N271   N     0.40282   0.78441   0.38602   0.00000  Uiso   1.00
N272   N     0.16795   0.85500   0.68367   0.00000  Uiso   1.00
N273   N     0.65496   0.27570   0.68934   0.00000  Uiso   1.00
N274   N     0.34301   0.83384   0.34868   0.00000  Uiso   1.00
N275   N     0.10813   0.90442   0.64633   0.00000  Uiso   1.00
N276   N     0.59515   0.32512   0.65201   0.00000  Uiso   1.00
C277   C     0.90681   0.15843   0.86390   0.00000  Uiso   1.00
C278   C     0.95679   0.14794   0.90417   0.00000  Uiso   1.00
C279   C     0.01630   0.21335   0.95249   0.00000  Uiso   1.00
C280   C     0.05509   0.19059   0.98369   0.00000  Uiso   1.00
C281   C     0.13571   0.18723   0.04876   0.00000  Uiso   1.00
C282   C     0.81676   0.09779   0.86220   0.00000  Uiso   1.00
C283   C     0.75853   0.12104   0.87522   0.00000  Uiso   1.00
C284   C     0.67943   0.05606   0.87108   0.00000  Uiso   1.00
C285   C     0.54264   0.97484   0.87095   0.00000  Uiso   1.00
C286   C     0.92158   0.12217   0.80441   0.00000  Uiso   1.00
C287   C     0.95145   0.16590   0.76884   0.00000  Uiso   1.00
C288   C     0.96059   0.12144   0.71604   0.00000  Uiso   1.00
C289   C     0.98654   0.07808   0.62619   0.00000  Uiso   1.00
C290   C     0.86989   0.00170   0.83338   0.00000  Uiso   1.00
C291   C     0.93673   0.06280   0.88759   0.00000  Uiso   1.00
C292   C     0.97545   0.03994   0.91873   0.00000  Uiso   1.00
C293   C     0.03500   0.10531   0.96708   0.00000  Uiso   1.00
C294   C     0.79670   0.01266   0.84563   0.00000  Uiso   1.00
C295   C     0.71767   0.94764   0.84146   0.00000  Uiso   1.00
C296   C     0.65934   0.97078   0.85448   0.00000  Uiso   1.00
C297   C     0.90152   0.03704   0.78784   0.00000  Uiso   1.00
C298   C     0.91060   0.99250   0.73508   0.00000  Uiso   1.00
C299   C     0.94049   0.03616   0.69944   0.00000  Uiso   1.00
H300   H     0.92242   0.22471   0.87680   0.00000  Uiso   1.00
H301   H     0.03180   0.27922   0.96530   0.00000  Uiso   1.00
H302   H     0.77406   0.18692   0.88804   0.00000  Uiso   1.00
H303   H     0.96697   0.23178   0.78168   0.00000  Uiso   1.00
H304   H     0.14419   0.30211   0.05613   0.00000  Uiso   1.00
H305   H     0.60074   0.10749   0.89320   0.00000  Uiso   1.00
H306   H     0.00751   0.20208   0.66891   0.00000  Uiso   1.00
H307   H     0.85427   0.93542   0.82048   0.00000  Uiso   1.00
H308   H     0.95991   0.97406   0.90589   0.00000  Uiso   1.00
H309   H     0.70217   0.88176   0.82863   0.00000  Uiso   1.00
H310   H     0.89508   0.92662   0.72227   0.00000  Uiso   1.00
H311   H     0.08584   0.05443   0.00791   0.00000  Uiso   1.00
H312   H     0.54239   0.85981   0.84498   0.00000  Uiso   1.00
H313   H     0.94916   0.95440   0.62070   0.00000  Uiso   1.00
O314   O     0.18572   0.20890   0.08923   0.00000  Uiso   1.00
O315   O     0.47273   0.95357   0.87547   0.00000  Uiso   1.00
O316   O     0.00641   0.07767   0.58121   0.00000  Uiso   1.00
N317   N     0.11597   0.23851   0.03305   0.00000  Uiso   1.00
N318   N     0.60788   0.05656   0.88073   0.00000  Uiso   1.00
N319   N     0.98816   0.14499   0.67104   0.00000  Uiso   1.00
N320   N     0.08458   0.10524   0.00711   0.00000  Uiso   1.00
N321   N     0.57649   0.92329   0.85479   0.00000  Uiso   1.00
N322   N     0.95676   0.01172   0.64509   0.00000  Uiso   1.00
C323   C     0.71523   0.39975   0.89124   0.00000  Uiso   1.00
C324   C     0.76747   0.47384   0.94822   0.00000  Uiso   1.00
C325   C     0.76835   0.46817   0.00108   0.00000  Uiso   1.00
C326   C     0.82040   0.54328   0.04813   0.00000  Uiso   1.00
C327   C     0.89403   0.64646   0.13746   0.00000  Uiso   1.00
C328   C     0.77525   0.39647   0.85221   0.00000  Uiso   1.00
C329   C     0.78267   0.32575   0.82435   0.00000  Uiso   1.00
C330   C     0.84127   0.33574   0.79056   0.00000  Uiso   1.00
C331   C     0.92694   0.31879   0.73082   0.00000  Uiso   1.00
C332   C     0.66527   0.42725   0.86611   0.00000  Uiso   1.00
C333   C     0.58021   0.38240   0.84992   0.00000  Uiso   1.00
C334   C     0.54621   0.41829   0.82783   0.00000  Uiso   1.00
C335   C     0.46111   0.44913   0.78966   0.00000  Uiso   1.00
C336   C     0.80611   0.54322   0.88078   0.00000  Uiso   1.00
C337   C     0.81683   0.55176   0.94254   0.00000  Uiso   1.00
C338   C     0.86890   0.62691   0.98951   0.00000  Uiso   1.00
C339   C     0.86985   0.62135   0.04244   0.00000  Uiso   1.00
C340   C     0.82462   0.47440   0.84653   0.00000  Uiso   1.00
C341   C     0.88321   0.48449   0.81278   0.00000  Uiso   1.00
C342   C     0.89072   0.41380   0.78487   0.00000  Uiso   1.00
C343   C     0.71463   0.50518   0.86043   0.00000  Uiso   1.00
C344   C     0.68076   0.54114   0.83835   0.00000  Uiso   1.00
C345   C     0.59566   0.49636   0.82213   0.00000  Uiso   1.00
H346   H     0.67681   0.33908   0.89566   0.00000  Uiso   1.00
H347   H     0.73014   0.40785   0.00546   0.00000  Uiso   1.00
H348   H     0.74445   0.26545   0.82875   0.00000  Uiso   1.00
H349   H     0.54203   0.32210   0.85432   0.00000  Uiso   1.00
H350   H     0.81107   0.51846   0.12469   0.00000  Uiso   1.00
H351   H     0.84122   0.21820   0.75207   0.00000  Uiso   1.00
H352   H     0.41436   0.33765   0.80599   0.00000  Uiso   1.00
H353   H     0.84455   0.60389   0.87635   0.00000  Uiso   1.00
H354   H     0.90709   0.68720   0.98510   0.00000  Uiso   1.00
H355   H     0.92140   0.54480   0.80839   0.00000  Uiso   1.00
H356   H     0.71897   0.60145   0.83396   0.00000  Uiso   1.00
H357   H     0.95469   0.74519   0.10817   0.00000  Uiso   1.00
H358   H     0.98484   0.44492   0.73554   0.00000  Uiso   1.00
H359   H     0.55798   0.56437   0.78947   0.00000  Uiso   1.00
O360   O     0.92101   0.68184   0.18831   0.00000  Uiso   1.00
O361   O     0.96056   0.28791   0.69943   0.00000  Uiso   1.00
O362   O     0.40054   0.44462   0.77019   0.00000  Uiso   1.00
N363   N     0.83627   0.56039   0.10588   0.00000  Uiso   1.00
N364   N     0.86448   0.27967   0.75750   0.00000  Uiso   1.00
N365   N     0.46540   0.39133   0.80791   0.00000  Uiso   1.00
N366   N     0.91355   0.68239   0.09699   0.00000  Uiso   1.00
N367   N     0.94176   0.40167   0.74861   0.00000  Uiso   1.00
N368   N     0.54268   0.51333   0.79902   0.00000  Uiso   1.00
C369   C     0.34733   0.01510   0.84312   0.00000  Uiso   1.00
C370   C     0.34767   0.06422   0.90464   0.00000  Uiso   1.00
C371   C     0.41253   0.10733   0.95104   0.00000  Uiso   1.00
C372   C     0.40071   0.14836   0.00383   0.00000  Uiso   1.00
C373   C     0.41250   0.22498   0.09842   0.00000  Uiso   1.00
C374   C     0.32724   0.05431   0.80717   0.00000  Uiso   1.00
C375   C     0.37493   0.08908   0.77161   0.00000  Uiso   1.00
C376   C     0.34591   0.12176   0.74234   0.00000  Uiso   1.00
C377   C     0.32597   0.18295   0.68558   0.00000  Uiso   1.00
C378   C     0.27366   0.92416   0.82526   0.00000  Uiso   1.00
C379   C     0.27629   0.84950   0.80489   0.00000  Uiso   1.00
C380   C     0.20215   0.77259   0.79083   0.00000  Uiso   1.00
C381   C     0.09901   0.63171   0.76215   0.00000  Uiso   1.00
C382   C     0.21099   0.01130   0.85437   0.00000  Uiso   1.00
C383   C     0.27361   0.06215   0.91075   0.00000  Uiso   1.00
C384   C     0.26168   0.10312   0.96348   0.00000  Uiso   1.00
C385   C     0.32652   0.14629   0.00995   0.00000  Uiso   1.00
C386   C     0.25319   0.05225   0.81328   0.00000  Uiso   1.00
C387   C     0.22408   0.08488   0.78406   0.00000  Uiso   1.00
C388   C     0.27172   0.11970   0.74846   0.00000  Uiso   1.00
C389   C     0.19960   0.92210   0.83137   0.00000  Uiso   1.00
C390   C     0.12544   0.84529   0.81734   0.00000  Uiso   1.00
C391   C     0.12796   0.77053   0.79695   0.00000  Uiso   1.00
H392   H     0.40499   0.01671   0.83836   0.00000  Uiso   1.00
H393   H     0.46984   0.10892   0.94629   0.00000  Uiso   1.00
H394   H     0.43224   0.09067   0.76689   0.00000  Uiso   1.00
H395   H     0.33361   0.85112   0.80016   0.00000  Uiso   1.00
H396   H     0.50908   0.21027   0.06864   0.00000  Uiso   1.00
H397   H     0.42979   0.17176   0.69034   0.00000  Uiso   1.00
H398   H     0.22181   0.66662   0.76051   0.00000  Uiso   1.00
H399   H     0.15333   0.00969   0.85912   0.00000  Uiso   1.00
H400   H     0.20436   0.10152   0.96820   0.00000  Uiso   1.00
H401   H     0.16677   0.08327   0.78879   0.00000  Uiso   1.00
H402   H     0.06814   0.84372   0.82207   0.00000  Uiso   1.00
H403   H     0.29362   0.20427   0.08642   0.00000  Uiso   1.00
H404   H     0.21432   0.16575   0.70812   0.00000  Uiso   1.00
H405   H     0.00635   0.66062   0.77829   0.00000  Uiso   1.00
O406   O     0.43947   0.26783   0.14890   0.00000  Uiso   1.00
O407   O     0.33544   0.21728   0.65259   0.00000  Uiso   1.00
O408   O     0.06258   0.55456   0.74465   0.00000  Uiso   1.00
N409   N     0.45136   0.19624   0.05786   0.00000  Uiso   1.00
N410   N     0.37724   0.16025   0.70418   0.00000  Uiso   1.00
N411   N     0.18279   0.68799   0.76977   0.00000  Uiso   1.00
N412   N     0.33542   0.19301   0.06742   0.00000  Uiso   1.00
N413   N     0.26130   0.15701   0.71375   0.00000  Uiso   1.00
N414   N     0.06685   0.68476   0.77934   0.00000  Uiso   1.00
C415   C     0.46680   0.28859   0.33720   0.00000  Uiso   1.00
C416   C     0.45757   0.30259   0.39893   0.00000  Uiso   1.00
C417   C     0.51651   0.36858   0.44735   0.00000  Uiso   1.00
C418   C     0.49623   0.37019   0.49997   0.00000  Uiso   1.00
C419   C     0.49355   0.40135   0.59521   0.00000  Uiso   1.00
C420   C     0.45128   0.19790   0.30905   0.00000  Uiso   1.00
C421   C     0.50493   0.17587   0.28188   0.00000  Uiso   1.00
C422   C     0.47935   0.08935   0.25884   0.00000  Uiso   1.00
C423   C     0.46688   0.95798   0.21450   0.00000  Uiso   1.00
C424   C     0.39506   0.28682   0.30866   0.00000  Uiso   1.00
C425   C     0.40144   0.33955   0.28117   0.00000  Uiso   1.00
C426   C     0.32853   0.32788   0.25778   0.00000  Uiso   1.00
C427   C     0.22877   0.33458   0.21285   0.00000  Uiso   1.00
C428   C     0.32599   0.17410   0.34455   0.00000  Uiso   1.00
C429   C     0.38108   0.24040   0.40292   0.00000  Uiso   1.00
C430   C     0.36071   0.24191   0.45548   0.00000  Uiso   1.00
C431   C     0.41961   0.30789   0.50397   0.00000  Uiso   1.00
C432   C     0.37480   0.13571   0.31304   0.00000  Uiso   1.00
C433   C     0.34914   0.04920   0.29002   0.00000  Uiso   1.00
C434   C     0.40273   0.02705   0.26284   0.00000  Uiso   1.00
C435   C     0.31857   0.22464   0.31266   0.00000  Uiso   1.00
C436   C     0.24564   0.21288   0.28931   0.00000  Uiso   1.00
C437   C     0.25191   0.26558   0.26178   0.00000  Uiso   1.00
H438   H     0.52635   0.33700   0.33409   0.00000  Uiso   1.00
H439   H     0.57569   0.41669   0.44424   0.00000  Uiso   1.00
H440   H     0.56411   0.22401   0.27880   0.00000  Uiso   1.00
H441   H     0.46063   0.38766   0.27809   0.00000  Uiso   1.00
H442   H     0.59668   0.47759   0.56812   0.00000  Uiso   1.00
H443   H     0.57225   0.07131   0.21926   0.00000  Uiso   1.00
H444   H     0.35405   0.41641   0.21776   0.00000  Uiso   1.00
H445   H     0.26644   0.12568   0.34766   0.00000  Uiso   1.00
H446   H     0.30152   0.19377   0.45856   0.00000  Uiso   1.00
H447   H     0.28994   0.00109   0.29312   0.00000  Uiso   1.00
H448   H     0.18647   0.16475   0.29240   0.00000  Uiso   1.00
H449   H     0.37416   0.29666   0.57974   0.00000  Uiso   1.00
H450   H     0.34972   0.89038   0.23088   0.00000  Uiso   1.00
H451   H     0.13153   0.23548   0.22938   0.00000  Uiso   1.00
O452   O     0.51320   0.43572   0.64664   0.00000  Uiso   1.00
O453   O     0.48114   0.90270   0.18894   0.00000  Uiso   1.00
O454   O     0.19487   0.35546   0.18697   0.00000  Uiso   1.00
N455   N     0.53949   0.42567   0.55563   0.00000  Uiso   1.00
N456   N     0.51665   0.04583   0.22948   0.00000  Uiso   1.00
N457   N     0.31266   0.36845   0.22806   0.00000  Uiso   1.00
N458   N     0.41975   0.32832   0.56189   0.00000  Uiso   1.00
N459   N     0.39691   0.94848   0.23574   0.00000  Uiso   1.00
N460   N     0.19292   0.27110   0.23432   0.00000  Uiso   1.00
C461   C     0.88775   0.43630   0.37600   0.00000  Uiso   1.00
C462   C     0.91087   0.52953   0.40614   0.00000  Uiso   1.00
C463   C     0.89128   0.56378   0.45737   0.00000  Uiso   1.00
C464   C     0.91805   0.65053   0.47788   0.00000  Uiso   1.00
C465   C     0.94712   0.78757   0.52918   0.00000  Uiso   1.00
C466   C     0.84053   0.40449   0.31600   0.00000  Uiso   1.00
C467   C     0.76179   0.33361   0.29143   0.00000  Uiso   1.00
C468   C     0.72935   0.31511   0.23606   0.00000  Uiso   1.00
C469   C     0.64923   0.25800   0.14739   0.00000  Uiso   1.00
C470   C     0.96830   0.43872   0.36841   0.00000  Uiso   1.00
C471   C     0.99699   0.39661   0.38790   0.00000  Uiso   1.00
C472   C     0.07211   0.40691   0.37664   0.00000  Uiso   1.00
C473   C     0.19037   0.40295   0.36935   0.00000  Uiso   1.00
C474   C     0.97013   0.52946   0.32134   0.00000  Uiso   1.00
C475   C     0.95562   0.58012   0.37645   0.00000  Uiso   1.00
C476   C     0.98243   0.66684   0.39689   0.00000  Uiso   1.00
C477   C     0.96288   0.70122   0.44814   0.00000  Uiso   1.00
C478   C     0.88527   0.45509   0.28631   0.00000  Uiso   1.00
C479   C     0.85294   0.43668   0.23095   0.00000  Uiso   1.00
C480   C     0.77418   0.36580   0.20631   0.00000  Uiso   1.00
C481   C     0.01305   0.48932   0.33872   0.00000  Uiso   1.00
C482   C     0.08814   0.49968   0.32742   0.00000  Uiso   1.00
C483   C     0.11694   0.45759   0.34689   0.00000  Uiso   1.00
H484   H     0.85291   0.39691   0.39912   0.00000  Uiso   1.00
H485   H     0.85664   0.52460   0.48033   0.00000  Uiso   1.00
H486   H     0.72718   0.29447   0.31442   0.00000  Uiso   1.00
H487   H     0.96234   0.35746   0.41087   0.00000  Uiso   1.00
H488   H     0.88050   0.68847   0.55726   0.00000  Uiso   1.00
H489   H     0.60753   0.20321   0.20743   0.00000  Uiso   1.00
H490   H     0.10341   0.33604   0.41082   0.00000  Uiso   1.00
H491   H     0.00497   0.56885   0.29822   0.00000  Uiso   1.00
H492   H     0.01706   0.70598   0.37390   0.00000  Uiso   1.00
H493   H     0.88759   0.47585   0.20799   0.00000  Uiso   1.00
H494   H     0.12275   0.53884   0.30444   0.00000  Uiso   1.00
H495   H     0.01069   0.83569   0.47088   0.00000  Uiso   1.00
H496   H     0.73772   0.35042   0.12104   0.00000  Uiso   1.00
H497   H     0.23360   0.48325   0.32444   0.00000  Uiso   1.00
O498   O     0.95077   0.84918   0.56567   0.00000  Uiso   1.00
O499   O     0.59266   0.21253   0.10669   0.00000  Uiso   1.00
O500   O     0.24324   0.38680   0.37354   0.00000  Uiso   1.00
N501   N     0.90949   0.70431   0.52655   0.00000  Uiso   1.00
N502   N     0.65428   0.25062   0.19948   0.00000  Uiso   1.00
N503   N     0.11787   0.37478   0.38962   0.00000  Uiso   1.00
N504   N     0.97955   0.78352   0.48007   0.00000  Uiso   1.00
N505   N     0.72433   0.32984   0.15300   0.00000  Uiso   1.00
N506   N     0.18793   0.45400   0.34314   0.00000  Uiso   1.00
C507   C     0.68343   0.97194   0.36669   0.00000  Uiso   1.00
C508   C     0.70385   0.99706   0.43093   0.00000  Uiso   1.00
C509   C     0.67956   0.04458   0.47245   0.00000  Uiso   1.00
C510   C     0.70455   0.06080   0.52888   0.00000  Uiso   1.00
C511   C     0.72906   0.10445   0.62646   0.00000  Uiso   1.00
C512   C     0.76566   0.00620   0.34797   0.00000  Uiso   1.00
C513   C     0.79334   0.06140   0.31973   0.00000  Uiso   1.00
C514   C     0.87035   0.08530   0.30632   0.00000  Uiso   1.00
C515   C     0.99079   0.14310   0.27507   0.00000  Uiso   1.00
C516   C     0.64078   0.87437   0.33924   0.00000  Uiso   1.00
C517   C     0.56345   0.81873   0.30364   0.00000  Uiso   1.00
C518   C     0.53532   0.73164   0.28287   0.00000  Uiso   1.00
C519   C     0.46186   0.58475   0.23806   0.00000  Uiso   1.00
C520   C     0.77098   0.91622   0.39308   0.00000  Uiso   1.00
C521   C     0.75141   0.96680   0.44527   0.00000  Uiso   1.00
C522   C     0.77643   0.98294   0.50165   0.00000  Uiso   1.00
C523   C     0.75218   0.03048   0.54324   0.00000  Uiso   1.00
C524   C     0.81322   0.97594   0.36231   0.00000  Uiso   1.00
C525   C     0.89020   0.99976   0.34893   0.00000  Uiso   1.00
C526   C     0.91799   0.05499   0.32068   0.00000  Uiso   1.00
C527   C     0.68833   0.84411   0.35358   0.00000  Uiso   1.00
C528   C     0.66032   0.75709   0.33285   0.00000  Uiso   1.00
C529   C     0.58296   0.70132   0.29723   0.00000  Uiso   1.00
H530   H     0.64641   0.99550   0.35552   0.00000  Uiso   1.00
H531   H     0.64277   0.06800   0.46134   0.00000  Uiso   1.00
H532   H     0.75652   0.08480   0.30864   0.00000  Uiso   1.00
H533   H     0.52667   0.84217   0.29256   0.00000  Uiso   1.00
H534   H     0.65973   0.13506   0.58497   0.00000  Uiso   1.00
H535   H     0.89956   0.17047   0.26298   0.00000  Uiso   1.00
H536   H     0.41488   0.65883   0.22907   0.00000  Uiso   1.00
H537   H     0.80801   0.89266   0.40424   0.00000  Uiso   1.00
H538   H     0.81323   0.95952   0.51273   0.00000  Uiso   1.00
H539   H     0.92698   0.97633   0.36003   0.00000  Uiso   1.00
H540   H     0.69713   0.73369   0.34395   0.00000  Uiso   1.00
H541   H     0.79809   0.04702   0.62669   0.00000  Uiso   1.00
H542   H     0.03792   0.08243   0.30470   0.00000  Uiso   1.00
H543   H     0.55324   0.57079   0.27079   0.00000  Uiso   1.00
O544   O     0.72946   0.13690   0.67632   0.00000  Uiso   1.00
O545   O     0.04410   0.18334   0.25387   0.00000  Uiso   1.00
O546   O     0.40821   0.51209   0.20939   0.00000  Uiso   1.00
N547   N     0.69156   0.10515   0.57990   0.00000  Uiso   1.00
N548   N     0.91580   0.13827   0.27887   0.00000  Uiso   1.00
N549   N     0.46267   0.65993   0.24715   0.00000  Uiso   1.00
N550   N     0.76601   0.05777   0.60235   0.00000  Uiso   1.00
N551   N     0.99025   0.09089   0.30131   0.00000  Uiso   1.00
N552   N     0.53712   0.61255   0.26960   0.00000  Uiso   1.00
