data_job_04974
_audit_creation_date              2018-12-19
_audit_creation_method            'Materials Studio'
_symmetry_space_group_name_H-M    'P1'
_symmetry_Int_Tables_number       1
_symmetry_cell_setting            triclinic
loop_
_symmetry_equiv_pos_as_xyz
  x,y,z
_cell_length_a                    18.5830
_cell_length_b                    12.3486
_cell_length_c                    22.7785
_cell_angle_alpha                 90.0000
_cell_angle_beta                  90.0000
_cell_angle_gamma                 90.0000
loop_
_atom_site_label
_atom_site_type_symbol
_atom_site_fract_x
_atom_site_fract_y
_atom_site_fract_z
_atom_site_U_iso_or_equiv
_atom_site_adp_type
_atom_site_occupancy
C1     C     0.42680   0.24246   0.35432   0.00000  Uiso   1.00
C2     C     0.40188   0.16486   0.40226   0.00000  Uiso   1.00
C3     C     0.43757   0.07171   0.41998   0.00000  Uiso   1.00
C4     C     0.40597   0.01160   0.46457   0.00000  Uiso   1.00
C5     C     0.37714   0.88621   0.53506   0.00000  Uiso   1.00
C6     C     0.36512   0.24909   0.31031   0.00000  Uiso   1.00
C7     C     0.36990   0.22678   0.25072   0.00000  Uiso   1.00
C8     C     0.30735   0.23759   0.21791   0.00000  Uiso   1.00
C9     C     0.22145   0.24305   0.14564   0.00000  Uiso   1.00
C10    C     0.43144   0.35377   0.38304   0.00000  Uiso   1.00
C11    C     0.49199   0.41950   0.38460   0.00000  Uiso   1.00
C12    C     0.48528   0.51847   0.41301   0.00000  Uiso   1.00
C13    C     0.50236   0.68647   0.45366   0.00000  Uiso   1.00
C14    C     0.30720   0.30134   0.40199   0.00000  Uiso   1.00
C15    C     0.33692   0.19684   0.42815   0.00000  Uiso   1.00
C16    C     0.30525   0.13686   0.47273   0.00000  Uiso   1.00
C17    C     0.34089   0.04364   0.49052   0.00000  Uiso   1.00
C18    C     0.30016   0.28107   0.33620   0.00000  Uiso   1.00
C19    C     0.23758   0.29192   0.30347   0.00000  Uiso   1.00
C20    C     0.24227   0.26963   0.24385   0.00000  Uiso   1.00
C21    C     0.36648   0.38576   0.40894   0.00000  Uiso   1.00
C22    C     0.35967   0.48464   0.43735   0.00000  Uiso   1.00
C23    C     0.42020   0.55051   0.43895   0.00000  Uiso   1.00
H24    H     0.47737   0.21756   0.33415   0.00000  Uiso   1.00
H25    H     0.48784   0.04698   0.39993   0.00000  Uiso   1.00
H26    H     0.42018   0.20204   0.23069   0.00000  Uiso   1.00
H27    H     0.54225   0.39473   0.36455   0.00000  Uiso   1.00
H28    H     0.47079   0.87195   0.48426   0.00000  Uiso   1.00
H29    H     0.32813   0.19893   0.12742   0.00000  Uiso   1.00
H30    H     0.58554   0.60525   0.40968   0.00000  Uiso   1.00
H31    H     0.25663   0.32624   0.42215   0.00000  Uiso   1.00
H32    H     0.25498   0.16163   0.49276   0.00000  Uiso   1.00
H33    H     0.18732   0.31668   0.32353   0.00000  Uiso   1.00
H34    H     0.30939   0.50937   0.45738   0.00000  Uiso   1.00
H35    H     0.28178   0.96500   0.55960   0.00000  Uiso   1.00
H36    H     0.13913   0.29198   0.20276   0.00000  Uiso   1.00
H37    H     0.39654   0.69830   0.48502   0.00000  Uiso   1.00
O38    O     0.37917   0.80820   0.56677   0.00000  Uiso   1.00
O39    O     0.19202   0.23721   0.09862   0.00000  Uiso   1.00
O40    O     0.52973   0.77029   0.46894   0.00000  Uiso   1.00
N41    N     0.42654   0.91645   0.49231   0.00000  Uiso   1.00
N42    N     0.29316   0.22214   0.15869   0.00000  Uiso   1.00
N43    N     0.53381   0.60203   0.42256   0.00000  Uiso   1.00
N44    N     0.32484   0.96652   0.53285   0.00000  Uiso   1.00
N45    N     0.19146   0.27221   0.19923   0.00000  Uiso   1.00
N46    N     0.43211   0.65210   0.46311   0.00000  Uiso   1.00
C47    C     0.07320   0.25754   0.85432   0.00000  Uiso   1.00
C48    C     0.09812   0.33514   0.90226   0.00000  Uiso   1.00
C49    C     0.06243   0.42829   0.91998   0.00000  Uiso   1.00
C50    C     0.09403   0.48840   0.96457   0.00000  Uiso   1.00
C51    C     0.12286   0.61379   0.03506   0.00000  Uiso   1.00
C52    C     0.13488   0.25091   0.81031   0.00000  Uiso   1.00
C53    C     0.13010   0.27322   0.75072   0.00000  Uiso   1.00
C54    C     0.19265   0.26241   0.71791   0.00000  Uiso   1.00
C55    C     0.27855   0.25695   0.64564   0.00000  Uiso   1.00
C56    C     0.06856   0.14623   0.88304   0.00000  Uiso   1.00
C57    C     0.00801   0.08050   0.88460   0.00000  Uiso   1.00
C58    C     0.01472   0.98153   0.91301   0.00000  Uiso   1.00
C59    C     0.99764   0.81353   0.95366   0.00000  Uiso   1.00
C60    C     0.19280   0.19866   0.90199   0.00000  Uiso   1.00
C61    C     0.16308   0.30316   0.92815   0.00000  Uiso   1.00
C62    C     0.19475   0.36314   0.97273   0.00000  Uiso   1.00
C63    C     0.15911   0.45636   0.99052   0.00000  Uiso   1.00
C64    C     0.19984   0.21893   0.83620   0.00000  Uiso   1.00
C65    C     0.26242   0.20808   0.80347   0.00000  Uiso   1.00
C66    C     0.25773   0.23037   0.74385   0.00000  Uiso   1.00
C67    C     0.13352   0.11424   0.90894   0.00000  Uiso   1.00
C68    C     0.14033   0.01536   0.93735   0.00000  Uiso   1.00
C69    C     0.07980   0.94949   0.93895   0.00000  Uiso   1.00
H70    H     0.02263   0.28244   0.83415   0.00000  Uiso   1.00
H71    H     0.01216   0.45302   0.89993   0.00000  Uiso   1.00
H72    H     0.07982   0.29796   0.73069   0.00000  Uiso   1.00
H73    H     0.95775   0.10527   0.86455   0.00000  Uiso   1.00
H74    H     0.02921   0.62805   0.98426   0.00000  Uiso   1.00
H75    H     0.17187   0.30107   0.62742   0.00000  Uiso   1.00
H76    H     0.91446   0.89475   0.90968   0.00000  Uiso   1.00
H77    H     0.24337   0.17376   0.92215   0.00000  Uiso   1.00
H78    H     0.24502   0.33837   0.99276   0.00000  Uiso   1.00
H79    H     0.31268   0.18332   0.82353   0.00000  Uiso   1.00
H80    H     0.19061   0.99063   0.95738   0.00000  Uiso   1.00
H81    H     0.21822   0.53500   0.05960   0.00000  Uiso   1.00
H82    H     0.36087   0.20802   0.70276   0.00000  Uiso   1.00
H83    H     0.10346   0.80170   0.98502   0.00000  Uiso   1.00
O84    O     0.12083   0.69180   0.06677   0.00000  Uiso   1.00
O85    O     0.30798   0.26279   0.59862   0.00000  Uiso   1.00
O86    O     0.97027   0.72971   0.96894   0.00000  Uiso   1.00
N87    N     0.07346   0.58355   0.99231   0.00000  Uiso   1.00
N88    N     0.20684   0.27786   0.65869   0.00000  Uiso   1.00
N89    N     0.96619   0.89797   0.92256   0.00000  Uiso   1.00
N90    N     0.17516   0.53348   0.03285   0.00000  Uiso   1.00
N91    N     0.30854   0.22779   0.69923   0.00000  Uiso   1.00
N92    N     0.06789   0.84790   0.96311   0.00000  Uiso   1.00
C93    C     0.57320   0.24246   0.14568   0.00000  Uiso   1.00
C94    C     0.59812   0.16486   0.09774   0.00000  Uiso   1.00
C95    C     0.56243   0.07171   0.08002   0.00000  Uiso   1.00
C96    C     0.59403   0.01160   0.03543   0.00000  Uiso   1.00
C97    C     0.62286   0.88621   0.96494   0.00000  Uiso   1.00
C98    C     0.63488   0.24909   0.18969   0.00000  Uiso   1.00
C99    C     0.63010   0.22678   0.24928   0.00000  Uiso   1.00
C100   C     0.69265   0.23759   0.28209   0.00000  Uiso   1.00
C101   C     0.77855   0.24305   0.35436   0.00000  Uiso   1.00
C102   C     0.56856   0.35377   0.11696   0.00000  Uiso   1.00
C103   C     0.50801   0.41950   0.11540   0.00000  Uiso   1.00
C104   C     0.51472   0.51847   0.08699   0.00000  Uiso   1.00
C105   C     0.49764   0.68647   0.04634   0.00000  Uiso   1.00
C106   C     0.69280   0.30134   0.09801   0.00000  Uiso   1.00
C107   C     0.66308   0.19684   0.07185   0.00000  Uiso   1.00
C108   C     0.69475   0.13686   0.02727   0.00000  Uiso   1.00
C109   C     0.65911   0.04364   0.00948   0.00000  Uiso   1.00
C110   C     0.69984   0.28107   0.16380   0.00000  Uiso   1.00
C111   C     0.76242   0.29192   0.19653   0.00000  Uiso   1.00
C112   C     0.75773   0.26963   0.25615   0.00000  Uiso   1.00
C113   C     0.63352   0.38576   0.09106   0.00000  Uiso   1.00
C114   C     0.64033   0.48464   0.06265   0.00000  Uiso   1.00
C115   C     0.57980   0.55051   0.06105   0.00000  Uiso   1.00
H116   H     0.52263   0.21756   0.16585   0.00000  Uiso   1.00
H117   H     0.51216   0.04698   0.10007   0.00000  Uiso   1.00
H118   H     0.57982   0.20204   0.26931   0.00000  Uiso   1.00
H119   H     0.45775   0.39473   0.13545   0.00000  Uiso   1.00
H120   H     0.52921   0.87195   0.01574   0.00000  Uiso   1.00
H121   H     0.67187   0.19893   0.37258   0.00000  Uiso   1.00
H122   H     0.41446   0.60525   0.09032   0.00000  Uiso   1.00
H123   H     0.74337   0.32624   0.07785   0.00000  Uiso   1.00
H124   H     0.74502   0.16163   0.00724   0.00000  Uiso   1.00
H125   H     0.81268   0.31668   0.17647   0.00000  Uiso   1.00
H126   H     0.69061   0.50937   0.04262   0.00000  Uiso   1.00
H127   H     0.71822   0.96500   0.94040   0.00000  Uiso   1.00
H128   H     0.86087   0.29198   0.29724   0.00000  Uiso   1.00
H129   H     0.60346   0.69830   0.01498   0.00000  Uiso   1.00
O130   O     0.62083   0.80820   0.93323   0.00000  Uiso   1.00
O131   O     0.80798   0.23721   0.40138   0.00000  Uiso   1.00
O132   O     0.47027   0.77029   0.03106   0.00000  Uiso   1.00
N133   N     0.57346   0.91645   0.00769   0.00000  Uiso   1.00
N134   N     0.70684   0.22214   0.34131   0.00000  Uiso   1.00
N135   N     0.46619   0.60203   0.07744   0.00000  Uiso   1.00
N136   N     0.67516   0.96652   0.96715   0.00000  Uiso   1.00
N137   N     0.80854   0.27221   0.30077   0.00000  Uiso   1.00
N138   N     0.56789   0.65210   0.03689   0.00000  Uiso   1.00
C139   C     0.92680   0.25754   0.64568   0.00000  Uiso   1.00
C140   C     0.90188   0.33514   0.59774   0.00000  Uiso   1.00
C141   C     0.93757   0.42829   0.58002   0.00000  Uiso   1.00
C142   C     0.90597   0.48840   0.53543   0.00000  Uiso   1.00
C143   C     0.87714   0.61379   0.46494   0.00000  Uiso   1.00
C144   C     0.86512   0.25091   0.68969   0.00000  Uiso   1.00
C145   C     0.86990   0.27322   0.74928   0.00000  Uiso   1.00
C146   C     0.80735   0.26241   0.78209   0.00000  Uiso   1.00
C147   C     0.72145   0.25695   0.85436   0.00000  Uiso   1.00
C148   C     0.93144   0.14623   0.61696   0.00000  Uiso   1.00
C149   C     0.99199   0.08050   0.61540   0.00000  Uiso   1.00
C150   C     0.98528   0.98153   0.58699   0.00000  Uiso   1.00
C151   C     0.00236   0.81353   0.54634   0.00000  Uiso   1.00
C152   C     0.80720   0.19866   0.59801   0.00000  Uiso   1.00
C153   C     0.83692   0.30316   0.57185   0.00000  Uiso   1.00
C154   C     0.80525   0.36314   0.52727   0.00000  Uiso   1.00
C155   C     0.84089   0.45636   0.50948   0.00000  Uiso   1.00
C156   C     0.80016   0.21893   0.66380   0.00000  Uiso   1.00
C157   C     0.73758   0.20808   0.69653   0.00000  Uiso   1.00
C158   C     0.74227   0.23037   0.75615   0.00000  Uiso   1.00
C159   C     0.86648   0.11424   0.59106   0.00000  Uiso   1.00
C160   C     0.85967   0.01536   0.56265   0.00000  Uiso   1.00
C161   C     0.92020   0.94949   0.56105   0.00000  Uiso   1.00
H162   H     0.97737   0.28244   0.66585   0.00000  Uiso   1.00
H163   H     0.98784   0.45302   0.60007   0.00000  Uiso   1.00
H164   H     0.92018   0.29796   0.76931   0.00000  Uiso   1.00
H165   H     0.04225   0.10527   0.63545   0.00000  Uiso   1.00
H166   H     0.97079   0.62805   0.51574   0.00000  Uiso   1.00
H167   H     0.82813   0.30107   0.87258   0.00000  Uiso   1.00
H168   H     0.08554   0.89475   0.59032   0.00000  Uiso   1.00
H169   H     0.75663   0.17376   0.57785   0.00000  Uiso   1.00
H170   H     0.75498   0.33837   0.50724   0.00000  Uiso   1.00
H171   H     0.68732   0.18332   0.67647   0.00000  Uiso   1.00
H172   H     0.80939   0.99063   0.54262   0.00000  Uiso   1.00
H173   H     0.78178   0.53500   0.44040   0.00000  Uiso   1.00
H174   H     0.63913   0.20802   0.79724   0.00000  Uiso   1.00
H175   H     0.89654   0.80170   0.51498   0.00000  Uiso   1.00
O176   O     0.87917   0.69180   0.43323   0.00000  Uiso   1.00
O177   O     0.69202   0.26279   0.90138   0.00000  Uiso   1.00
O178   O     0.02973   0.72971   0.53106   0.00000  Uiso   1.00
N179   N     0.92654   0.58355   0.50769   0.00000  Uiso   1.00
N180   N     0.79316   0.27786   0.84131   0.00000  Uiso   1.00
N181   N     0.03381   0.89797   0.57744   0.00000  Uiso   1.00
N182   N     0.82484   0.53348   0.46715   0.00000  Uiso   1.00
N183   N     0.69146   0.22779   0.80077   0.00000  Uiso   1.00
N184   N     0.93211   0.84790   0.53689   0.00000  Uiso   1.00
C185   C     0.57320   0.75754   0.64568   0.00000  Uiso   1.00
C186   C     0.59812   0.83514   0.59774   0.00000  Uiso   1.00
C187   C     0.56243   0.92829   0.58002   0.00000  Uiso   1.00
C188   C     0.59403   0.98840   0.53543   0.00000  Uiso   1.00
C189   C     0.62286   0.11379   0.46494   0.00000  Uiso   1.00
C190   C     0.63488   0.75091   0.68969   0.00000  Uiso   1.00
C191   C     0.63010   0.77322   0.74928   0.00000  Uiso   1.00
C192   C     0.69265   0.76241   0.78209   0.00000  Uiso   1.00
C193   C     0.77855   0.75695   0.85436   0.00000  Uiso   1.00
C194   C     0.56856   0.64623   0.61696   0.00000  Uiso   1.00
C195   C     0.50801   0.58050   0.61540   0.00000  Uiso   1.00
C196   C     0.51472   0.48153   0.58699   0.00000  Uiso   1.00
C197   C     0.49764   0.31353   0.54634   0.00000  Uiso   1.00
C198   C     0.69280   0.69866   0.59801   0.00000  Uiso   1.00
C199   C     0.66308   0.80316   0.57185   0.00000  Uiso   1.00
C200   C     0.69475   0.86314   0.52727   0.00000  Uiso   1.00
C201   C     0.65911   0.95636   0.50948   0.00000  Uiso   1.00
C202   C     0.69984   0.71893   0.66380   0.00000  Uiso   1.00
C203   C     0.76242   0.70808   0.69653   0.00000  Uiso   1.00
C204   C     0.75773   0.73037   0.75615   0.00000  Uiso   1.00
C205   C     0.63352   0.61424   0.59106   0.00000  Uiso   1.00
C206   C     0.64033   0.51536   0.56265   0.00000  Uiso   1.00
C207   C     0.57980   0.44949   0.56105   0.00000  Uiso   1.00
H208   H     0.52263   0.78244   0.66585   0.00000  Uiso   1.00
H209   H     0.51216   0.95302   0.60007   0.00000  Uiso   1.00
H210   H     0.57982   0.79796   0.76931   0.00000  Uiso   1.00
H211   H     0.45775   0.60527   0.63545   0.00000  Uiso   1.00
H212   H     0.52921   0.12805   0.51574   0.00000  Uiso   1.00
H213   H     0.67187   0.80107   0.87258   0.00000  Uiso   1.00
H214   H     0.41446   0.39475   0.59032   0.00000  Uiso   1.00
H215   H     0.74337   0.67376   0.57785   0.00000  Uiso   1.00
H216   H     0.74502   0.83837   0.50724   0.00000  Uiso   1.00
H217   H     0.81268   0.68332   0.67647   0.00000  Uiso   1.00
H218   H     0.69061   0.49063   0.54262   0.00000  Uiso   1.00
H219   H     0.71822   0.03500   0.44040   0.00000  Uiso   1.00
H220   H     0.86087   0.70802   0.79724   0.00000  Uiso   1.00
H221   H     0.60346   0.30170   0.51498   0.00000  Uiso   1.00
O222   O     0.62083   0.19180   0.43323   0.00000  Uiso   1.00
O223   O     0.80798   0.76279   0.90138   0.00000  Uiso   1.00
O224   O     0.47027   0.22971   0.53106   0.00000  Uiso   1.00
N225   N     0.57346   0.08355   0.50769   0.00000  Uiso   1.00
N226   N     0.70684   0.77786   0.84131   0.00000  Uiso   1.00
N227   N     0.46619   0.39797   0.57744   0.00000  Uiso   1.00
N228   N     0.67516   0.03348   0.46715   0.00000  Uiso   1.00
N229   N     0.80854   0.72779   0.80077   0.00000  Uiso   1.00
N230   N     0.56789   0.34790   0.53689   0.00000  Uiso   1.00
C231   C     0.92680   0.74246   0.14568   0.00000  Uiso   1.00
C232   C     0.90188   0.66486   0.09774   0.00000  Uiso   1.00
C233   C     0.93757   0.57171   0.08002   0.00000  Uiso   1.00
C234   C     0.90597   0.51160   0.03543   0.00000  Uiso   1.00
C235   C     0.87714   0.38621   0.96494   0.00000  Uiso   1.00
C236   C     0.86512   0.74909   0.18969   0.00000  Uiso   1.00
C237   C     0.86990   0.72678   0.24928   0.00000  Uiso   1.00
C238   C     0.80735   0.73759   0.28209   0.00000  Uiso   1.00
C239   C     0.72145   0.74305   0.35436   0.00000  Uiso   1.00
C240   C     0.93144   0.85377   0.11696   0.00000  Uiso   1.00
C241   C     0.99199   0.91950   0.11540   0.00000  Uiso   1.00
C242   C     0.98528   0.01847   0.08699   0.00000  Uiso   1.00
C243   C     0.00236   0.18647   0.04634   0.00000  Uiso   1.00
C244   C     0.80720   0.80134   0.09801   0.00000  Uiso   1.00
C245   C     0.83692   0.69684   0.07185   0.00000  Uiso   1.00
C246   C     0.80525   0.63686   0.02727   0.00000  Uiso   1.00
C247   C     0.84089   0.54364   0.00948   0.00000  Uiso   1.00
C248   C     0.80016   0.78107   0.16380   0.00000  Uiso   1.00
C249   C     0.73758   0.79192   0.19653   0.00000  Uiso   1.00
C250   C     0.74227   0.76963   0.25615   0.00000  Uiso   1.00
C251   C     0.86648   0.88576   0.09106   0.00000  Uiso   1.00
C252   C     0.85967   0.98464   0.06265   0.00000  Uiso   1.00
C253   C     0.92020   0.05051   0.06105   0.00000  Uiso   1.00
H254   H     0.97737   0.71756   0.16585   0.00000  Uiso   1.00
H255   H     0.98784   0.54698   0.10007   0.00000  Uiso   1.00
H256   H     0.92018   0.70204   0.26931   0.00000  Uiso   1.00
H257   H     0.04225   0.89473   0.13545   0.00000  Uiso   1.00
H258   H     0.97079   0.37195   0.01574   0.00000  Uiso   1.00
H259   H     0.82813   0.69893   0.37258   0.00000  Uiso   1.00
H260   H     0.08554   0.10525   0.09032   0.00000  Uiso   1.00
H261   H     0.75663   0.82624   0.07785   0.00000  Uiso   1.00
H262   H     0.75498   0.66163   0.00724   0.00000  Uiso   1.00
H263   H     0.68732   0.81668   0.17647   0.00000  Uiso   1.00
H264   H     0.80939   0.00937   0.04262   0.00000  Uiso   1.00
H265   H     0.78178   0.46500   0.94040   0.00000  Uiso   1.00
H266   H     0.63913   0.79198   0.29724   0.00000  Uiso   1.00
H267   H     0.89654   0.19830   0.01498   0.00000  Uiso   1.00
O268   O     0.87917   0.30820   0.93323   0.00000  Uiso   1.00
O269   O     0.69202   0.73721   0.40138   0.00000  Uiso   1.00
O270   O     0.02973   0.27029   0.03106   0.00000  Uiso   1.00
N271   N     0.92654   0.41645   0.00769   0.00000  Uiso   1.00
N272   N     0.79316   0.72214   0.34131   0.00000  Uiso   1.00
N273   N     0.03381   0.10203   0.07744   0.00000  Uiso   1.00
N274   N     0.82484   0.46652   0.96715   0.00000  Uiso   1.00
N275   N     0.69146   0.77221   0.30077   0.00000  Uiso   1.00
N276   N     0.93211   0.15210   0.03689   0.00000  Uiso   1.00
C277   C     0.42680   0.75754   0.85432   0.00000  Uiso   1.00
C278   C     0.40188   0.83514   0.90226   0.00000  Uiso   1.00
C279   C     0.43757   0.92829   0.91998   0.00000  Uiso   1.00
C280   C     0.40597   0.98840   0.96457   0.00000  Uiso   1.00
C281   C     0.37714   0.11379   0.03506   0.00000  Uiso   1.00
C282   C     0.36512   0.75091   0.81031   0.00000  Uiso   1.00
C283   C     0.36990   0.77322   0.75072   0.00000  Uiso   1.00
C284   C     0.30735   0.76241   0.71791   0.00000  Uiso   1.00
C285   C     0.22145   0.75695   0.64564   0.00000  Uiso   1.00
C286   C     0.43144   0.64623   0.88304   0.00000  Uiso   1.00
C287   C     0.49199   0.58050   0.88460   0.00000  Uiso   1.00
C288   C     0.48528   0.48153   0.91301   0.00000  Uiso   1.00
C289   C     0.50236   0.31353   0.95366   0.00000  Uiso   1.00
C290   C     0.30720   0.69866   0.90199   0.00000  Uiso   1.00
C291   C     0.33692   0.80316   0.92815   0.00000  Uiso   1.00
C292   C     0.30525   0.86314   0.97273   0.00000  Uiso   1.00
C293   C     0.34089   0.95636   0.99052   0.00000  Uiso   1.00
C294   C     0.30016   0.71893   0.83620   0.00000  Uiso   1.00
C295   C     0.23758   0.70808   0.80347   0.00000  Uiso   1.00
C296   C     0.24227   0.73037   0.74385   0.00000  Uiso   1.00
C297   C     0.36648   0.61424   0.90894   0.00000  Uiso   1.00
C298   C     0.35967   0.51536   0.93735   0.00000  Uiso   1.00
C299   C     0.42020   0.44949   0.93895   0.00000  Uiso   1.00
H300   H     0.47737   0.78244   0.83415   0.00000  Uiso   1.00
H301   H     0.48784   0.95302   0.89993   0.00000  Uiso   1.00
H302   H     0.42018   0.79796   0.73069   0.00000  Uiso   1.00
H303   H     0.54225   0.60527   0.86455   0.00000  Uiso   1.00
H304   H     0.47079   0.12805   0.98426   0.00000  Uiso   1.00
H305   H     0.32813   0.80107   0.62742   0.00000  Uiso   1.00
H306   H     0.58554   0.39475   0.90968   0.00000  Uiso   1.00
H307   H     0.25663   0.67376   0.92215   0.00000  Uiso   1.00
H308   H     0.25498   0.83837   0.99276   0.00000  Uiso   1.00
H309   H     0.18732   0.68332   0.82353   0.00000  Uiso   1.00
H310   H     0.30939   0.49063   0.95738   0.00000  Uiso   1.00
H311   H     0.28178   0.03500   0.05960   0.00000  Uiso   1.00
H312   H     0.13913   0.70802   0.70276   0.00000  Uiso   1.00
H313   H     0.39654   0.30170   0.98502   0.00000  Uiso   1.00
O314   O     0.37917   0.19180   0.06677   0.00000  Uiso   1.00
O315   O     0.19202   0.76279   0.59862   0.00000  Uiso   1.00
O316   O     0.52973   0.22971   0.96894   0.00000  Uiso   1.00
N317   N     0.42654   0.08355   0.99231   0.00000  Uiso   1.00
N318   N     0.29316   0.77786   0.65869   0.00000  Uiso   1.00
N319   N     0.53381   0.39797   0.92256   0.00000  Uiso   1.00
N320   N     0.32484   0.03348   0.03285   0.00000  Uiso   1.00
N321   N     0.19146   0.72779   0.69923   0.00000  Uiso   1.00
N322   N     0.43211   0.34790   0.96311   0.00000  Uiso   1.00
C323   C     0.07320   0.74246   0.35432   0.00000  Uiso   1.00
C324   C     0.09812   0.66486   0.40226   0.00000  Uiso   1.00
C325   C     0.06243   0.57171   0.41998   0.00000  Uiso   1.00
C326   C     0.09403   0.51160   0.46457   0.00000  Uiso   1.00
C327   C     0.12286   0.38621   0.53506   0.00000  Uiso   1.00
C328   C     0.13488   0.74909   0.31031   0.00000  Uiso   1.00
C329   C     0.13010   0.72678   0.25072   0.00000  Uiso   1.00
C330   C     0.19265   0.73759   0.21791   0.00000  Uiso   1.00
C331   C     0.27855   0.74305   0.14564   0.00000  Uiso   1.00
C332   C     0.06856   0.85377   0.38304   0.00000  Uiso   1.00
C333   C     0.00801   0.91950   0.38460   0.00000  Uiso   1.00
C334   C     0.01472   0.01847   0.41301   0.00000  Uiso   1.00
C335   C     0.99764   0.18647   0.45366   0.00000  Uiso   1.00
C336   C     0.19280   0.80134   0.40199   0.00000  Uiso   1.00
C337   C     0.16308   0.69684   0.42815   0.00000  Uiso   1.00
C338   C     0.19475   0.63686   0.47273   0.00000  Uiso   1.00
C339   C     0.15911   0.54364   0.49052   0.00000  Uiso   1.00
C340   C     0.19984   0.78107   0.33620   0.00000  Uiso   1.00
C341   C     0.26242   0.79192   0.30347   0.00000  Uiso   1.00
C342   C     0.25773   0.76963   0.24385   0.00000  Uiso   1.00
C343   C     0.13352   0.88576   0.40894   0.00000  Uiso   1.00
C344   C     0.14033   0.98464   0.43735   0.00000  Uiso   1.00
C345   C     0.07980   0.05051   0.43895   0.00000  Uiso   1.00
H346   H     0.02263   0.71756   0.33415   0.00000  Uiso   1.00
H347   H     0.01216   0.54698   0.39993   0.00000  Uiso   1.00
H348   H     0.07982   0.70204   0.23069   0.00000  Uiso   1.00
H349   H     0.95775   0.89473   0.36455   0.00000  Uiso   1.00
H350   H     0.02921   0.37195   0.48426   0.00000  Uiso   1.00
H351   H     0.17187   0.69893   0.12742   0.00000  Uiso   1.00
H352   H     0.91446   0.10525   0.40968   0.00000  Uiso   1.00
H353   H     0.24337   0.82624   0.42215   0.00000  Uiso   1.00
H354   H     0.24502   0.66163   0.49276   0.00000  Uiso   1.00
H355   H     0.31268   0.81668   0.32353   0.00000  Uiso   1.00
H356   H     0.19061   0.00937   0.45738   0.00000  Uiso   1.00
H357   H     0.21822   0.46500   0.55960   0.00000  Uiso   1.00
H358   H     0.36087   0.79198   0.20276   0.00000  Uiso   1.00
H359   H     0.10346   0.19830   0.48502   0.00000  Uiso   1.00
O360   O     0.12083   0.30820   0.56677   0.00000  Uiso   1.00
O361   O     0.30798   0.73721   0.09862   0.00000  Uiso   1.00
O362   O     0.97027   0.27029   0.46894   0.00000  Uiso   1.00
N363   N     0.07346   0.41645   0.49231   0.00000  Uiso   1.00
N364   N     0.20684   0.72214   0.15869   0.00000  Uiso   1.00
N365   N     0.96619   0.10203   0.42256   0.00000  Uiso   1.00
N366   N     0.17516   0.46652   0.53285   0.00000  Uiso   1.00
N367   N     0.30854   0.77221   0.19923   0.00000  Uiso   1.00
N368   N     0.06789   0.15210   0.46311   0.00000  Uiso   1.00
