data_job_02633
_audit_creation_date              2018-12-19
_audit_creation_method            'Materials Studio'
_symmetry_space_group_name_H-M    'P1'
_symmetry_Int_Tables_number       1
_symmetry_cell_setting            triclinic
loop_
_symmetry_equiv_pos_as_xyz
  x,y,z
_cell_length_a                    15.0161
_cell_length_b                    26.6569
_cell_length_c                    11.8418
_cell_angle_alpha                 90.0000
_cell_angle_beta                  109.9030
_cell_angle_gamma                 90.0000
loop_
_atom_site_label
_atom_site_type_symbol
_atom_site_fract_x
_atom_site_fract_y
_atom_site_fract_z
_atom_site_U_iso_or_equiv
_atom_site_adp_type
_atom_site_occupancy
C1     C     0.76793   0.13179   0.98483   0.00000  Uiso   1.00
C2     C     0.75045   0.10484   0.86561   0.00000  Uiso   1.00
C3     C     0.66682   0.08138   0.79788   0.00000  Uiso   1.00
C4     C     0.66503   0.05884   0.69143   0.00000  Uiso   1.00
C5     C     0.62588   0.01684   0.51202   0.00000  Uiso   1.00
C6     C     0.85456   0.10676   0.07456   0.00000  Uiso   1.00
C7     C     0.85846   0.08491   0.18252   0.00000  Uiso   1.00
C8     C     0.94432   0.06398   0.25198   0.00000  Uiso   1.00
C9     C     0.06681   0.02499   0.39701   0.00000  Uiso   1.00
C10    C     0.79853   0.18492   0.96730   0.00000  Uiso   1.00
C11    C     0.75534   0.22879   0.98510   0.00000  Uiso   1.00
C12    C     0.79404   0.27368   0.96427   0.00000  Uiso   1.00
C13    C     0.82954   0.35605   0.94276   0.00000  Uiso   1.00
C14    C     0.91348   0.13349   0.91622   0.00000  Uiso   1.00
C15    C     0.82951   0.10577   0.82835   0.00000  Uiso   1.00
C16    C     0.82785   0.08326   0.72198   0.00000  Uiso   1.00
C17    C     0.74423   0.05977   0.65410   0.00000  Uiso   1.00
C18    C     0.93362   0.10768   0.03731   0.00000  Uiso   1.00
C19    C     0.01949   0.08679   0.10662   0.00000  Uiso   1.00
C20    C     0.02352   0.06491   0.21465   0.00000  Uiso   1.00
C21    C     0.87759   0.18584   0.93003   0.00000  Uiso   1.00
C22    C     0.91637   0.23067   0.90919   0.00000  Uiso   1.00
C23    C     0.87324   0.27461   0.92695   0.00000  Uiso   1.00
H24    H     0.70639   0.13107   0.01384   0.00000  Uiso   1.00
H25    H     0.60566   0.08067   0.82675   0.00000  Uiso   1.00
H26    H     0.79727   0.08420   0.21134   0.00000  Uiso   1.00
H27    H     0.69416   0.22807   0.01393   0.00000  Uiso   1.00
H28    H     0.52885   0.02519   0.60292   0.00000  Uiso   1.00
H29    H     0.93289   0.03265   0.41386   0.00000  Uiso   1.00
H30    H     0.71547   0.33601   0.99760   0.00000  Uiso   1.00
H31    H     0.97504   0.13421   0.88722   0.00000  Uiso   1.00
H32    H     0.88904   0.08398   0.69317   0.00000  Uiso   1.00
H33    H     0.08066   0.08751   0.07776   0.00000  Uiso   1.00
H34    H     0.97755   0.23137   0.88036   0.00000  Uiso   1.00
H35    H     0.75886   0.02787   0.49450   0.00000  Uiso   1.00
H36    H     0.16290   0.03533   0.30545   0.00000  Uiso   1.00
H37    H     0.94547   0.33870   0.88918   0.00000  Uiso   1.00
O38    O     0.58245   0.99342   0.42336   0.00000  Uiso   1.00
O39    O     0.11253   0.00322   0.48730   0.00000  Uiso   1.00
O40    O     0.82728   0.40122   0.94117   0.00000  Uiso   1.00
N41    N     0.59478   0.03272   0.60402   0.00000  Uiso   1.00
N42    N     0.97253   0.03969   0.36219   0.00000  Uiso   1.00
N43    N     0.76927   0.32331   0.97306   0.00000  Uiso   1.00
N44    N     0.71855   0.03416   0.54568   0.00000  Uiso   1.00
N45    N     0.09629   0.04113   0.30385   0.00000  Uiso   1.00
N46    N     0.89303   0.32476   0.91472   0.00000  Uiso   1.00
C47    C     0.23207   0.63179   0.51517   0.00000  Uiso   1.00
C48    C     0.24955   0.60484   0.63439   0.00000  Uiso   1.00
C49    C     0.33318   0.58138   0.70212   0.00000  Uiso   1.00
C50    C     0.33497   0.55884   0.80857   0.00000  Uiso   1.00
C51    C     0.37412   0.51684   0.98798   0.00000  Uiso   1.00
C52    C     0.14544   0.60676   0.42544   0.00000  Uiso   1.00
C53    C     0.14154   0.58491   0.31748   0.00000  Uiso   1.00
C54    C     0.05568   0.56398   0.24802   0.00000  Uiso   1.00
C55    C     0.93319   0.52499   0.10299   0.00000  Uiso   1.00
C56    C     0.20147   0.68492   0.53270   0.00000  Uiso   1.00
C57    C     0.24466   0.72879   0.51490   0.00000  Uiso   1.00
C58    C     0.20596   0.77368   0.53573   0.00000  Uiso   1.00
C59    C     0.17046   0.85605   0.55724   0.00000  Uiso   1.00
C60    C     0.08652   0.63349   0.58378   0.00000  Uiso   1.00
C61    C     0.17049   0.60577   0.67165   0.00000  Uiso   1.00
C62    C     0.17215   0.58326   0.77802   0.00000  Uiso   1.00
C63    C     0.25577   0.55977   0.84590   0.00000  Uiso   1.00
C64    C     0.06638   0.60768   0.46269   0.00000  Uiso   1.00
C65    C     0.98051   0.58679   0.39338   0.00000  Uiso   1.00
C66    C     0.97648   0.56491   0.28535   0.00000  Uiso   1.00
C67    C     0.12241   0.68584   0.56997   0.00000  Uiso   1.00
C68    C     0.08363   0.73067   0.59081   0.00000  Uiso   1.00
C69    C     0.12676   0.77461   0.57305   0.00000  Uiso   1.00
H70    H     0.29361   0.63107   0.48616   0.00000  Uiso   1.00
H71    H     0.39434   0.58067   0.67325   0.00000  Uiso   1.00
H72    H     0.20273   0.58420   0.28866   0.00000  Uiso   1.00
H73    H     0.30584   0.72807   0.48607   0.00000  Uiso   1.00
H74    H     0.47115   0.52519   0.89708   0.00000  Uiso   1.00
H75    H     0.06711   0.53265   0.08614   0.00000  Uiso   1.00
H76    H     0.28453   0.83601   0.50240   0.00000  Uiso   1.00
H77    H     0.02496   0.63421   0.61278   0.00000  Uiso   1.00
H78    H     0.11096   0.58398   0.80683   0.00000  Uiso   1.00
H79    H     0.91934   0.58751   0.42224   0.00000  Uiso   1.00
H80    H     0.02245   0.73137   0.61964   0.00000  Uiso   1.00
H81    H     0.24114   0.52787   0.00550   0.00000  Uiso   1.00
H82    H     0.83710   0.53533   0.19455   0.00000  Uiso   1.00
H83    H     0.05453   0.83870   0.61082   0.00000  Uiso   1.00
O84    O     0.41755   0.49342   0.07664   0.00000  Uiso   1.00
O85    O     0.88747   0.50322   0.01270   0.00000  Uiso   1.00
O86    O     0.17272   0.90122   0.55883   0.00000  Uiso   1.00
N87    N     0.40522   0.53272   0.89598   0.00000  Uiso   1.00
N88    N     0.02747   0.53969   0.13781   0.00000  Uiso   1.00
N89    N     0.23073   0.82331   0.52694   0.00000  Uiso   1.00
N90    N     0.28145   0.53416   0.95432   0.00000  Uiso   1.00
N91    N     0.90371   0.54113   0.19615   0.00000  Uiso   1.00
N92    N     0.10697   0.82476   0.58528   0.00000  Uiso   1.00
C93    C     0.23207   0.86821   0.01517   0.00000  Uiso   1.00
C94    C     0.24955   0.89516   0.13439   0.00000  Uiso   1.00
C95    C     0.33318   0.91862   0.20212   0.00000  Uiso   1.00
C96    C     0.33497   0.94116   0.30857   0.00000  Uiso   1.00
C97    C     0.37412   0.98316   0.48798   0.00000  Uiso   1.00
C98    C     0.14544   0.89324   0.92544   0.00000  Uiso   1.00
C99    C     0.14154   0.91509   0.81748   0.00000  Uiso   1.00
C100   C     0.05568   0.93602   0.74802   0.00000  Uiso   1.00
C101   C     0.93319   0.97501   0.60299   0.00000  Uiso   1.00
C102   C     0.20147   0.81508   0.03270   0.00000  Uiso   1.00
C103   C     0.24466   0.77121   0.01490   0.00000  Uiso   1.00
C104   C     0.20596   0.72632   0.03573   0.00000  Uiso   1.00
C105   C     0.17046   0.64395   0.05724   0.00000  Uiso   1.00
C106   C     0.08652   0.86651   0.08378   0.00000  Uiso   1.00
C107   C     0.17049   0.89423   0.17165   0.00000  Uiso   1.00
C108   C     0.17215   0.91674   0.27802   0.00000  Uiso   1.00
C109   C     0.25577   0.94023   0.34590   0.00000  Uiso   1.00
C110   C     0.06638   0.89232   0.96269   0.00000  Uiso   1.00
C111   C     0.98051   0.91321   0.89338   0.00000  Uiso   1.00
C112   C     0.97648   0.93509   0.78535   0.00000  Uiso   1.00
C113   C     0.12241   0.81416   0.06997   0.00000  Uiso   1.00
C114   C     0.08363   0.76933   0.09081   0.00000  Uiso   1.00
C115   C     0.12676   0.72539   0.07305   0.00000  Uiso   1.00
H116   H     0.29361   0.86893   0.98616   0.00000  Uiso   1.00
H117   H     0.39434   0.91933   0.17325   0.00000  Uiso   1.00
H118   H     0.20273   0.91580   0.78866   0.00000  Uiso   1.00
H119   H     0.30584   0.77193   0.98607   0.00000  Uiso   1.00
H120   H     0.47115   0.97481   0.39708   0.00000  Uiso   1.00
H121   H     0.06711   0.96735   0.58614   0.00000  Uiso   1.00
H122   H     0.28453   0.66399   0.00240   0.00000  Uiso   1.00
H123   H     0.02496   0.86579   0.11278   0.00000  Uiso   1.00
H124   H     0.11096   0.91602   0.30683   0.00000  Uiso   1.00
H125   H     0.91934   0.91249   0.92224   0.00000  Uiso   1.00
H126   H     0.02245   0.76863   0.11964   0.00000  Uiso   1.00
H127   H     0.24114   0.97213   0.50550   0.00000  Uiso   1.00
H128   H     0.83710   0.96467   0.69455   0.00000  Uiso   1.00
H129   H     0.05453   0.66130   0.11082   0.00000  Uiso   1.00
O130   O     0.41755   0.00658   0.57664   0.00000  Uiso   1.00
O131   O     0.88747   0.99678   0.51270   0.00000  Uiso   1.00
O132   O     0.17272   0.59878   0.05883   0.00000  Uiso   1.00
N133   N     0.40522   0.96728   0.39598   0.00000  Uiso   1.00
N134   N     0.02747   0.96031   0.63781   0.00000  Uiso   1.00
N135   N     0.23073   0.67669   0.02694   0.00000  Uiso   1.00
N136   N     0.28145   0.96584   0.45432   0.00000  Uiso   1.00
N137   N     0.90371   0.95887   0.69615   0.00000  Uiso   1.00
N138   N     0.10697   0.67524   0.08528   0.00000  Uiso   1.00
C139   C     0.76793   0.36821   0.48483   0.00000  Uiso   1.00
C140   C     0.75045   0.39516   0.36561   0.00000  Uiso   1.00
C141   C     0.66682   0.41862   0.29788   0.00000  Uiso   1.00
C142   C     0.66503   0.44116   0.19143   0.00000  Uiso   1.00
C143   C     0.62588   0.48316   0.01202   0.00000  Uiso   1.00
C144   C     0.85456   0.39324   0.57456   0.00000  Uiso   1.00
C145   C     0.85846   0.41509   0.68252   0.00000  Uiso   1.00
C146   C     0.94432   0.43602   0.75198   0.00000  Uiso   1.00
C147   C     0.06681   0.47501   0.89701   0.00000  Uiso   1.00
C148   C     0.79853   0.31508   0.46730   0.00000  Uiso   1.00
C149   C     0.75534   0.27121   0.48510   0.00000  Uiso   1.00
C150   C     0.79404   0.22632   0.46427   0.00000  Uiso   1.00
C151   C     0.82954   0.14395   0.44276   0.00000  Uiso   1.00
C152   C     0.91348   0.36651   0.41622   0.00000  Uiso   1.00
C153   C     0.82951   0.39423   0.32835   0.00000  Uiso   1.00
C154   C     0.82785   0.41674   0.22198   0.00000  Uiso   1.00
C155   C     0.74423   0.44023   0.15410   0.00000  Uiso   1.00
C156   C     0.93362   0.39232   0.53731   0.00000  Uiso   1.00
C157   C     0.01949   0.41321   0.60662   0.00000  Uiso   1.00
C158   C     0.02352   0.43509   0.71465   0.00000  Uiso   1.00
C159   C     0.87759   0.31416   0.43003   0.00000  Uiso   1.00
C160   C     0.91637   0.26933   0.40919   0.00000  Uiso   1.00
C161   C     0.87324   0.22539   0.42695   0.00000  Uiso   1.00
H162   H     0.70639   0.36893   0.51384   0.00000  Uiso   1.00
H163   H     0.60566   0.41933   0.32675   0.00000  Uiso   1.00
H164   H     0.79727   0.41580   0.71134   0.00000  Uiso   1.00
H165   H     0.69416   0.27193   0.51393   0.00000  Uiso   1.00
H166   H     0.52885   0.47481   0.10292   0.00000  Uiso   1.00
H167   H     0.93289   0.46735   0.91386   0.00000  Uiso   1.00
H168   H     0.71547   0.16399   0.49760   0.00000  Uiso   1.00
H169   H     0.97504   0.36579   0.38722   0.00000  Uiso   1.00
H170   H     0.88904   0.41602   0.19317   0.00000  Uiso   1.00
H171   H     0.08066   0.41249   0.57776   0.00000  Uiso   1.00
H172   H     0.97755   0.26863   0.38036   0.00000  Uiso   1.00
H173   H     0.75886   0.47213   0.99450   0.00000  Uiso   1.00
H174   H     0.16290   0.46467   0.80545   0.00000  Uiso   1.00
H175   H     0.94547   0.16130   0.38918   0.00000  Uiso   1.00
O176   O     0.58245   0.50658   0.92336   0.00000  Uiso   1.00
O177   O     0.11253   0.49678   0.98730   0.00000  Uiso   1.00
O178   O     0.82728   0.09878   0.44117   0.00000  Uiso   1.00
N179   N     0.59478   0.46728   0.10402   0.00000  Uiso   1.00
N180   N     0.97253   0.46031   0.86219   0.00000  Uiso   1.00
N181   N     0.76927   0.17669   0.47306   0.00000  Uiso   1.00
N182   N     0.71855   0.46584   0.04568   0.00000  Uiso   1.00
N183   N     0.09629   0.45887   0.80385   0.00000  Uiso   1.00
N184   N     0.89303   0.17524   0.41472   0.00000  Uiso   1.00
