data_job_04768
_audit_creation_date              2018-12-19
_audit_creation_method            'Materials Studio'
_symmetry_space_group_name_H-M    'P1'
_symmetry_Int_Tables_number       1
_symmetry_cell_setting            triclinic
loop_
_symmetry_equiv_pos_as_xyz
  x,y,z
_cell_length_a                    22.6220
_cell_length_b                    11.7582
_cell_length_c                    33.3046
_cell_angle_alpha                 90.0000
_cell_angle_beta                  139.0751
_cell_angle_gamma                 90.0000
loop_
_atom_site_label
_atom_site_type_symbol
_atom_site_fract_x
_atom_site_fract_y
_atom_site_fract_z
_atom_site_U_iso_or_equiv
_atom_site_adp_type
_atom_site_occupancy
C1     C     0.99256   0.15375   0.55221   0.00000  Uiso   1.00
C2     C     0.04329   0.24937   0.55710   0.00000  Uiso   1.00
C3     C     0.01875   0.29946   0.50839   0.00000  Uiso   1.00
C4     C     0.07407   0.38563   0.52241   0.00000  Uiso   1.00
C5     C     0.14115   0.52878   0.52079   0.00000  Uiso   1.00
C6     C     0.06067   0.05788   0.59286   0.00000  Uiso   1.00
C7     C     0.05073   0.94696   0.57422   0.00000  Uiso   1.00
C8     C     0.12067   0.87193   0.61834   0.00000  Uiso   1.00
C9     C     0.21469   0.71776   0.67226   0.00000  Uiso   1.00
C10    C     0.97094   0.19783   0.58309   0.00000  Uiso   1.00
C11    C     0.88557   0.20455   0.55624   0.00000  Uiso   1.00
C12    C     0.87997   0.24732   0.59214   0.00000  Uiso   1.00
C13    C     0.83469   0.31045   0.63088   0.00000  Uiso   1.00
C14    C     0.13443   0.21772   0.66372   0.00000  Uiso   1.00
C15    C     0.12035   0.28411   0.61767   0.00000  Uiso   1.00
C16    C     0.17572   0.37024   0.63177   0.00000  Uiso   1.00
C17    C     0.15127   0.42044   0.58309   0.00000  Uiso   1.00
C18    C     0.13772   0.09262   0.65343   0.00000  Uiso   1.00
C19    C     0.20769   0.01773   0.69760   0.00000  Uiso   1.00
C20    C     0.19787   0.90673   0.67903   0.00000  Uiso   1.00
C21    C     0.04800   0.23258   0.64366   0.00000  Uiso   1.00
C22    C     0.04254   0.27534   0.67962   0.00000  Uiso   1.00
C23    C     0.95717   0.28213   0.65283   0.00000  Uiso   1.00
H24    H     0.93256   0.12669   0.50505   0.00000  Uiso   1.00
H25    H     0.95912   0.27254   0.46152   0.00000  Uiso   1.00
H26    H     0.99108   0.92009   0.52734   0.00000  Uiso   1.00
H27    H     0.82595   0.17766   0.50936   0.00000  Uiso   1.00
H28    H     0.02256   0.44953   0.43997   0.00000  Uiso   1.00
H29    H     0.08994   0.70637   0.57876   0.00000  Uiso   1.00
H30    H     0.74173   0.24948   0.54085   0.00000  Uiso   1.00
H31    H     0.19443   0.24477   0.71089   0.00000  Uiso   1.00
H32    H     0.23535   0.39711   0.67865   0.00000  Uiso   1.00
H33    H     0.26732   0.04465   0.74447   0.00000  Uiso   1.00
H34    H     0.10219   0.30222   0.72649   0.00000  Uiso   1.00
H35    H     0.24676   0.55063   0.61620   0.00000  Uiso   1.00
H36    H     0.31414   0.80746   0.75499   0.00000  Uiso   1.00
H37    H     0.96594   0.35058   0.71708   0.00000  Uiso   1.00
O38    O     0.15687   0.59813   0.50317   0.00000  Uiso   1.00
O39    O     0.24527   0.62313   0.68526   0.00000  Uiso   1.00
O40    O     0.78843   0.33569   0.63552   0.00000  Uiso   1.00
N41    N     0.06970   0.45243   0.48587   0.00000  Uiso   1.00
N42    N     0.13270   0.75762   0.61563   0.00000  Uiso   1.00
N43    N     0.80716   0.26536   0.58019   0.00000  Uiso   1.00
N44    N     0.19034   0.50684   0.58070   0.00000  Uiso   1.00
N45    N     0.25335   0.81203   0.71046   0.00000  Uiso   1.00
N46    N     0.92780   0.31977   0.67502   0.00000  Uiso   1.00
C47    C     0.18521   0.85142   0.94502   0.00000  Uiso   1.00
C48    C     0.13415   0.94689   0.93989   0.00000  Uiso   1.00
C49    C     0.15831   0.99699   0.98846   0.00000  Uiso   1.00
C50    C     0.10274   0.08300   0.97423   0.00000  Uiso   1.00
C51    C     0.03513   0.22593   0.97549   0.00000  Uiso   1.00
C52    C     0.11730   0.75539   0.90434   0.00000  Uiso   1.00
C53    C     0.12730   0.64447   0.92302   0.00000  Uiso   1.00
C54    C     0.05755   0.56928   0.87886   0.00000  Uiso   1.00
C55    C     0.96382   0.41488   0.82491   0.00000  Uiso   1.00
C56    C     0.20710   0.89561   0.91432   0.00000  Uiso   1.00
C57    C     0.29260   0.90257   0.94138   0.00000  Uiso   1.00
C58    C     0.29845   0.94541   0.90562   0.00000  Uiso   1.00
C59    C     0.34415   0.00874   0.86718   0.00000  Uiso   1.00
C60    C     0.04356   0.91509   0.83339   0.00000  Uiso   1.00
C61    C     0.05721   0.98147   0.87926   0.00000  Uiso   1.00
C62    C     0.00158   0.06743   0.86496   0.00000  Uiso   1.00
C63    C     0.02566   0.11765   0.91349   0.00000  Uiso   1.00
C64    C     0.04036   0.78997   0.84371   0.00000  Uiso   1.00
C65    C     0.97058   0.71491   0.79951   0.00000  Uiso   1.00
C66    C     0.98047   0.60392   0.81811   0.00000  Uiso   1.00
C67    C     0.13016   0.93020   0.85369   0.00000  Uiso   1.00
C68    C     0.13588   0.97302   0.81788   0.00000  Uiso   1.00
C69    C     0.22137   0.98005   0.84488   0.00000  Uiso   1.00
H70    H     0.24511   0.82449   0.99222   0.00000  Uiso   1.00
H71    H     0.21785   0.97019   0.03537   0.00000  Uiso   1.00
H72    H     0.18686   0.61774   0.96994   0.00000  Uiso   1.00
H73    H     0.35213   0.87580   0.98830   0.00000  Uiso   1.00
H74    H     0.15369   0.14695   0.05647   0.00000  Uiso   1.00
H75    H     0.08834   0.40377   0.91850   0.00000  Uiso   1.00
H76    H     0.43685   0.94795   0.95722   0.00000  Uiso   1.00
H77    H     0.98365   0.94201   0.78619   0.00000  Uiso   1.00
H78    H     0.94205   0.09417   0.81803   0.00000  Uiso   1.00
H79    H     0.91105   0.74170   0.75260   0.00000  Uiso   1.00
H80    H     0.07632   0.99977   0.77096   0.00000  Uiso   1.00
H81    H     0.92983   0.24757   0.88007   0.00000  Uiso   1.00
H82    H     0.86449   0.50438   0.74209   0.00000  Uiso   1.00
H83    H     0.21299   0.04856   0.78082   0.00000  Uiso   1.00
O84    O     0.01909   0.29521   0.99294   0.00000  Uiso   1.00
O85    O     0.93337   0.32017   0.81191   0.00000  Uiso   1.00
O86    O     0.39060   0.03413   0.86272   0.00000  Uiso   1.00
N87    N     0.10672   0.14977   0.01059   0.00000  Uiso   1.00
N88    N     0.04562   0.45493   0.88159   0.00000  Uiso   1.00
N89    N     0.37145   0.96367   0.91779   0.00000  Uiso   1.00
N90    N     0.98627   0.20391   0.91567   0.00000  Uiso   1.00
N91    N     0.92517   0.50908   0.78667   0.00000  Uiso   1.00
N92    N     0.25099   0.01781   0.82287   0.00000  Uiso   1.00
C93    C     0.49256   0.65375   0.55221   0.00000  Uiso   1.00
C94    C     0.54329   0.74937   0.55710   0.00000  Uiso   1.00
C95    C     0.51875   0.79946   0.50839   0.00000  Uiso   1.00
C96    C     0.57407   0.88563   0.52241   0.00000  Uiso   1.00
C97    C     0.64115   0.02878   0.52079   0.00000  Uiso   1.00
C98    C     0.56067   0.55788   0.59286   0.00000  Uiso   1.00
C99    C     0.55073   0.44696   0.57422   0.00000  Uiso   1.00
C100   C     0.62067   0.37193   0.61834   0.00000  Uiso   1.00
C101   C     0.71469   0.21776   0.67226   0.00000  Uiso   1.00
C102   C     0.47094   0.69783   0.58309   0.00000  Uiso   1.00
C103   C     0.38557   0.70455   0.55624   0.00000  Uiso   1.00
C104   C     0.37997   0.74732   0.59214   0.00000  Uiso   1.00
C105   C     0.33469   0.81045   0.63088   0.00000  Uiso   1.00
C106   C     0.63443   0.71772   0.66372   0.00000  Uiso   1.00
C107   C     0.62035   0.78411   0.61767   0.00000  Uiso   1.00
C108   C     0.67572   0.87024   0.63177   0.00000  Uiso   1.00
C109   C     0.65127   0.92044   0.58309   0.00000  Uiso   1.00
C110   C     0.63772   0.59262   0.65343   0.00000  Uiso   1.00
C111   C     0.70769   0.51773   0.69760   0.00000  Uiso   1.00
C112   C     0.69787   0.40673   0.67903   0.00000  Uiso   1.00
C113   C     0.54800   0.73258   0.64366   0.00000  Uiso   1.00
C114   C     0.54254   0.77534   0.67962   0.00000  Uiso   1.00
C115   C     0.45717   0.78213   0.65283   0.00000  Uiso   1.00
H116   H     0.43256   0.62669   0.50505   0.00000  Uiso   1.00
H117   H     0.45912   0.77254   0.46152   0.00000  Uiso   1.00
H118   H     0.49108   0.42009   0.52734   0.00000  Uiso   1.00
H119   H     0.32595   0.67766   0.50936   0.00000  Uiso   1.00
H120   H     0.52256   0.94953   0.43997   0.00000  Uiso   1.00
H121   H     0.58994   0.20637   0.57876   0.00000  Uiso   1.00
H122   H     0.24173   0.74948   0.54085   0.00000  Uiso   1.00
H123   H     0.69443   0.74477   0.71089   0.00000  Uiso   1.00
H124   H     0.73535   0.89711   0.67865   0.00000  Uiso   1.00
H125   H     0.76732   0.54465   0.74447   0.00000  Uiso   1.00
H126   H     0.60219   0.80222   0.72649   0.00000  Uiso   1.00
H127   H     0.74676   0.05063   0.61620   0.00000  Uiso   1.00
H128   H     0.81414   0.30746   0.75499   0.00000  Uiso   1.00
H129   H     0.46594   0.85058   0.71708   0.00000  Uiso   1.00
O130   O     0.65687   0.09813   0.50317   0.00000  Uiso   1.00
O131   O     0.74527   0.12313   0.68526   0.00000  Uiso   1.00
O132   O     0.28843   0.83569   0.63552   0.00000  Uiso   1.00
N133   N     0.56970   0.95243   0.48587   0.00000  Uiso   1.00
N134   N     0.63270   0.25762   0.61563   0.00000  Uiso   1.00
N135   N     0.30716   0.76536   0.58019   0.00000  Uiso   1.00
N136   N     0.69034   0.00684   0.58070   0.00000  Uiso   1.00
N137   N     0.75335   0.31203   0.71046   0.00000  Uiso   1.00
N138   N     0.42780   0.81977   0.67502   0.00000  Uiso   1.00
C139   C     0.68521   0.35142   0.94502   0.00000  Uiso   1.00
C140   C     0.63415   0.44689   0.93989   0.00000  Uiso   1.00
C141   C     0.65831   0.49699   0.98846   0.00000  Uiso   1.00
C142   C     0.60274   0.58300   0.97423   0.00000  Uiso   1.00
C143   C     0.53513   0.72593   0.97549   0.00000  Uiso   1.00
C144   C     0.61730   0.25539   0.90434   0.00000  Uiso   1.00
C145   C     0.62730   0.14447   0.92302   0.00000  Uiso   1.00
C146   C     0.55755   0.06928   0.87886   0.00000  Uiso   1.00
C147   C     0.46382   0.91488   0.82491   0.00000  Uiso   1.00
C148   C     0.70710   0.39561   0.91432   0.00000  Uiso   1.00
C149   C     0.79260   0.40257   0.94138   0.00000  Uiso   1.00
C150   C     0.79845   0.44541   0.90562   0.00000  Uiso   1.00
C151   C     0.84415   0.50874   0.86718   0.00000  Uiso   1.00
C152   C     0.54356   0.41509   0.83339   0.00000  Uiso   1.00
C153   C     0.55721   0.48147   0.87926   0.00000  Uiso   1.00
C154   C     0.50158   0.56743   0.86496   0.00000  Uiso   1.00
C155   C     0.52566   0.61765   0.91349   0.00000  Uiso   1.00
C156   C     0.54036   0.28997   0.84371   0.00000  Uiso   1.00
C157   C     0.47058   0.21491   0.79951   0.00000  Uiso   1.00
C158   C     0.48047   0.10392   0.81811   0.00000  Uiso   1.00
C159   C     0.63016   0.43020   0.85369   0.00000  Uiso   1.00
C160   C     0.63588   0.47302   0.81788   0.00000  Uiso   1.00
C161   C     0.72137   0.48005   0.84488   0.00000  Uiso   1.00
H162   H     0.74511   0.32449   0.99222   0.00000  Uiso   1.00
H163   H     0.71785   0.47019   0.03537   0.00000  Uiso   1.00
H164   H     0.68686   0.11774   0.96994   0.00000  Uiso   1.00
H165   H     0.85213   0.37580   0.98830   0.00000  Uiso   1.00
H166   H     0.65369   0.64695   0.05647   0.00000  Uiso   1.00
H167   H     0.58834   0.90377   0.91850   0.00000  Uiso   1.00
H168   H     0.93685   0.44795   0.95722   0.00000  Uiso   1.00
H169   H     0.48365   0.44201   0.78619   0.00000  Uiso   1.00
H170   H     0.44205   0.59417   0.81803   0.00000  Uiso   1.00
H171   H     0.41105   0.24170   0.75260   0.00000  Uiso   1.00
H172   H     0.57632   0.49977   0.77096   0.00000  Uiso   1.00
H173   H     0.42983   0.74757   0.88007   0.00000  Uiso   1.00
H174   H     0.36449   0.00438   0.74209   0.00000  Uiso   1.00
H175   H     0.71299   0.54856   0.78082   0.00000  Uiso   1.00
O176   O     0.51909   0.79521   0.99294   0.00000  Uiso   1.00
O177   O     0.43337   0.82017   0.81191   0.00000  Uiso   1.00
O178   O     0.89060   0.53413   0.86272   0.00000  Uiso   1.00
N179   N     0.60672   0.64977   0.01059   0.00000  Uiso   1.00
N180   N     0.54562   0.95493   0.88159   0.00000  Uiso   1.00
N181   N     0.87145   0.46367   0.91779   0.00000  Uiso   1.00
N182   N     0.48627   0.70391   0.91567   0.00000  Uiso   1.00
N183   N     0.42517   0.00908   0.78667   0.00000  Uiso   1.00
N184   N     0.75099   0.51781   0.82287   0.00000  Uiso   1.00
C185   C     0.99256   0.84625   0.05221   0.00000  Uiso   1.00
C186   C     0.04329   0.75063   0.05710   0.00000  Uiso   1.00
C187   C     0.01875   0.70054   0.00839   0.00000  Uiso   1.00
C188   C     0.07407   0.61437   0.02241   0.00000  Uiso   1.00
C189   C     0.14115   0.47122   0.02079   0.00000  Uiso   1.00
C190   C     0.06067   0.94212   0.09286   0.00000  Uiso   1.00
C191   C     0.05073   0.05304   0.07422   0.00000  Uiso   1.00
C192   C     0.12067   0.12807   0.11834   0.00000  Uiso   1.00
C193   C     0.21469   0.28224   0.17226   0.00000  Uiso   1.00
C194   C     0.97094   0.80217   0.08309   0.00000  Uiso   1.00
C195   C     0.88557   0.79545   0.05624   0.00000  Uiso   1.00
C196   C     0.87997   0.75268   0.09214   0.00000  Uiso   1.00
C197   C     0.83469   0.68955   0.13088   0.00000  Uiso   1.00
C198   C     0.13443   0.78228   0.16372   0.00000  Uiso   1.00
C199   C     0.12035   0.71589   0.11767   0.00000  Uiso   1.00
C200   C     0.17572   0.62976   0.13177   0.00000  Uiso   1.00
C201   C     0.15127   0.57956   0.08309   0.00000  Uiso   1.00
C202   C     0.13772   0.90738   0.15343   0.00000  Uiso   1.00
C203   C     0.20769   0.98227   0.19760   0.00000  Uiso   1.00
C204   C     0.19787   0.09327   0.17903   0.00000  Uiso   1.00
C205   C     0.04800   0.76742   0.14366   0.00000  Uiso   1.00
C206   C     0.04254   0.72466   0.17962   0.00000  Uiso   1.00
C207   C     0.95717   0.71787   0.15283   0.00000  Uiso   1.00
H208   H     0.93256   0.87331   0.00505   0.00000  Uiso   1.00
H209   H     0.95912   0.72746   0.96152   0.00000  Uiso   1.00
H210   H     0.99108   0.07991   0.02734   0.00000  Uiso   1.00
H211   H     0.82595   0.82234   0.00936   0.00000  Uiso   1.00
H212   H     0.02256   0.55047   0.93997   0.00000  Uiso   1.00
H213   H     0.08994   0.29363   0.07876   0.00000  Uiso   1.00
H214   H     0.74173   0.75052   0.04085   0.00000  Uiso   1.00
H215   H     0.19443   0.75523   0.21089   0.00000  Uiso   1.00
H216   H     0.23535   0.60289   0.17865   0.00000  Uiso   1.00
H217   H     0.26732   0.95535   0.24447   0.00000  Uiso   1.00
H218   H     0.10219   0.69778   0.22649   0.00000  Uiso   1.00
H219   H     0.24676   0.44937   0.11620   0.00000  Uiso   1.00
H220   H     0.31414   0.19254   0.25499   0.00000  Uiso   1.00
H221   H     0.96594   0.64942   0.21708   0.00000  Uiso   1.00
O222   O     0.15687   0.40187   0.00317   0.00000  Uiso   1.00
O223   O     0.24527   0.37687   0.18526   0.00000  Uiso   1.00
O224   O     0.78843   0.66431   0.13552   0.00000  Uiso   1.00
N225   N     0.06970   0.54757   0.98587   0.00000  Uiso   1.00
N226   N     0.13270   0.24238   0.11563   0.00000  Uiso   1.00
N227   N     0.80716   0.73464   0.08019   0.00000  Uiso   1.00
N228   N     0.19034   0.49316   0.08070   0.00000  Uiso   1.00
N229   N     0.25335   0.18797   0.21046   0.00000  Uiso   1.00
N230   N     0.92780   0.68023   0.17502   0.00000  Uiso   1.00
C231   C     0.18521   0.14858   0.44502   0.00000  Uiso   1.00
C232   C     0.13415   0.05311   0.43989   0.00000  Uiso   1.00
C233   C     0.15831   0.00301   0.48846   0.00000  Uiso   1.00
C234   C     0.10274   0.91700   0.47423   0.00000  Uiso   1.00
C235   C     0.03513   0.77407   0.47549   0.00000  Uiso   1.00
C236   C     0.11730   0.24461   0.40434   0.00000  Uiso   1.00
C237   C     0.12730   0.35553   0.42302   0.00000  Uiso   1.00
C238   C     0.05755   0.43072   0.37886   0.00000  Uiso   1.00
C239   C     0.96382   0.58512   0.32491   0.00000  Uiso   1.00
C240   C     0.20710   0.10439   0.41432   0.00000  Uiso   1.00
C241   C     0.29260   0.09743   0.44138   0.00000  Uiso   1.00
C242   C     0.29845   0.05459   0.40562   0.00000  Uiso   1.00
C243   C     0.34415   0.99126   0.36718   0.00000  Uiso   1.00
C244   C     0.04356   0.08491   0.33339   0.00000  Uiso   1.00
C245   C     0.05721   0.01853   0.37926   0.00000  Uiso   1.00
C246   C     0.00158   0.93257   0.36496   0.00000  Uiso   1.00
C247   C     0.02566   0.88235   0.41349   0.00000  Uiso   1.00
C248   C     0.04036   0.21003   0.34371   0.00000  Uiso   1.00
C249   C     0.97058   0.28509   0.29951   0.00000  Uiso   1.00
C250   C     0.98047   0.39608   0.31811   0.00000  Uiso   1.00
C251   C     0.13016   0.06980   0.35369   0.00000  Uiso   1.00
C252   C     0.13588   0.02698   0.31788   0.00000  Uiso   1.00
C253   C     0.22137   0.01995   0.34488   0.00000  Uiso   1.00
H254   H     0.24511   0.17551   0.49222   0.00000  Uiso   1.00
H255   H     0.21785   0.02981   0.53537   0.00000  Uiso   1.00
H256   H     0.18686   0.38226   0.46994   0.00000  Uiso   1.00
H257   H     0.35213   0.12420   0.48830   0.00000  Uiso   1.00
H258   H     0.15369   0.85305   0.55647   0.00000  Uiso   1.00
H259   H     0.08834   0.59623   0.41850   0.00000  Uiso   1.00
H260   H     0.43685   0.05205   0.45722   0.00000  Uiso   1.00
H261   H     0.98365   0.05799   0.28619   0.00000  Uiso   1.00
H262   H     0.94205   0.90583   0.31803   0.00000  Uiso   1.00
H263   H     0.91105   0.25830   0.25260   0.00000  Uiso   1.00
H264   H     0.07632   0.00023   0.27096   0.00000  Uiso   1.00
H265   H     0.92983   0.75243   0.38007   0.00000  Uiso   1.00
H266   H     0.86449   0.49562   0.24209   0.00000  Uiso   1.00
H267   H     0.21299   0.95144   0.28082   0.00000  Uiso   1.00
O268   O     0.01909   0.70479   0.49294   0.00000  Uiso   1.00
O269   O     0.93337   0.67983   0.31191   0.00000  Uiso   1.00
O270   O     0.39060   0.96587   0.36272   0.00000  Uiso   1.00
N271   N     0.10672   0.85023   0.51059   0.00000  Uiso   1.00
N272   N     0.04562   0.54507   0.38159   0.00000  Uiso   1.00
N273   N     0.37145   0.03633   0.41779   0.00000  Uiso   1.00
N274   N     0.98627   0.79609   0.41567   0.00000  Uiso   1.00
N275   N     0.92517   0.49092   0.28667   0.00000  Uiso   1.00
N276   N     0.25099   0.98219   0.32287   0.00000  Uiso   1.00
C277   C     0.49256   0.34625   0.05221   0.00000  Uiso   1.00
C278   C     0.54329   0.25063   0.05710   0.00000  Uiso   1.00
C279   C     0.51875   0.20054   0.00839   0.00000  Uiso   1.00
C280   C     0.57407   0.11437   0.02241   0.00000  Uiso   1.00
C281   C     0.64115   0.97122   0.02079   0.00000  Uiso   1.00
C282   C     0.56067   0.44212   0.09286   0.00000  Uiso   1.00
C283   C     0.55073   0.55304   0.07422   0.00000  Uiso   1.00
C284   C     0.62067   0.62807   0.11834   0.00000  Uiso   1.00
C285   C     0.71469   0.78224   0.17226   0.00000  Uiso   1.00
C286   C     0.47094   0.30217   0.08309   0.00000  Uiso   1.00
C287   C     0.38557   0.29545   0.05624   0.00000  Uiso   1.00
C288   C     0.37997   0.25268   0.09214   0.00000  Uiso   1.00
C289   C     0.33469   0.18955   0.13088   0.00000  Uiso   1.00
C290   C     0.63443   0.28228   0.16372   0.00000  Uiso   1.00
C291   C     0.62035   0.21589   0.11767   0.00000  Uiso   1.00
C292   C     0.67572   0.12976   0.13177   0.00000  Uiso   1.00
C293   C     0.65127   0.07956   0.08309   0.00000  Uiso   1.00
C294   C     0.63772   0.40738   0.15343   0.00000  Uiso   1.00
C295   C     0.70769   0.48227   0.19760   0.00000  Uiso   1.00
C296   C     0.69787   0.59327   0.17903   0.00000  Uiso   1.00
C297   C     0.54800   0.26742   0.14366   0.00000  Uiso   1.00
C298   C     0.54254   0.22466   0.17962   0.00000  Uiso   1.00
C299   C     0.45717   0.21787   0.15283   0.00000  Uiso   1.00
H300   H     0.43256   0.37331   0.00505   0.00000  Uiso   1.00
H301   H     0.45912   0.22746   0.96152   0.00000  Uiso   1.00
H302   H     0.49108   0.57991   0.02734   0.00000  Uiso   1.00
H303   H     0.32595   0.32234   0.00936   0.00000  Uiso   1.00
H304   H     0.52256   0.05047   0.93997   0.00000  Uiso   1.00
H305   H     0.58994   0.79363   0.07876   0.00000  Uiso   1.00
H306   H     0.24173   0.25052   0.04085   0.00000  Uiso   1.00
H307   H     0.69443   0.25523   0.21089   0.00000  Uiso   1.00
H308   H     0.73535   0.10289   0.17865   0.00000  Uiso   1.00
H309   H     0.76732   0.45535   0.24447   0.00000  Uiso   1.00
H310   H     0.60219   0.19778   0.22649   0.00000  Uiso   1.00
H311   H     0.74676   0.94937   0.11620   0.00000  Uiso   1.00
H312   H     0.81414   0.69254   0.25499   0.00000  Uiso   1.00
H313   H     0.46594   0.14942   0.21708   0.00000  Uiso   1.00
O314   O     0.65687   0.90187   0.00317   0.00000  Uiso   1.00
O315   O     0.74527   0.87687   0.18526   0.00000  Uiso   1.00
O316   O     0.28843   0.16431   0.13552   0.00000  Uiso   1.00
N317   N     0.56970   0.04757   0.98587   0.00000  Uiso   1.00
N318   N     0.63270   0.74238   0.11563   0.00000  Uiso   1.00
N319   N     0.30716   0.23464   0.08019   0.00000  Uiso   1.00
N320   N     0.69034   0.99316   0.08070   0.00000  Uiso   1.00
N321   N     0.75335   0.68797   0.21046   0.00000  Uiso   1.00
N322   N     0.42780   0.18023   0.17502   0.00000  Uiso   1.00
C323   C     0.68521   0.64858   0.44502   0.00000  Uiso   1.00
C324   C     0.63415   0.55311   0.43989   0.00000  Uiso   1.00
C325   C     0.65831   0.50301   0.48846   0.00000  Uiso   1.00
C326   C     0.60274   0.41700   0.47423   0.00000  Uiso   1.00
C327   C     0.53513   0.27407   0.47549   0.00000  Uiso   1.00
C328   C     0.61730   0.74461   0.40434   0.00000  Uiso   1.00
C329   C     0.62730   0.85553   0.42302   0.00000  Uiso   1.00
C330   C     0.55755   0.93072   0.37886   0.00000  Uiso   1.00
C331   C     0.46382   0.08512   0.32491   0.00000  Uiso   1.00
C332   C     0.70710   0.60439   0.41432   0.00000  Uiso   1.00
C333   C     0.79260   0.59743   0.44138   0.00000  Uiso   1.00
C334   C     0.79845   0.55459   0.40562   0.00000  Uiso   1.00
C335   C     0.84415   0.49126   0.36718   0.00000  Uiso   1.00
C336   C     0.54356   0.58491   0.33339   0.00000  Uiso   1.00
C337   C     0.55721   0.51853   0.37926   0.00000  Uiso   1.00
C338   C     0.50158   0.43257   0.36496   0.00000  Uiso   1.00
C339   C     0.52566   0.38235   0.41349   0.00000  Uiso   1.00
C340   C     0.54036   0.71003   0.34371   0.00000  Uiso   1.00
C341   C     0.47058   0.78509   0.29951   0.00000  Uiso   1.00
C342   C     0.48047   0.89608   0.31811   0.00000  Uiso   1.00
C343   C     0.63016   0.56980   0.35369   0.00000  Uiso   1.00
C344   C     0.63588   0.52698   0.31788   0.00000  Uiso   1.00
C345   C     0.72137   0.51995   0.34488   0.00000  Uiso   1.00
H346   H     0.74511   0.67551   0.49222   0.00000  Uiso   1.00
H347   H     0.71785   0.52981   0.53537   0.00000  Uiso   1.00
H348   H     0.68686   0.88226   0.46994   0.00000  Uiso   1.00
H349   H     0.85213   0.62420   0.48830   0.00000  Uiso   1.00
H350   H     0.65369   0.35305   0.55647   0.00000  Uiso   1.00
H351   H     0.58834   0.09623   0.41850   0.00000  Uiso   1.00
H352   H     0.93685   0.55205   0.45722   0.00000  Uiso   1.00
H353   H     0.48365   0.55799   0.28619   0.00000  Uiso   1.00
H354   H     0.44205   0.40583   0.31803   0.00000  Uiso   1.00
H355   H     0.41105   0.75830   0.25260   0.00000  Uiso   1.00
H356   H     0.57632   0.50023   0.27096   0.00000  Uiso   1.00
H357   H     0.42983   0.25243   0.38007   0.00000  Uiso   1.00
H358   H     0.36449   0.99562   0.24209   0.00000  Uiso   1.00
H359   H     0.71299   0.45144   0.28082   0.00000  Uiso   1.00
O360   O     0.51909   0.20479   0.49294   0.00000  Uiso   1.00
O361   O     0.43337   0.17983   0.31191   0.00000  Uiso   1.00
O362   O     0.89060   0.46587   0.36272   0.00000  Uiso   1.00
N363   N     0.60672   0.35023   0.51059   0.00000  Uiso   1.00
N364   N     0.54562   0.04507   0.38159   0.00000  Uiso   1.00
N365   N     0.87145   0.53633   0.41779   0.00000  Uiso   1.00
N366   N     0.48627   0.29609   0.41567   0.00000  Uiso   1.00
N367   N     0.42517   0.99092   0.28667   0.00000  Uiso   1.00
N368   N     0.75099   0.48219   0.32287   0.00000  Uiso   1.00
