data_job_00848
_audit_creation_date              2018-12-19
_audit_creation_method            'Materials Studio'
_symmetry_space_group_name_H-M    'P1'
_symmetry_Int_Tables_number       1
_symmetry_cell_setting            triclinic
loop_
_symmetry_equiv_pos_as_xyz
  x,y,z
_cell_length_a                    12.4062
_cell_length_b                    13.1552
_cell_length_c                    23.6844
_cell_angle_alpha                 90.0000
_cell_angle_beta                  107.5755
_cell_angle_gamma                 90.0000
loop_
_atom_site_label
_atom_site_type_symbol
_atom_site_fract_x
_atom_site_fract_y
_atom_site_fract_z
_atom_site_U_iso_or_equiv
_atom_site_adp_type
_atom_site_occupancy
C1     C     0.77924   0.14016   0.30972   0.00000  Uiso   1.00
C2     C     0.87561   0.06422   0.33207   0.00000  Uiso   1.00
C3     C     0.98861   0.08855   0.35810   0.00000  Uiso   1.00
C4     C     0.06375   0.00809   0.37555   0.00000  Uiso   1.00
C5     C     0.21897   0.90555   0.41149   0.00000  Uiso   1.00
C6     C     0.72276   0.11410   0.24474   0.00000  Uiso   1.00
C7     C     0.70723   0.18038   0.19736   0.00000  Uiso   1.00
C8     C     0.65368   0.14190   0.14130   0.00000  Uiso   1.00
C9     C     0.57152   0.11683   0.04167   0.00000  Uiso   1.00
C10    C     0.69310   0.11458   0.34184   0.00000  Uiso   1.00
C11    C     0.65261   0.18127   0.37609   0.00000  Uiso   1.00
C12    C     0.57407   0.14320   0.40177   0.00000  Uiso   1.00
C13    C     0.44586   0.11888   0.45290   0.00000  Uiso   1.00
C14    C     0.71174   0.95399   0.29440   0.00000  Uiso   1.00
C15    C     0.83894   0.96310   0.32375   0.00000  Uiso   1.00
C16    C     0.91393   0.88257   0.34116   0.00000  Uiso   1.00
C17    C     0.02702   0.90678   0.36722   0.00000  Uiso   1.00
C18    C     0.68610   0.01298   0.23642   0.00000  Uiso   1.00
C19    C     0.63255   0.97440   0.18042   0.00000  Uiso   1.00
C20    C     0.61695   0.04060   0.13297   0.00000  Uiso   1.00
C21    C     0.65644   0.01346   0.33353   0.00000  Uiso   1.00
C22    C     0.57794   0.97529   0.35915   0.00000  Uiso   1.00
C23    C     0.53734   0.04190   0.39343   0.00000  Uiso   1.00
H24    H     0.80778   0.21889   0.31619   0.00000  Uiso   1.00
H25    H     0.01695   0.16682   0.36453   0.00000  Uiso   1.00
H26    H     0.73560   0.25863   0.20381   0.00000  Uiso   1.00
H27    H     0.68100   0.25952   0.38251   0.00000  Uiso   1.00
H28    H     0.23269   0.06450   0.41443   0.00000  Uiso   1.00
H29    H     0.63942   0.25810   0.07556   0.00000  Uiso   1.00
H30    H     0.52427   0.25997   0.45238   0.00000  Uiso   1.00
H31    H     0.68320   0.87526   0.28793   0.00000  Uiso   1.00
H32    H     0.88554   0.80433   0.33472   0.00000  Uiso   1.00
H33    H     0.60419   0.89614   0.17400   0.00000  Uiso   1.00
H34    H     0.54959   0.89703   0.35271   0.00000  Uiso   1.00
H35    H     0.12603   0.77028   0.39024   0.00000  Uiso   1.00
H36    H     0.53275   0.96389   0.05136   0.00000  Uiso   1.00
H37    H     0.41761   0.96576   0.42819   0.00000  Uiso   1.00
O38    O     0.31472   0.87693   0.43361   0.00000  Uiso   1.00
O39    O     0.53635   0.13093   0.98902   0.00000  Uiso   1.00
O40    O     0.38529   0.13339   0.48341   0.00000  Uiso   1.00
N41    N     0.17982   0.00499   0.40233   0.00000  Uiso   1.00
N42    N     0.62516   0.18599   0.08550   0.00000  Uiso   1.00
N43    N     0.51748   0.18775   0.43779   0.00000  Uiso   1.00
N44    N     0.12243   0.84667   0.38931   0.00000  Uiso   1.00
N45    N     0.56777   0.02767   0.07248   0.00000  Uiso   1.00
N46    N     0.46009   0.02943   0.42477   0.00000  Uiso   1.00
C47    C     0.22076   0.64016   0.19028   0.00000  Uiso   1.00
C48    C     0.12439   0.56422   0.16793   0.00000  Uiso   1.00
C49    C     0.01139   0.58855   0.14190   0.00000  Uiso   1.00
C50    C     0.93625   0.50809   0.12445   0.00000  Uiso   1.00
C51    C     0.78103   0.40555   0.08851   0.00000  Uiso   1.00
C52    C     0.27724   0.61410   0.25526   0.00000  Uiso   1.00
C53    C     0.29277   0.68038   0.30264   0.00000  Uiso   1.00
C54    C     0.34632   0.64190   0.35870   0.00000  Uiso   1.00
C55    C     0.42848   0.61683   0.45833   0.00000  Uiso   1.00
C56    C     0.30690   0.61458   0.15816   0.00000  Uiso   1.00
C57    C     0.34739   0.68127   0.12391   0.00000  Uiso   1.00
C58    C     0.42593   0.64320   0.09823   0.00000  Uiso   1.00
C59    C     0.55414   0.61888   0.04710   0.00000  Uiso   1.00
C60    C     0.28826   0.45399   0.20560   0.00000  Uiso   1.00
C61    C     0.16106   0.46310   0.17625   0.00000  Uiso   1.00
C62    C     0.08607   0.38257   0.15884   0.00000  Uiso   1.00
C63    C     0.97298   0.40678   0.13278   0.00000  Uiso   1.00
C64    C     0.31390   0.51298   0.26358   0.00000  Uiso   1.00
C65    C     0.36745   0.47440   0.31958   0.00000  Uiso   1.00
C66    C     0.38305   0.54060   0.36703   0.00000  Uiso   1.00
C67    C     0.34356   0.51346   0.16647   0.00000  Uiso   1.00
C68    C     0.42206   0.47529   0.14085   0.00000  Uiso   1.00
C69    C     0.46266   0.54190   0.10657   0.00000  Uiso   1.00
H70    H     0.19222   0.71889   0.18381   0.00000  Uiso   1.00
H71    H     0.98305   0.66682   0.13547   0.00000  Uiso   1.00
H72    H     0.26440   0.75863   0.29619   0.00000  Uiso   1.00
H73    H     0.31900   0.75952   0.11749   0.00000  Uiso   1.00
H74    H     0.76731   0.56450   0.08557   0.00000  Uiso   1.00
H75    H     0.36058   0.75810   0.42444   0.00000  Uiso   1.00
H76    H     0.47573   0.75997   0.04762   0.00000  Uiso   1.00
H77    H     0.31680   0.37526   0.21207   0.00000  Uiso   1.00
H78    H     0.11446   0.30433   0.16528   0.00000  Uiso   1.00
H79    H     0.39581   0.39614   0.32600   0.00000  Uiso   1.00
H80    H     0.45041   0.39703   0.14729   0.00000  Uiso   1.00
H81    H     0.87397   0.27028   0.10976   0.00000  Uiso   1.00
H82    H     0.46725   0.46389   0.44864   0.00000  Uiso   1.00
H83    H     0.58239   0.46576   0.07181   0.00000  Uiso   1.00
O84    O     0.68528   0.37693   0.06639   0.00000  Uiso   1.00
O85    O     0.46365   0.63093   0.51098   0.00000  Uiso   1.00
O86    O     0.61471   0.63339   0.01659   0.00000  Uiso   1.00
N87    N     0.82018   0.50499   0.09767   0.00000  Uiso   1.00
N88    N     0.37484   0.68599   0.41450   0.00000  Uiso   1.00
N89    N     0.48252   0.68775   0.06221   0.00000  Uiso   1.00
N90    N     0.87757   0.34667   0.11069   0.00000  Uiso   1.00
N91    N     0.43223   0.52767   0.42752   0.00000  Uiso   1.00
N92    N     0.53991   0.52943   0.07523   0.00000  Uiso   1.00
C93    C     0.22076   0.85984   0.69028   0.00000  Uiso   1.00
C94    C     0.12439   0.93578   0.66793   0.00000  Uiso   1.00
C95    C     0.01139   0.91145   0.64190   0.00000  Uiso   1.00
C96    C     0.93625   0.99191   0.62445   0.00000  Uiso   1.00
C97    C     0.78103   0.09445   0.58851   0.00000  Uiso   1.00
C98    C     0.27724   0.88590   0.75526   0.00000  Uiso   1.00
C99    C     0.29277   0.81962   0.80264   0.00000  Uiso   1.00
C100   C     0.34632   0.85810   0.85870   0.00000  Uiso   1.00
C101   C     0.42848   0.88317   0.95833   0.00000  Uiso   1.00
C102   C     0.30690   0.88542   0.65816   0.00000  Uiso   1.00
C103   C     0.34739   0.81873   0.62391   0.00000  Uiso   1.00
C104   C     0.42593   0.85680   0.59823   0.00000  Uiso   1.00
C105   C     0.55414   0.88112   0.54710   0.00000  Uiso   1.00
C106   C     0.28826   0.04601   0.70560   0.00000  Uiso   1.00
C107   C     0.16106   0.03690   0.67625   0.00000  Uiso   1.00
C108   C     0.08607   0.11743   0.65884   0.00000  Uiso   1.00
C109   C     0.97298   0.09322   0.63278   0.00000  Uiso   1.00
C110   C     0.31390   0.98702   0.76358   0.00000  Uiso   1.00
C111   C     0.36745   0.02560   0.81958   0.00000  Uiso   1.00
C112   C     0.38305   0.95940   0.86703   0.00000  Uiso   1.00
C113   C     0.34356   0.98654   0.66647   0.00000  Uiso   1.00
C114   C     0.42206   0.02471   0.64085   0.00000  Uiso   1.00
C115   C     0.46266   0.95810   0.60657   0.00000  Uiso   1.00
H116   H     0.19222   0.78111   0.68381   0.00000  Uiso   1.00
H117   H     0.98305   0.83318   0.63547   0.00000  Uiso   1.00
H118   H     0.26440   0.74137   0.79619   0.00000  Uiso   1.00
H119   H     0.31900   0.74048   0.61749   0.00000  Uiso   1.00
H120   H     0.76731   0.93550   0.58557   0.00000  Uiso   1.00
H121   H     0.36058   0.74190   0.92444   0.00000  Uiso   1.00
H122   H     0.47573   0.74003   0.54762   0.00000  Uiso   1.00
H123   H     0.31680   0.12474   0.71207   0.00000  Uiso   1.00
H124   H     0.11446   0.19567   0.66528   0.00000  Uiso   1.00
H125   H     0.39581   0.10386   0.82600   0.00000  Uiso   1.00
H126   H     0.45041   0.10297   0.64729   0.00000  Uiso   1.00
H127   H     0.87397   0.22972   0.60976   0.00000  Uiso   1.00
H128   H     0.46725   0.03611   0.94864   0.00000  Uiso   1.00
H129   H     0.58239   0.03424   0.57181   0.00000  Uiso   1.00
O130   O     0.68528   0.12307   0.56639   0.00000  Uiso   1.00
O131   O     0.46365   0.86907   0.01098   0.00000  Uiso   1.00
O132   O     0.61471   0.86661   0.51659   0.00000  Uiso   1.00
N133   N     0.82018   0.99501   0.59767   0.00000  Uiso   1.00
N134   N     0.37484   0.81401   0.91450   0.00000  Uiso   1.00
N135   N     0.48252   0.81225   0.56221   0.00000  Uiso   1.00
N136   N     0.87757   0.15333   0.61069   0.00000  Uiso   1.00
N137   N     0.43223   0.97233   0.92752   0.00000  Uiso   1.00
N138   N     0.53991   0.97057   0.57523   0.00000  Uiso   1.00
C139   C     0.77924   0.35984   0.80972   0.00000  Uiso   1.00
C140   C     0.87561   0.43578   0.83207   0.00000  Uiso   1.00
C141   C     0.98861   0.41145   0.85810   0.00000  Uiso   1.00
C142   C     0.06375   0.49191   0.87555   0.00000  Uiso   1.00
C143   C     0.21897   0.59445   0.91149   0.00000  Uiso   1.00
C144   C     0.72276   0.38590   0.74474   0.00000  Uiso   1.00
C145   C     0.70723   0.31962   0.69736   0.00000  Uiso   1.00
C146   C     0.65368   0.35810   0.64130   0.00000  Uiso   1.00
C147   C     0.57152   0.38317   0.54167   0.00000  Uiso   1.00
C148   C     0.69310   0.38542   0.84184   0.00000  Uiso   1.00
C149   C     0.65261   0.31873   0.87609   0.00000  Uiso   1.00
C150   C     0.57407   0.35680   0.90177   0.00000  Uiso   1.00
C151   C     0.44586   0.38112   0.95290   0.00000  Uiso   1.00
C152   C     0.71174   0.54601   0.79440   0.00000  Uiso   1.00
C153   C     0.83894   0.53690   0.82375   0.00000  Uiso   1.00
C154   C     0.91393   0.61743   0.84116   0.00000  Uiso   1.00
C155   C     0.02702   0.59322   0.86722   0.00000  Uiso   1.00
C156   C     0.68610   0.48702   0.73642   0.00000  Uiso   1.00
C157   C     0.63255   0.52560   0.68042   0.00000  Uiso   1.00
C158   C     0.61695   0.45940   0.63297   0.00000  Uiso   1.00
C159   C     0.65644   0.48654   0.83353   0.00000  Uiso   1.00
C160   C     0.57794   0.52471   0.85915   0.00000  Uiso   1.00
C161   C     0.53734   0.45810   0.89343   0.00000  Uiso   1.00
H162   H     0.80778   0.28111   0.81619   0.00000  Uiso   1.00
H163   H     0.01695   0.33318   0.86453   0.00000  Uiso   1.00
H164   H     0.73560   0.24137   0.70381   0.00000  Uiso   1.00
H165   H     0.68100   0.24048   0.88251   0.00000  Uiso   1.00
H166   H     0.23269   0.43550   0.91443   0.00000  Uiso   1.00
H167   H     0.63942   0.24190   0.57556   0.00000  Uiso   1.00
H168   H     0.52427   0.24003   0.95238   0.00000  Uiso   1.00
H169   H     0.68320   0.62474   0.78793   0.00000  Uiso   1.00
H170   H     0.88554   0.69567   0.83472   0.00000  Uiso   1.00
H171   H     0.60419   0.60386   0.67400   0.00000  Uiso   1.00
H172   H     0.54959   0.60297   0.85271   0.00000  Uiso   1.00
H173   H     0.12603   0.72972   0.89024   0.00000  Uiso   1.00
H174   H     0.53275   0.53611   0.55136   0.00000  Uiso   1.00
H175   H     0.41761   0.53424   0.92819   0.00000  Uiso   1.00
O176   O     0.31472   0.62307   0.93361   0.00000  Uiso   1.00
O177   O     0.53635   0.36907   0.48902   0.00000  Uiso   1.00
O178   O     0.38529   0.36661   0.98341   0.00000  Uiso   1.00
N179   N     0.17982   0.49501   0.90233   0.00000  Uiso   1.00
N180   N     0.62516   0.31401   0.58550   0.00000  Uiso   1.00
N181   N     0.51748   0.31225   0.93779   0.00000  Uiso   1.00
N182   N     0.12243   0.65333   0.88931   0.00000  Uiso   1.00
N183   N     0.56777   0.47233   0.57248   0.00000  Uiso   1.00
N184   N     0.46009   0.47057   0.92477   0.00000  Uiso   1.00
