data_job_06776
_audit_creation_date              2018-12-19
_audit_creation_method            'Materials Studio'
_symmetry_space_group_name_H-M    'P1'
_symmetry_Int_Tables_number       1
_symmetry_cell_setting            triclinic
loop_
_symmetry_equiv_pos_as_xyz
  x,y,z
_cell_length_a                    17.9901
_cell_length_b                    19.7376
_cell_length_c                    26.9462
_cell_angle_alpha                 77.9310
_cell_angle_beta                  74.9208
_cell_angle_gamma                 67.5412
loop_
_atom_site_label
_atom_site_type_symbol
_atom_site_fract_x
_atom_site_fract_y
_atom_site_fract_z
_atom_site_U_iso_or_equiv
_atom_site_adp_type
_atom_site_occupancy
C1     C     0.47586   0.53848   0.82978   0.00000  Uiso   1.00
C2     C     0.56240   0.54057   0.80895   0.00000  Uiso   1.00
C3     C     0.59984   0.54730   0.75708   0.00000  Uiso   1.00
C4     C     0.67933   0.54811   0.74598   0.00000  Uiso   1.00
C5     C     0.80755   0.55219   0.70765   0.00000  Uiso   1.00
C6     C     0.48510   0.46683   0.86645   0.00000  Uiso   1.00
C7     C     0.45753   0.41157   0.86293   0.00000  Uiso   1.00
C8     C     0.47193   0.35032   0.90025   0.00000  Uiso   1.00
C9     C     0.48009   0.23994   0.95121   0.00000  Uiso   1.00
C10    C     0.43121   0.60082   0.86364   0.00000  Uiso   1.00
C11    C     0.35830   0.65821   0.85777   0.00000  Uiso   1.00
C12    C     0.32732   0.70976   0.89273   0.00000  Uiso   1.00
C13    C     0.25179   0.80742   0.93934   0.00000  Uiso   1.00
C14    C     0.55046   0.52797   0.90232   0.00000  Uiso   1.00
C15    C     0.60292   0.53486   0.84835   0.00000  Uiso   1.00
C16    C     0.68237   0.53567   0.83734   0.00000  Uiso   1.00
C17    C     0.71991   0.54240   0.78546   0.00000  Uiso   1.00
C18    C     0.52562   0.46113   0.90585   0.00000  Uiso   1.00
C19    C     0.54006   0.39995   0.94319   0.00000  Uiso   1.00
C20    C     0.51252   0.34460   0.93972   0.00000  Uiso   1.00
C21    C     0.47172   0.59512   0.90305   0.00000  Uiso   1.00
C22    C     0.44084   0.64659   0.93803   0.00000  Uiso   1.00
C23    C     0.36791   0.70404   0.93221   0.00000  Uiso   1.00
H24    H     0.44432   0.54292   0.79910   0.00000  Uiso   1.00
H25    H     0.56847   0.55170   0.72659   0.00000  Uiso   1.00
H26    H     0.42617   0.41600   0.83244   0.00000  Uiso   1.00
H27    H     0.32697   0.66260   0.82727   0.00000  Uiso   1.00
H28    H     0.72399   0.55890   0.66358   0.00000  Uiso   1.00
H29    H     0.42392   0.27278   0.88676   0.00000  Uiso   1.00
H30    H     0.21473   0.79279   0.87588   0.00000  Uiso   1.00
H31    H     0.58200   0.52353   0.93300   0.00000  Uiso   1.00
H32    H     0.71371   0.53126   0.86784   0.00000  Uiso   1.00
H33    H     0.57141   0.39555   0.97368   0.00000  Uiso   1.00
H34    H     0.47220   0.64215   0.96852   0.00000  Uiso   1.00
H35    H     0.84187   0.54230   0.77822   0.00000  Uiso   1.00
H36    H     0.54180   0.25618   0.00140   0.00000  Uiso   1.00
H37    H     0.33261   0.77619   0.99052   0.00000  Uiso   1.00
O38    O     0.86710   0.55601   0.67562   0.00000  Uiso   1.00
O39    O     0.47340   0.18064   0.96843   0.00000  Uiso   1.00
O40    O     0.19895   0.86287   0.95415   0.00000  Uiso   1.00
N41    N     0.73365   0.55395   0.69950   0.00000  Uiso   1.00
N42    N     0.45312   0.28644   0.90816   0.00000  Uiso   1.00
N43    N     0.25753   0.77259   0.89800   0.00000  Uiso   1.00
N44    N     0.79708   0.54502   0.76119   0.00000  Uiso   1.00
N45    N     0.51655   0.27751   0.96985   0.00000  Uiso   1.00
N46    N     0.32096   0.76366   0.95968   0.00000  Uiso   1.00
C47    C     0.33153   0.89590   0.57141   0.00000  Uiso   1.00
C48    C     0.41255   0.87590   0.58848   0.00000  Uiso   1.00
C49    C     0.42415   0.90539   0.62713   0.00000  Uiso   1.00
C50    C     0.50296   0.87989   0.63694   0.00000  Uiso   1.00
C51    C     0.61892   0.85693   0.66767   0.00000  Uiso   1.00
C52    C     0.34753   0.92132   0.51341   0.00000  Uiso   1.00
C53    C     0.30445   0.98899   0.48894   0.00000  Uiso   1.00
C54    C     0.32852   0.00171   0.43556   0.00000  Uiso   1.00
C55    C     0.34350   0.04925   0.34973   0.00000  Uiso   1.00
C56    C     0.31628   0.82351   0.57719   0.00000  Uiso   1.00
C57    C     0.24692   0.80895   0.60632   0.00000  Uiso   1.00
C58    C     0.24468   0.73932   0.60662   0.00000  Uiso   1.00
C59    C     0.21113   0.63500   0.61981   0.00000  Uiso   1.00
C60    C     0.45086   0.79817   0.52012   0.00000  Uiso   1.00
C61    C     0.47737   0.82282   0.56062   0.00000  Uiso   1.00
C62    C     0.55619   0.79726   0.57038   0.00000  Uiso   1.00
C63    C     0.56790   0.82670   0.60903   0.00000  Uiso   1.00
C64    C     0.41235   0.86824   0.48555   0.00000  Uiso   1.00
C65    C     0.43649   0.88086   0.43219   0.00000  Uiso   1.00
C66    C     0.39346   0.94853   0.40765   0.00000  Uiso   1.00
C67    C     0.38110   0.77042   0.54933   0.00000  Uiso   1.00
C68    C     0.37896   0.70081   0.54957   0.00000  Uiso   1.00
C69    C     0.30961   0.68614   0.57871   0.00000  Uiso   1.00
H70    H     0.28106   0.93724   0.59310   0.00000  Uiso   1.00
H71    H     0.37397   0.94648   0.64868   0.00000  Uiso   1.00
H72    H     0.25429   0.03006   0.51051   0.00000  Uiso   1.00
H73    H     0.19677   0.85004   0.62787   0.00000  Uiso   1.00
H74    H     0.50558   0.93334   0.69799   0.00000  Uiso   1.00
H75    H     0.25320   0.10956   0.40666   0.00000  Uiso   1.00
H76    H     0.13191   0.72996   0.65415   0.00000  Uiso   1.00
H77    H     0.50133   0.75683   0.49843   0.00000  Uiso   1.00
H78    H     0.60633   0.75617   0.54881   0.00000  Uiso   1.00
H79    H     0.48665   0.83976   0.41065   0.00000  Uiso   1.00
H80    H     0.42913   0.65974   0.52801   0.00000  Uiso   1.00
H81    H     0.69417   0.77888   0.61694   0.00000  Uiso   1.00
H82    H     0.44178   0.95511   0.32561   0.00000  Uiso   1.00
H83    H     0.32050   0.57550   0.57309   0.00000  Uiso   1.00
O84    O     0.66498   0.85895   0.69231   0.00000  Uiso   1.00
O85    O     0.33385   0.09015   0.31009   0.00000  Uiso   1.00
O86    O     0.17473   0.59211   0.63479   0.00000  Uiso   1.00
N87    N     0.53555   0.89706   0.67201   0.00000  Uiso   1.00
N88    N     0.29959   0.06183   0.39963   0.00000  Uiso   1.00
N89    N     0.18619   0.70694   0.63100   0.00000  Uiso   1.00
N90    N     0.63703   0.81395   0.62840   0.00000  Uiso   1.00
N91    N     0.40107   0.97872   0.35602   0.00000  Uiso   1.00
N92    N     0.28767   0.62383   0.58738   0.00000  Uiso   1.00
C93    C     0.29182   0.13438   0.89810   0.00000  Uiso   1.00
C94    C     0.31686   0.17287   0.84458   0.00000  Uiso   1.00
C95    C     0.39336   0.14991   0.81217   0.00000  Uiso   1.00
C96    C     0.40405   0.19270   0.76475   0.00000  Uiso   1.00
C97    C     0.45261   0.24284   0.68385   0.00000  Uiso   1.00
C98    C     0.26203   0.19228   0.93523   0.00000  Uiso   1.00
C99    C     0.29243   0.18564   0.97904   0.00000  Uiso   1.00
C100   C     0.25695   0.24476   0.00794   0.00000  Uiso   1.00
C101   C     0.22035   0.32501   0.06779   0.00000  Uiso   1.00
C102   C     0.21635   0.11804   0.89629   0.00000  Uiso   1.00
C103   C     0.20833   0.04897   0.90738   0.00000  Uiso   1.00
C104   C     0.13439   0.04559   0.90350   0.00000  Uiso   1.00
C105   C     0.02687   0.01057   0.90290   0.00000  Uiso   1.00
C106   C     0.17476   0.25119   0.87153   0.00000  Uiso   1.00
C107   C     0.25327   0.23632   0.83015   0.00000  Uiso   1.00
C108   C     0.26385   0.27915   0.78277   0.00000  Uiso   1.00
C109   C     0.34035   0.25626   0.75029   0.00000  Uiso   1.00
C110   C     0.19845   0.25573   0.92080   0.00000  Uiso   1.00
C111   C     0.16292   0.31487   0.94964   0.00000  Uiso   1.00
C112   C     0.19326   0.30832   0.99348   0.00000  Uiso   1.00
C113   C     0.15277   0.18149   0.88186   0.00000  Uiso   1.00
C114   C     0.07882   0.17821   0.87797   0.00000  Uiso   1.00
C115   C     0.07069   0.10915   0.88904   0.00000  Uiso   1.00
H116   H     0.34132   0.08499   0.90934   0.00000  Uiso   1.00
H117   H     0.44255   0.10081   0.82335   0.00000  Uiso   1.00
H118   H     0.34163   0.13653   0.99020   0.00000  Uiso   1.00
H119   H     0.25755   0.99989   0.91854   0.00000  Uiso   1.00
H120   H     0.52675   0.14636   0.72166   0.00000  Uiso   1.00
H121   H     0.31393   0.22165   0.07348   0.00000  Uiso   1.00
H122   H     0.13663   0.93351   0.92238   0.00000  Uiso   1.00
H123   H     0.12525   0.30059   0.86030   0.00000  Uiso   1.00
H124   H     0.21463   0.32825   0.77161   0.00000  Uiso   1.00
H125   H     0.11371   0.36396   0.93846   0.00000  Uiso   1.00
H126   H     0.02963   0.22732   0.86680   0.00000  Uiso   1.00
H127   H     0.34177   0.33095   0.67967   0.00000  Uiso   1.00
H128   H     0.12895   0.40624   0.03149   0.00000  Uiso   1.00
H129   H     0.95165   0.11811   0.88038   0.00000  Uiso   1.00
O130   O     0.49696   0.25297   0.64322   0.00000  Uiso   1.00
O131   O     0.21774   0.35174   0.10480   0.00000  Uiso   1.00
O132   O     0.98513   0.97372   0.90655   0.00000  Uiso   1.00
N133   N     0.47095   0.18600   0.72394   0.00000  Uiso   1.00
N134   N     0.27198   0.25640   0.05287   0.00000  Uiso   1.00
N135   N     0.10621   0.98702   0.91161   0.00000  Uiso   1.00
N136   N     0.37141   0.28533   0.70135   0.00000  Uiso   1.00
N137   N     0.17244   0.35573   0.03027   0.00000  Uiso   1.00
N138   N     0.00667   0.08635   0.88902   0.00000  Uiso   1.00
C139   C     0.96176   0.62688   0.06382   0.00000  Uiso   1.00
C140   C     0.05494   0.60525   0.05046   0.00000  Uiso   1.00
C141   C     0.11047   0.54107   0.07064   0.00000  Uiso   1.00
C142   C     0.19320   0.53147   0.05350   0.00000  Uiso   1.00
C143   C     0.33390   0.48984   0.03822   0.00000  Uiso   1.00
C144   C     0.93455   0.63958   0.01254   0.00000  Uiso   1.00
C145   C     0.88883   0.60426   0.00084   0.00000  Uiso   1.00
C146   C     0.87020   0.62357   0.95178   0.00000  Uiso   1.00
C147   C     0.82394   0.63527   0.87764   0.00000  Uiso   1.00
C148   C     0.92881   0.70235   0.08301   0.00000  Uiso   1.00
C149   C     0.87826   0.71983   0.13055   0.00000  Uiso   1.00
C150   C     0.85478   0.79200   0.14080   0.00000  Uiso   1.00
C151   C     0.79961   0.90117   0.17606   0.00000  Uiso   1.00
C152   C     0.00994   0.72397   0.99750   0.00000  Uiso   1.00
C153   C     0.08111   0.65798   0.01444   0.00000  Uiso   1.00
C154   C     0.16377   0.64848   0.99726   0.00000  Uiso   1.00
C155   C     0.21941   0.58430   0.01741   0.00000  Uiso   1.00
C156   C     0.96071   0.69230   0.97652   0.00000  Uiso   1.00
C157   C     0.94213   0.71167   0.92746   0.00000  Uiso   1.00
C158   C     0.89641   0.67639   0.91569   0.00000  Uiso   1.00
C159   C     0.95498   0.75508   0.04698   0.00000  Uiso   1.00
C160   C     0.93156   0.82724   0.05716   0.00000  Uiso   1.00
C161   C     0.88099   0.84482   0.10471   0.00000  Uiso   1.00
H162   H     0.94139   0.58583   0.09187   0.00000  Uiso   1.00
H163   H     0.09020   0.50028   0.09852   0.00000  Uiso   1.00
H164   H     0.86859   0.56346   0.02873   0.00000  Uiso   1.00
H165   H     0.85802   0.67901   0.15841   0.00000  Uiso   1.00
H166   H     0.26672   0.42866   0.08999   0.00000  Uiso   1.00
H167   H     0.79942   0.56191   0.94285   0.00000  Uiso   1.00
H168   H     0.77713   0.80558   0.21631   0.00000  Uiso   1.00
H169   H     0.03031   0.76502   0.96945   0.00000  Uiso   1.00
H170   H     0.18400   0.68930   0.96938   0.00000  Uiso   1.00
H171   H     0.96239   0.75248   0.89960   0.00000  Uiso   1.00
H172   H     0.95182   0.86803   0.02928   0.00000  Uiso   1.00
H173   H     0.34285   0.58207   0.98518   0.00000  Uiso   1.00
H174   H     0.87555   0.71533   0.83803   0.00000  Uiso   1.00
H175   H     0.85327   0.95899   0.11149   0.00000  Uiso   1.00
O176   O     0.40429   0.45231   0.03973   0.00000  Uiso   1.00
O177   O     0.79120   0.62714   0.84670   0.00000  Uiso   1.00
O178   O     0.76196   0.94682   0.20547   0.00000  Uiso   1.00
N179   N     0.26355   0.47517   0.06534   0.00000  Uiso   1.00
N180   N     0.82666   0.59974   0.92777   0.00000  Uiso   1.00
N181   N     0.80581   0.82755   0.18342   0.00000  Uiso   1.00
N182   N     0.30451   0.55772   0.00894   0.00000  Uiso   1.00
N183   N     0.86763   0.68229   0.87137   0.00000  Uiso   1.00
N184   N     0.84677   0.91010   0.12702   0.00000  Uiso   1.00
C185   C     0.03268   0.59236   0.43509   0.00000  Uiso   1.00
C186   C     0.08341   0.56608   0.38334   0.00000  Uiso   1.00
C187   C     0.12089   0.60643   0.34328   0.00000  Uiso   1.00
C188   C     0.16459   0.57260   0.29906   0.00000  Uiso   1.00
C189   C     0.24249   0.54268   0.21931   0.00000  Uiso   1.00
C190   C     0.07287   0.53505   0.47669   0.00000  Uiso   1.00
C191   C     0.10147   0.54930   0.51513   0.00000  Uiso   1.00
C192   C     0.13629   0.48935   0.54950   0.00000  Uiso   1.00
C193   C     0.19777   0.41126   0.61471   0.00000  Uiso   1.00
C194   C     0.94927   0.58560   0.44026   0.00000  Uiso   1.00
C195   C     0.87393   0.64235   0.44807   0.00000  Uiso   1.00
C196   C     0.80468   0.62495   0.45178   0.00000  Uiso   1.00
C197   C     0.67425   0.62535   0.46042   0.00000  Uiso   1.00
C198   C     0.04364   0.46054   0.42781   0.00000  Uiso   1.00
C199   C     0.08937   0.49449   0.37938   0.00000  Uiso   1.00
C200   C     0.13302   0.46059   0.33521   0.00000  Uiso   1.00
C201   C     0.17055   0.50088   0.29509   0.00000  Uiso   1.00
C202   C     0.07883   0.46345   0.47274   0.00000  Uiso   1.00
C203   C     0.11360   0.40347   0.50706   0.00000  Uiso   1.00
C204   C     0.14225   0.41762   0.54554   0.00000  Uiso   1.00
C205   C     0.95522   0.51400   0.43630   0.00000  Uiso   1.00
C206   C     0.88607   0.49651   0.44000   0.00000  Uiso   1.00
C207   C     0.81065   0.55323   0.44782   0.00000  Uiso   1.00
H208   H     0.02804   0.64809   0.43818   0.00000  Uiso   1.00
H209   H     0.11627   0.66183   0.34636   0.00000  Uiso   1.00
H210   H     0.09684   0.60472   0.51818   0.00000  Uiso   1.00
H211   H     0.86935   0.69775   0.45113   0.00000  Uiso   1.00
H212   H     0.21674   0.64548   0.24282   0.00000  Uiso   1.00
H213   H     0.17576   0.52505   0.60513   0.00000  Uiso   1.00
H214   H     0.69603   0.72123   0.46375   0.00000  Uiso   1.00
H215   H     0.04828   0.40480   0.42473   0.00000  Uiso   1.00
H216   H     0.13762   0.40518   0.33216   0.00000  Uiso   1.00
H217   H     0.11820   0.34807   0.50399   0.00000  Uiso   1.00
H218   H     0.89070   0.44110   0.43694   0.00000  Uiso   1.00
H219   H     0.23407   0.43717   0.23130   0.00000  Uiso   1.00
H220   H     0.19309   0.31675   0.59362   0.00000  Uiso   1.00
H221   H     0.71337   0.51292   0.45223   0.00000  Uiso   1.00
O222   O     0.28383   0.54596   0.17642   0.00000  Uiso   1.00
O223   O     0.23005   0.38797   0.65177   0.00000  Uiso   1.00
O224   O     0.60067   0.64535   0.46627   0.00000  Uiso   1.00
N225   N     0.20854   0.59640   0.25280   0.00000  Uiso   1.00
N226   N     0.17024   0.48381   0.59154   0.00000  Uiso   1.00
N227   N     0.72174   0.66722   0.45938   0.00000  Uiso   1.00
N228   N     0.21787   0.48432   0.24661   0.00000  Uiso   1.00
N229   N     0.17957   0.37172   0.58535   0.00000  Uiso   1.00
N230   N     0.73106   0.55513   0.45318   0.00000  Uiso   1.00
C231   C     0.91494   0.17118   0.26536   0.00000  Uiso   1.00
C232   C     0.00595   0.16109   0.25277   0.00000  Uiso   1.00
C233   C     0.05025   0.17832   0.20449   0.00000  Uiso   1.00
C234   C     0.13290   0.16502   0.20097   0.00000  Uiso   1.00
C235   C     0.26858   0.15388   0.17486   0.00000  Uiso   1.00
C236   C     0.87582   0.21982   0.30900   0.00000  Uiso   1.00
C237   C     0.81070   0.28642   0.30800   0.00000  Uiso   1.00
C238   C     0.78381   0.32255   0.35182   0.00000  Uiso   1.00
C239   C     0.71742   0.40255   0.41302   0.00000  Uiso   1.00
C240   C     0.90966   0.09545   0.28884   0.00000  Uiso   1.00
C241   C     0.87298   0.05749   0.27090   0.00000  Uiso   1.00
C242   C     0.87456   0.98892   0.29775   0.00000  Uiso   1.00
C243   C     0.86072   0.87582   0.32765   0.00000  Uiso   1.00
C244   C     0.98295   0.11692   0.34495   0.00000  Uiso   1.00
C245   C     0.04289   0.13162   0.29601   0.00000  Uiso   1.00
C246   C     0.12550   0.11829   0.29255   0.00000  Uiso   1.00
C247   C     0.16991   0.13549   0.24428   0.00000  Uiso   1.00
C248   C     0.91276   0.19035   0.35224   0.00000  Uiso   1.00
C249   C     0.88595   0.22639   0.39606   0.00000  Uiso   1.00
C250   C     0.82082   0.29303   0.39513   0.00000  Uiso   1.00
C251   C     0.94661   0.06598   0.33207   0.00000  Uiso   1.00
C252   C     0.94823   0.99746   0.35896   0.00000  Uiso   1.00
C253   C     0.91157   0.95939   0.34106   0.00000  Uiso   1.00
H254   H     0.88618   0.19413   0.23170   0.00000  Uiso   1.00
H255   H     0.02163   0.20114   0.17105   0.00000  Uiso   1.00
H256   H     0.78212   0.30921   0.27454   0.00000  Uiso   1.00
H257   H     0.84440   0.08032   0.23744   0.00000  Uiso   1.00
H258   H     0.18810   0.19593   0.12287   0.00000  Uiso   1.00
H259   H     0.68306   0.42380   0.34110   0.00000  Uiso   1.00
H260   H     0.81437   0.94113   0.26287   0.00000  Uiso   1.00
H261   H     0.01172   0.09397   0.37861   0.00000  Uiso   1.00
H262   H     0.15407   0.09548   0.32602   0.00000  Uiso   1.00
H263   H     0.91455   0.20356   0.42951   0.00000  Uiso   1.00
H264   H     0.97683   0.97467   0.39241   0.00000  Uiso   1.00
H265   H     0.29558   0.11018   0.24865   0.00000  Uiso   1.00
H266   H     0.79054   0.33806   0.46688   0.00000  Uiso   1.00
H267   H     0.92186   0.85538   0.38865   0.00000  Uiso   1.00
O268   O     0.33321   0.15588   0.14851   0.00000  Uiso   1.00
O269   O     0.67061   0.45483   0.43483   0.00000  Uiso   1.00
O270   O     0.84289   0.82158   0.33219   0.00000  Uiso   1.00
N271   N     0.19386   0.17553   0.15969   0.00000  Uiso   1.00
N272   N     0.72169   0.38858   0.36372   0.00000  Uiso   1.00
N273   N     0.84443   0.93733   0.29059   0.00000  Uiso   1.00
N274   N     0.25170   0.12939   0.22737   0.00000  Uiso   1.00
N275   N     0.77953   0.34244   0.43140   0.00000  Uiso   1.00
N276   N     0.90227   0.89119   0.35827   0.00000  Uiso   1.00
C277   C     0.69693   0.22387   0.23442   0.00000  Uiso   1.00
C278   C     0.65378   0.17590   0.27345   0.00000  Uiso   1.00
C279   C     0.67130   0.14335   0.32191   0.00000  Uiso   1.00
C280   C     0.62488   0.10152   0.35183   0.00000  Uiso   1.00
C281   C     0.56724   0.02842   0.41517   0.00000  Uiso   1.00
C282   C     0.62969   0.29702   0.22245   0.00000  Uiso   1.00
C283   C     0.62698   0.36630   0.22803   0.00000  Uiso   1.00
C284   C     0.56028   0.42642   0.21502   0.00000  Uiso   1.00
C285   C     0.46528   0.54136   0.19915   0.00000  Uiso   1.00
C286   C     0.72946   0.18746   0.18474   0.00000  Uiso   1.00
C287   C     0.81062   0.16464   0.15859   0.00000  Uiso   1.00
C288   C     0.82791   0.13253   0.11382   0.00000  Uiso   1.00
C289   C     0.88781   0.07735   0.03938   0.00000  Uiso   1.00
C290   C     0.58333   0.20745   0.20139   0.00000  Uiso   1.00
C291   C     0.59207   0.16698   0.25550   0.00000  Uiso   1.00
C292   C     0.54561   0.12518   0.28536   0.00000  Uiso   1.00
C293   C     0.56307   0.09258   0.33386   0.00000  Uiso   1.00
C294   C     0.56799   0.28810   0.20451   0.00000  Uiso   1.00
C295   C     0.50129   0.34813   0.19148   0.00000  Uiso   1.00
C296   C     0.49846   0.41749   0.19704   0.00000  Uiso   1.00
C297   C     0.66775   0.17853   0.16679   0.00000  Uiso   1.00
C298   C     0.68493   0.14646   0.12205   0.00000  Uiso   1.00
C299   C     0.76610   0.12359   0.09584   0.00000  Uiso   1.00
H300   H     0.74497   0.23082   0.24839   0.00000  Uiso   1.00
H301   H     0.71906   0.15028   0.33578   0.00000  Uiso   1.00
H302   H     0.67474   0.37319   0.24191   0.00000  Uiso   1.00
H303   H     0.85835   0.17155   0.17249   0.00000  Uiso   1.00
H304   H     0.66309   0.05706   0.42476   0.00000  Uiso   1.00
H305   H     0.56967   0.52709   0.22682   0.00000  Uiso   1.00
H306   H     0.95685   0.10189   0.08042   0.00000  Uiso   1.00
H307   H     0.53528   0.20051   0.18742   0.00000  Uiso   1.00
H308   H     0.49787   0.11829   0.27147   0.00000  Uiso   1.00
H309   H     0.45355   0.34121   0.17760   0.00000  Uiso   1.00
H310   H     0.63716   0.13957   0.10817   0.00000  Uiso   1.00
H311   H     0.48357   0.03111   0.37256   0.00000  Uiso   1.00
H312   H     0.39014   0.50114   0.17462   0.00000  Uiso   1.00
H313   H     0.77732   0.07594   0.02822   0.00000  Uiso   1.00
O314   O     0.55248   0.99057   0.45506   0.00000  Uiso   1.00
O315   O     0.42992   0.60723   0.19535   0.00000  Uiso   1.00
O316   O     0.93789   0.04938   0.00329   0.00000  Uiso   1.00
N317   N     0.62599   0.06222   0.40094   0.00000  Uiso   1.00
N318   N     0.53863   0.50167   0.21588   0.00000  Uiso   1.00
N319   N     0.90061   0.10417   0.07900   0.00000  Uiso   1.00
N320   N     0.52939   0.04826   0.37285   0.00000  Uiso   1.00
N321   N     0.44203   0.48770   0.18779   0.00000  Uiso   1.00
N322   N     0.80401   0.09020   0.05092   0.00000  Uiso   1.00
C323   C     0.18628   0.76277   0.36723   0.00000  Uiso   1.00
C324   C     0.16421   0.80159   0.41513   0.00000  Uiso   1.00
C325   C     0.10978   0.79094   0.46053   0.00000  Uiso   1.00
C326   C     0.09793   0.83173   0.49990   0.00000  Uiso   1.00
C327   C     0.05743   0.88444   0.57518   0.00000  Uiso   1.00
C328   C     0.27937   0.72545   0.35681   0.00000  Uiso   1.00
C329   C     0.32177   0.65078   0.35316   0.00000  Uiso   1.00
C330   C     0.40687   0.62749   0.34342   0.00000  Uiso   1.00
C331   C     0.54516   0.56200   0.32812   0.00000  Uiso   1.00
C332   C     0.16717   0.82388   0.32235   0.00000  Uiso   1.00
C333   C     0.11525   0.83196   0.28971   0.00000  Uiso   1.00
C334   C     0.10590   0.89152   0.25096   0.00000  Uiso   1.00
C335   C     0.07000   0.97885   0.18215   0.00000  Uiso   1.00
C336   C     0.26202   0.85416   0.35642   0.00000  Uiso   1.00
C337   C     0.20535   0.85123   0.40926   0.00000  Uiso   1.00
C338   C     0.19358   0.89205   0.44857   0.00000  Uiso   1.00
C339   C     0.13915   0.88146   0.49402   0.00000  Uiso   1.00
C340   C     0.32051   0.77509   0.35094   0.00000  Uiso   1.00
C341   C     0.40557   0.75190   0.34120   0.00000  Uiso   1.00
C342   C     0.44809   0.67722   0.33754   0.00000  Uiso   1.00
C343   C     0.20831   0.87352   0.31648   0.00000  Uiso   1.00
C344   C     0.19905   0.93308   0.27776   0.00000  Uiso   1.00
C345   C     0.14712   0.94125   0.24508   0.00000  Uiso   1.00
H346   H     0.15425   0.72412   0.37180   0.00000  Uiso   1.00
H347   H     0.07796   0.75251   0.46506   0.00000  Uiso   1.00
H348   H     0.28991   0.61238   0.35770   0.00000  Uiso   1.00
H349   H     0.08342   0.79353   0.29427   0.00000  Uiso   1.00
H350   H     0.01154   0.80587   0.56587   0.00000  Uiso   1.00
H351   H     0.45846   0.51040   0.33948   0.00000  Uiso   1.00
H352   H     0.02304   0.89239   0.20572   0.00000  Uiso   1.00
H353   H     0.29406   0.89281   0.35185   0.00000  Uiso   1.00
H354   H     0.22543   0.93046   0.44402   0.00000  Uiso   1.00
H355   H     0.43739   0.79033   0.33666   0.00000  Uiso   1.00
H356   H     0.23090   0.97148   0.27323   0.00000  Uiso   1.00
H357   H     0.13124   0.95030   0.54879   0.00000  Uiso   1.00
H358   H     0.57816   0.65483   0.32240   0.00000  Uiso   1.00
H359   H     0.14274   0.03682   0.18865   0.00000  Uiso   1.00
O360   O     0.02374   0.89979   0.61833   0.00000  Uiso   1.00
O361   O     0.61008   0.51216   0.32130   0.00000  Uiso   1.00
O362   O     0.03882   0.01331   0.14582   0.00000  Uiso   1.00
N363   N     0.04911   0.83470   0.54920   0.00000  Uiso   1.00
N364   N     0.46696   0.55846   0.33755   0.00000  Uiso   1.00
N365   N     0.05989   0.91557   0.21249   0.00000  Uiso   1.00
N366   N     0.11352   0.91242   0.54001   0.00000  Uiso   1.00
N367   N     0.53136   0.63618   0.32836   0.00000  Uiso   1.00
N368   N     0.12430   0.99329   0.20330   0.00000  Uiso   1.00
C369   C     0.90821   0.47072   0.27175   0.00000  Uiso   1.00
C370   C     0.97620   0.40593   0.29309   0.00000  Uiso   1.00
C371   C     0.96884   0.36797   0.34262   0.00000  Uiso   1.00
C372   C     0.03818   0.31032   0.35466   0.00000  Uiso   1.00
C373   C     0.13249   0.21258   0.39329   0.00000  Uiso   1.00
C374   C     0.90022   0.44832   0.22308   0.00000  Uiso   1.00
C375   C     0.82896   0.44600   0.21374   0.00000  Uiso   1.00
C376   C     0.83434   0.42405   0.16684   0.00000  Uiso   1.00
C377   C     0.81067   0.39217   0.09677   0.00000  Uiso   1.00
C378   C     0.94156   0.53401   0.25338   0.00000  Uiso   1.00
C379   C     0.90506   0.60375   0.26951   0.00000  Uiso   1.00
C380   C     0.94523   0.65395   0.24811   0.00000  Uiso   1.00
C381   C     0.98575   0.75511   0.22509   0.00000  Uiso   1.00
C382   C     0.04445   0.43586   0.20506   0.00000  Uiso   1.00
C383   C     0.05021   0.38700   0.25686   0.00000  Uiso   1.00
C384   C     0.11958   0.32940   0.26883   0.00000  Uiso   1.00
C385   C     0.11231   0.29135   0.31836   0.00000  Uiso   1.00
C386   C     0.97422   0.42938   0.18685   0.00000  Uiso   1.00
C387   C     0.97970   0.40743   0.13995   0.00000  Uiso   1.00
C388   C     0.90847   0.40508   0.13055   0.00000  Uiso   1.00
C389   C     0.01557   0.51507   0.21716   0.00000  Uiso   1.00
C390   C     0.05580   0.56518   0.19572   0.00000  Uiso   1.00
C391   C     0.01937   0.63498   0.21182   0.00000  Uiso   1.00
H392   H     0.85059   0.48546   0.29995   0.00000  Uiso   1.00
H393   H     0.91156   0.38263   0.37064   0.00000  Uiso   1.00
H394   H     0.77170   0.46066   0.24178   0.00000  Uiso   1.00
H395   H     0.84779   0.61838   0.29755   0.00000  Uiso   1.00
H396   H     0.01177   0.26026   0.43303   0.00000  Uiso   1.00
H397   H     0.71688   0.42482   0.16132   0.00000  Uiso   1.00
H398   H     0.87732   0.75740   0.27891   0.00000  Uiso   1.00
H399   H     0.10207   0.42112   0.17685   0.00000  Uiso   1.00
H400   H     0.17684   0.31476   0.24078   0.00000  Uiso   1.00
H401   H     0.03698   0.39279   0.11193   0.00000  Uiso   1.00
H402   H     0.11307   0.55051   0.16769   0.00000  Uiso   1.00
H403   H     0.22708   0.20517   0.32763   0.00000  Uiso   1.00
H404   H     0.93218   0.36973   0.05592   0.00000  Uiso   1.00
H405   H     0.09263   0.70231   0.17351   0.00000  Uiso   1.00
O406   O     0.16407   0.16389   0.42460   0.00000  Uiso   1.00
O407   O     0.77717   0.37980   0.06813   0.00000  Uiso   1.00
O408   O     0.98767   0.81614   0.22240   0.00000  Uiso   1.00
N409   N     0.05219   0.26190   0.39945   0.00000  Uiso   1.00
N410   N     0.77648   0.41574   0.14542   0.00000  Uiso   1.00
N411   N     0.92647   0.72669   0.25535   0.00000  Uiso   1.00
N412   N     0.16805   0.23226   0.34274   0.00000  Uiso   1.00
N413   N     0.89234   0.38610   0.08871   0.00000  Uiso   1.00
N414   N     0.04233   0.69704   0.19863   0.00000  Uiso   1.00
C415   C     0.41871   0.90390   0.96846   0.00000  Uiso   1.00
C416   C     0.39164   0.85464   0.01572   0.00000  Uiso   1.00
C417   C     0.31279   0.86970   0.04536   0.00000  Uiso   1.00
C418   C     0.30052   0.81765   0.08704   0.00000  Uiso   1.00
C419   C     0.24871   0.75103   0.15867   0.00000  Uiso   1.00
C420   C     0.48907   0.91916   0.98002   0.00000  Uiso   1.00
C421   C     0.49214   0.98847   0.97963   0.00000  Uiso   1.00
C422   C     0.56190   0.99073   0.99125   0.00000  Uiso   1.00
C423   C     0.66138   0.02428   0.00741   0.00000  Uiso   1.00
C424   C     0.45658   0.85620   0.92427   0.00000  Uiso   1.00
C425   C     0.43234   0.87258   0.87700   0.00000  Uiso   1.00
C426   C     0.47475   0.82183   0.84169   0.00000  Uiso   1.00
C427   C     0.52377   0.75763   0.77130   0.00000  Uiso   1.00
C428   C     0.53713   0.78467   0.98979   0.00000  Uiso   1.00
C429   C     0.45596   0.78988   0.02730   0.00000  Uiso   1.00
C430   C     0.44381   0.73779   0.06895   0.00000  Uiso   1.00
C431   C     0.36495   0.75277   0.09864   0.00000  Uiso   1.00
C432   C     0.55339   0.85441   0.99160   0.00000  Uiso   1.00
C433   C     0.62316   0.85656   0.00322   0.00000  Uiso   1.00
C434   C     0.62633   0.92586   0.00285   0.00000  Uiso   1.00
C435   C     0.52089   0.79144   0.93586   0.00000  Uiso   1.00
C436   C     0.56335   0.74066   0.90060   0.00000  Uiso   1.00
C437   C     0.53918   0.75696   0.85329   0.00000  Uiso   1.00
H438   H     0.36864   0.95432   0.95945   0.00000  Uiso   1.00
H439   H     0.26303   0.91983   0.03638   0.00000  Uiso   1.00
H440   H     0.44236   0.03858   0.97066   0.00000  Uiso   1.00
H441   H     0.38257   0.92270   0.86805   0.00000  Uiso   1.00
H442   H     0.17432   0.85304   0.12680   0.00000  Uiso   1.00
H443   H     0.55246   0.10343   0.98820   0.00000  Uiso   1.00
H444   H     0.42637   0.85908   0.77183   0.00000  Uiso   1.00
H445   H     0.58721   0.73425   0.99881   0.00000  Uiso   1.00
H446   H     0.49359   0.68768   0.07791   0.00000  Uiso   1.00
H447   H     0.67292   0.80644   0.01218   0.00000  Uiso   1.00
H448   H     0.61312   0.69055   0.90958   0.00000  Uiso   1.00
H449   H     0.36145   0.66462   0.16051   0.00000  Uiso   1.00
H450   H     0.73959   0.91502   0.02190   0.00000  Uiso   1.00
H451   H     0.61350   0.67066   0.80554   0.00000  Uiso   1.00
O452   O     0.20237   0.73218   0.19498   0.00000  Uiso   1.00
O453   O     0.69847   0.06068   0.01313   0.00000  Uiso   1.00
O454   O     0.53304   0.74010   0.72927   0.00000  Uiso   1.00
N455   N     0.23121   0.81508   0.12387   0.00000  Uiso   1.00
N456   N     0.58474   0.04918   0.99429   0.00000  Uiso   1.00
N457   N     0.46686   0.82074   0.79201   0.00000  Uiso   1.00
N458   N     0.33190   0.71369   0.14201   0.00000  Uiso   1.00
N459   N     0.68543   0.94780   0.01243   0.00000  Uiso   1.00
N460   N     0.56756   0.71936   0.81014   0.00000  Uiso   1.00
C461   C     0.96162   0.21605   0.75575   0.00000  Uiso   1.00
C462   C     0.94003   0.27673   0.78944   0.00000  Uiso   1.00
C463   C     0.88386   0.28558   0.83606   0.00000  Uiso   1.00
C464   C     0.87281   0.34457   0.86099   0.00000  Uiso   1.00
C465   C     0.83263   0.43145   0.91649   0.00000  Uiso   1.00
C466   C     0.94551   0.25544   0.70249   0.00000  Uiso   1.00
C467   C     0.89396   0.24639   0.67600   0.00000  Uiso   1.00
C468   C     0.88753   0.28747   0.62774   0.00000  Uiso   1.00
C469   C     0.85591   0.34126   0.54823   0.00000  Uiso   1.00
C470   C     0.05429   0.17700   0.74884   0.00000  Uiso   1.00
C471   C     0.09421   0.10198   0.76131   0.00000  Uiso   1.00
C472   C     0.17937   0.07700   0.75206   0.00000  Uiso   1.00
C473   C     0.31665   0.00900   0.74452   0.00000  Uiso   1.00
C474   C     0.04187   0.30508   0.71714   0.00000  Uiso   1.00
C475   C     0.98362   0.32509   0.76847   0.00000  Uiso   1.00
C476   C     0.97265   0.38408   0.79334   0.00000  Uiso   1.00
C477   C     0.91648   0.39302   0.83998   0.00000  Uiso   1.00
C478   C     0.98910   0.30380   0.68152   0.00000  Uiso   1.00
C479   C     0.98275   0.34490   0.63328   0.00000  Uiso   1.00
C480   C     0.93120   0.33591   0.60672   0.00000  Uiso   1.00
C481   C     0.09789   0.22536   0.72787   0.00000  Uiso   1.00
C482   C     0.18300   0.20049   0.71859   0.00000  Uiso   1.00
C483   C     0.22304   0.12545   0.73105   0.00000  Uiso   1.00
H484   H     0.92768   0.17840   0.77207   0.00000  Uiso   1.00
H485   H     0.85014   0.24814   0.85227   0.00000  Uiso   1.00
H486   H     0.86024   0.20896   0.69224   0.00000  Uiso   1.00
H487   H     0.06046   0.06457   0.77754   0.00000  Uiso   1.00
H488   H     0.78337   0.34681   0.93193   0.00000  Uiso   1.00
H489   H     0.80469   0.26417   0.59448   0.00000  Uiso   1.00
H490   H     0.22689   0.95970   0.77435   0.00000  Uiso   1.00
H491   H     0.07581   0.34274   0.70081   0.00000  Uiso   1.00
H492   H     0.00639   0.42150   0.77710   0.00000  Uiso   1.00
H493   H     0.01649   0.38231   0.61706   0.00000  Uiso   1.00
H494   H     0.21671   0.23793   0.70236   0.00000  Uiso   1.00
H495   H     0.91019   0.48751   0.87092   0.00000  Uiso   1.00
H496   H     0.93151   0.40487   0.53347   0.00000  Uiso   1.00
H497   H     0.35371   0.10040   0.71334   0.00000  Uiso   1.00
O498   O     0.79842   0.46602   0.95289   0.00000  Uiso   1.00
O499   O     0.82641   0.35758   0.51017   0.00000  Uiso   1.00
O500   O     0.38032   0.95813   0.74616   0.00000  Uiso   1.00
N501   N     0.82275   0.36910   0.90711   0.00000  Uiso   1.00
N502   N     0.84268   0.29185   0.59162   0.00000  Uiso   1.00
N503   N     0.23740   0.00719   0.75977   0.00000  Uiso   1.00
N504   N     0.89100   0.44482   0.87428   0.00000  Uiso   1.00
N505   N     0.91092   0.36756   0.55878   0.00000  Uiso   1.00
N506   N     0.30564   0.08291   0.72694   0.00000  Uiso   1.00
C507   C     0.41735   0.47294   0.67986   0.00000  Uiso   1.00
C508   C     0.43799   0.47156   0.62141   0.00000  Uiso   1.00
C509   C     0.39859   0.44847   0.59381   0.00000  Uiso   1.00
C510   C     0.42662   0.45141   0.54056   0.00000  Uiso   1.00
C511   C     0.44880   0.44541   0.45356   0.00000  Uiso   1.00
C512   C     0.49658   0.42668   0.69908   0.00000  Uiso   1.00
C513   C     0.50641   0.36587   0.73681   0.00000  Uiso   1.00
C514   C     0.58376   0.33104   0.74895   0.00000  Uiso   1.00
C515   C     0.69687   0.25540   0.78257   0.00000  Uiso   1.00
C516   C     0.39963   0.55227   0.68791   0.00000  Uiso   1.00
C517   C     0.32796   0.59706   0.71625   0.00000  Uiso   1.00
C518   C     0.32369   0.66795   0.71900   0.00000  Uiso   1.00
C519   C     0.28627   0.78731   0.73527   0.00000  Uiso   1.00
C520   C     0.53721   0.51920   0.63436   0.00000  Uiso   1.00
C521   C     0.50310   0.49668   0.59670   0.00000  Uiso   1.00
C522   C     0.53120   0.49966   0.54347   0.00000  Uiso   1.00
C523   C     0.49184   0.47658   0.51581   0.00000  Uiso   1.00
C524   C     0.56168   0.45181   0.67437   0.00000  Uiso   1.00
C525   C     0.63903   0.41706   0.68647   0.00000  Uiso   1.00
C526   C     0.64898   0.35621   0.72419   0.00000  Uiso   1.00
C527   C     0.46473   0.57740   0.66320   0.00000  Uiso   1.00
C528   C     0.46057   0.64824   0.66591   0.00000  Uiso   1.00
C529   C     0.38891   0.69313   0.69424   0.00000  Uiso   1.00
H530   H     0.36667   0.45337   0.69910   0.00000  Uiso   1.00
H531   H     0.34821   0.42902   0.61295   0.00000  Uiso   1.00
H532   H     0.45602   0.34644   0.75593   0.00000  Uiso   1.00
H533   H     0.27759   0.57759   0.73537   0.00000  Uiso   1.00
H534   H     0.35648   0.41308   0.50655   0.00000  Uiso   1.00
H535   H     0.58379   0.23897   0.80802   0.00000  Uiso   1.00
H536   H     0.20754   0.72640   0.76468   0.00000  Uiso   1.00
H537   H     0.58790   0.53877   0.61512   0.00000  Uiso   1.00
H538   H     0.58158   0.51911   0.52436   0.00000  Uiso   1.00
H539   H     0.68939   0.43652   0.66733   0.00000  Uiso   1.00
H540   H     0.51096   0.66767   0.64678   0.00000  Uiso   1.00
H541   H     0.54589   0.48620   0.43464   0.00000  Uiso   1.00
H542   H     0.77321   0.31209   0.73612   0.00000  Uiso   1.00
H543   H     0.39696   0.79951   0.69277   0.00000  Uiso   1.00
O544   O     0.44305   0.43514   0.41240   0.00000  Uiso   1.00
O545   O     0.74127   0.20673   0.80794   0.00000  Uiso   1.00
O546   O     0.24764   0.84621   0.75107   0.00000  Uiso   1.00
N547   N     0.40191   0.43300   0.50208   0.00000  Uiso   1.00
N548   N     0.61444   0.27021   0.78393   0.00000  Uiso   1.00
N549   N     0.26269   0.72590   0.74342   0.00000  Uiso   1.00
N550   N     0.50383   0.47235   0.46338   0.00000  Uiso   1.00
N551   N     0.71636   0.30956   0.74524   0.00000  Uiso   1.00
N552   N     0.36461   0.76525   0.70473   0.00000  Uiso   1.00
