data_job_06879
_audit_creation_date              2018-12-19
_audit_creation_method            'Materials Studio'
_symmetry_space_group_name_H-M    'P1'
_symmetry_Int_Tables_number       1
_symmetry_cell_setting            triclinic
loop_
_symmetry_equiv_pos_as_xyz
  x,y,z
_cell_length_a                    23.9159
_cell_length_b                    24.0968
_cell_length_c                    24.2963
_cell_angle_alpha                 63.3586
_cell_angle_beta                  113.4086
_cell_angle_gamma                 118.7888
loop_
_atom_site_label
_atom_site_type_symbol
_atom_site_fract_x
_atom_site_fract_y
_atom_site_fract_z
_atom_site_U_iso_or_equiv
_atom_site_adp_type
_atom_site_occupancy
C1     C     0.64244   0.26212   0.59312   0.00000  Uiso   1.00
C2     C     0.59415   0.29786   0.55507   0.00000  Uiso   1.00
C3     C     0.61016   0.36640   0.53421   0.00000  Uiso   1.00
C4     C     0.55889   0.38926   0.50010   0.00000  Uiso   1.00
C5     C     0.49378   0.45146   0.44297   0.00000  Uiso   1.00
C6     C     0.61859   0.21197   0.65308   0.00000  Uiso   1.00
C7     C     0.65517   0.20830   0.71464   0.00000  Uiso   1.00
C8     C     0.62448   0.15886   0.76303   0.00000  Uiso   1.00
C9     C     0.59734   0.08768   0.85808   0.00000  Uiso   1.00
C10    C     0.63266   0.22084   0.55511   0.00000  Uiso   1.00
C11    C     0.68106   0.22461   0.53431   0.00000  Uiso   1.00
C12    C     0.66221   0.18262   0.50023   0.00000  Uiso   1.00
C13    C     0.65690   0.12522   0.44317   0.00000  Uiso   1.00
C14    C     0.52291   0.18084   0.56961   0.00000  Uiso   1.00
C15    C     0.52922   0.25370   0.54230   0.00000  Uiso   1.00
C16    C     0.47791   0.27647   0.50820   0.00000  Uiso   1.00
C17    C     0.49385   0.34503   0.48730   0.00000  Uiso   1.00
C18    C     0.55367   0.16782   0.64032   0.00000  Uiso   1.00
C19    C     0.52292   0.11837   0.68863   0.00000  Uiso   1.00
C20    C     0.55944   0.11462   0.75024   0.00000  Uiso   1.00
C21    C     0.56773   0.17669   0.54234   0.00000  Uiso   1.00
C22    C     0.54881   0.13468   0.50830   0.00000  Uiso   1.00
C23    C     0.59717   0.13839   0.48744   0.00000  Uiso   1.00
H24    H     0.69298   0.29649   0.60307   0.00000  Uiso   1.00
H25    H     0.66041   0.40055   0.54411   0.00000  Uiso   1.00
H26    H     0.70541   0.24247   0.72451   0.00000  Uiso   1.00
H27    H     0.73129   0.25878   0.54420   0.00000  Uiso   1.00
H28    H     0.59566   0.49644   0.47313   0.00000  Uiso   1.00
H29    H     0.69056   0.16311   0.85351   0.00000  Uiso   1.00
H30    H     0.74514   0.19751   0.47330   0.00000  Uiso   1.00
H31    H     0.47236   0.14646   0.55967   0.00000  Uiso   1.00
H32    H     0.42768   0.24229   0.49833   0.00000  Uiso   1.00
H33    H     0.47268   0.08421   0.67873   0.00000  Uiso   1.00
H34    H     0.49856   0.10052   0.49842   0.00000  Uiso   1.00
H35    H     0.40677   0.36799   0.43598   0.00000  Uiso   1.00
H36    H     0.50167   0.03465   0.81636   0.00000  Uiso   1.00
H37    H     0.55624   0.06905   0.43615   0.00000  Uiso   1.00
O38    O     0.47580   0.49796   0.41500   0.00000  Uiso   1.00
O39    O     0.60031   0.06063   0.91404   0.00000  Uiso   1.00
O40    O     0.67191   0.10576   0.41522   0.00000  Uiso   1.00
N41    N     0.55734   0.45306   0.47279   0.00000  Uiso   1.00
N42    N     0.64606   0.14142   0.82843   0.00000  Uiso   1.00
N43    N     0.69709   0.17357   0.47298   0.00000  Uiso   1.00
N44    N     0.45570   0.38395   0.45280   0.00000  Uiso   1.00
N45    N     0.54442   0.07230   0.80843   0.00000  Uiso   1.00
N46    N     0.59545   0.10445   0.45298   0.00000  Uiso   1.00
C47    C     0.42503   0.27469   0.80424   0.00000  Uiso   1.00
C48    C     0.47758   0.30504   0.76762   0.00000  Uiso   1.00
C49    C     0.50853   0.37271   0.73854   0.00000  Uiso   1.00
C50    C     0.55524   0.39036   0.70738   0.00000  Uiso   1.00
C51    C     0.63450   0.44484   0.65079   0.00000  Uiso   1.00
C52    C     0.36594   0.22561   0.77271   0.00000  Uiso   1.00
C53    C     0.30303   0.22648   0.74793   0.00000  Uiso   1.00
C54    C     0.25576   0.17725   0.72106   0.00000  Uiso   1.00
C55    C     0.16170   0.10837   0.67243   0.00000  Uiso   1.00
C56    C     0.45070   0.23245   0.86989   0.00000  Uiso   1.00
C57    C     0.45903   0.23906   0.92682   0.00000  Uiso   1.00
C58    C     0.48311   0.19557   0.98178   0.00000  Uiso   1.00
C59    C     0.52064   0.13731   0.08402   0.00000  Uiso   1.00
C60    C     0.45294   0.18570   0.80061   0.00000  Uiso   1.00
C61    C     0.49274   0.25670   0.76565   0.00000  Uiso   1.00
C62    C     0.53941   0.27425   0.73453   0.00000  Uiso   1.00
C63    C     0.57043   0.34194   0.70541   0.00000  Uiso   1.00
C64    C     0.38110   0.17727   0.77074   0.00000  Uiso   1.00
C65    C     0.33391   0.12802   0.74391   0.00000  Uiso   1.00
C66    C     0.27095   0.12882   0.71909   0.00000  Uiso   1.00
C67    C     0.46586   0.18411   0.86793   0.00000  Uiso   1.00
C68    C     0.48992   0.14060   0.92280   0.00000  Uiso   1.00
C69    C     0.49830   0.14715   0.97980   0.00000  Uiso   1.00
H70    H     0.41322   0.31233   0.80577   0.00000  Uiso   1.00
H71    H     0.49678   0.41011   0.74007   0.00000  Uiso   1.00
H72    H     0.29131   0.26389   0.74947   0.00000  Uiso   1.00
H73    H     0.44730   0.27647   0.92833   0.00000  Uiso   1.00
H74    H     0.59608   0.49720   0.66634   0.00000  Uiso   1.00
H75    H     0.16284   0.18889   0.68617   0.00000  Uiso   1.00
H76    H     0.49176   0.21541   0.06333   0.00000  Uiso   1.00
H77    H     0.46475   0.14806   0.79908   0.00000  Uiso   1.00
H78    H     0.55114   0.23683   0.73301   0.00000  Uiso   1.00
H79    H     0.34566   0.09062   0.74240   0.00000  Uiso   1.00
H80    H     0.50165   0.10320   0.92126   0.00000  Uiso   1.00
H81    H     0.64020   0.35656   0.66061   0.00000  Uiso   1.00
H82    H     0.20695   0.04825   0.68043   0.00000  Uiso   1.00
H83    H     0.53587   0.07477   0.05760   0.00000  Uiso   1.00
O84    O     0.67402   0.48824   0.62012   0.00000  Uiso   1.00
O85    O     0.10562   0.08374   0.64614   0.00000  Uiso   1.00
O86    O     0.53716   0.11853   0.14096   0.00000  Uiso   1.00
N87    N     0.59462   0.45192   0.67407   0.00000  Uiso   1.00
N88    N     0.18957   0.16367   0.69259   0.00000  Uiso   1.00
N89    N     0.49706   0.18845   0.04521   0.00000  Uiso   1.00
N90    N     0.61836   0.37624   0.67099   0.00000  Uiso   1.00
N91    N     0.21330   0.08799   0.68951   0.00000  Uiso   1.00
N92    N     0.52080   0.11278   0.04213   0.00000  Uiso   1.00
C93    C     0.24826   0.27780   0.40497   0.00000  Uiso   1.00
C94    C     0.28785   0.31061   0.45669   0.00000  Uiso   1.00
C95    C     0.31978   0.37880   0.44700   0.00000  Uiso   1.00
C96    C     0.35337   0.39880   0.50052   0.00000  Uiso   1.00
C97    C     0.41464   0.45683   0.57156   0.00000  Uiso   1.00
C98    C     0.27875   0.22940   0.41684   0.00000  Uiso   1.00
C99    C     0.30302   0.22931   0.37364   0.00000  Uiso   1.00
C100   C     0.32895   0.18095   0.39361   0.00000  Uiso   1.00
C101   C     0.37604   0.11287   0.40277   0.00000  Uiso   1.00
C102   C     0.18015   0.23464   0.41831   0.00000  Uiso   1.00
C103   C     0.12152   0.23895   0.37633   0.00000  Uiso   1.00
C104   C     0.06443   0.19499   0.39753   0.00000  Uiso   1.00
C105   C     0.95844   0.13505   0.40896   0.00000  Uiso   1.00
C106   C     0.25113   0.19207   0.51724   0.00000  Uiso   1.00
C107   C     0.28941   0.26404   0.51768   0.00000  Uiso   1.00
C108   C     0.32296   0.28395   0.57122   0.00000  Uiso   1.00
C109   C     0.35494   0.35216   0.56161   0.00000  Uiso   1.00
C110   C     0.28031   0.18284   0.47782   0.00000  Uiso   1.00
C111   C     0.30620   0.13446   0.49786   0.00000  Uiso   1.00
C112   C     0.33051   0.13430   0.45471   0.00000  Uiso   1.00
C113   C     0.18171   0.18808   0.47929   0.00000  Uiso   1.00
C114   C     0.12470   0.14410   0.50055   0.00000  Uiso   1.00
C115   C     0.06600   0.14834   0.45862   0.00000  Uiso   1.00
H116   H     0.24704   0.31405   0.35749   0.00000  Uiso   1.00
H117   H     0.31856   0.41482   0.39980   0.00000  Uiso   1.00
H118   H     0.30180   0.26535   0.32645   0.00000  Uiso   1.00
H119   H     0.12033   0.27499   0.32914   0.00000  Uiso   1.00
H120   H     0.39857   0.50600   0.47360   0.00000  Uiso   1.00
H121   H     0.36320   0.19082   0.31894   0.00000  Uiso   1.00
H122   H     0.98053   0.21114   0.32461   0.00000  Uiso   1.00
H123   H     0.25235   0.15582   0.56472   0.00000  Uiso   1.00
H124   H     0.32416   0.24790   0.61841   0.00000  Uiso   1.00
H125   H     0.30740   0.09843   0.54506   0.00000  Uiso   1.00
H126   H     0.12593   0.10807   0.54775   0.00000  Uiso   1.00
H127   H     0.40312   0.37053   0.65103   0.00000  Uiso   1.00
H128   H     0.36775   0.05534   0.49636   0.00000  Uiso   1.00
H129   H     0.98508   0.07567   0.50204   0.00000  Uiso   1.00
O130   O     0.44801   0.50169   0.59389   0.00000  Uiso   1.00
O131   O     0.40159   0.08818   0.39097   0.00000  Uiso   1.00
O132   O     0.89954   0.11485   0.39842   0.00000  Uiso   1.00
N133   N     0.38977   0.46148   0.50799   0.00000  Uiso   1.00
N134   N     0.35671   0.16681   0.36339   0.00000  Uiso   1.00
N135   N     0.99895   0.18580   0.36869   0.00000  Uiso   1.00
N136   N     0.39222   0.38858   0.60347   0.00000  Uiso   1.00
N137   N     0.35916   0.09391   0.45887   0.00000  Uiso   1.00
N138   N     0.00140   0.11290   0.46416   0.00000  Uiso   1.00
C139   C     0.61197   0.54525   0.19500   0.00000  Uiso   1.00
C140   C     0.65792   0.57265   0.15208   0.00000  Uiso   1.00
C141   C     0.69027   0.63973   0.12232   0.00000  Uiso   1.00
C142   C     0.73014   0.65453   0.08501   0.00000  Uiso   1.00
C143   C     0.80041   0.70475   0.01949   0.00000  Uiso   1.00
C144   C     0.63990   0.50090   0.25763   0.00000  Uiso   1.00
C145   C     0.65709   0.50765   0.31662   0.00000  Uiso   1.00
C146   C     0.68179   0.46205   0.36815   0.00000  Uiso   1.00
C147   C     0.72405   0.40084   0.46651   0.00000  Uiso   1.00
C148   C     0.54720   0.49849   0.16615   0.00000  Uiso   1.00
C149   C     0.48644   0.50320   0.14824   0.00000  Uiso   1.00
C150   C     0.43308   0.45556   0.12277   0.00000  Uiso   1.00
C151   C     0.33140   0.39061   0.07909   0.00000  Uiso   1.00
C152   C     0.62525   0.45226   0.18164   0.00000  Uiso   1.00
C153   C     0.66513   0.52213   0.14482   0.00000  Uiso   1.00
C154   C     0.70496   0.53684   0.10754   0.00000  Uiso   1.00
C155   C     0.73736   0.60393   0.07774   0.00000  Uiso   1.00
C156   C     0.64712   0.45039   0.25037   0.00000  Uiso   1.00
C157   C     0.67179   0.40476   0.30183   0.00000  Uiso   1.00
C158   C     0.68902   0.41144   0.36088   0.00000  Uiso   1.00
C159   C     0.55441   0.44798   0.15889   0.00000  Uiso   1.00
C160   C     0.50114   0.40031   0.13345   0.00000  Uiso   1.00
C161   C     0.44031   0.40495   0.11550   0.00000  Uiso   1.00
H162   H     0.60635   0.58458   0.20065   0.00000  Uiso   1.00
H163   H     0.68468   0.67880   0.12796   0.00000  Uiso   1.00
H164   H     0.65150   0.54674   0.32222   0.00000  Uiso   1.00
H165   H     0.48087   0.54229   0.15386   0.00000  Uiso   1.00
H166   H     0.77471   0.76100   0.04418   0.00000  Uiso   1.00
H167   H     0.70473   0.48252   0.45379   0.00000  Uiso   1.00
H168   H     0.34493   0.47314   0.09877   0.00000  Uiso   1.00
H169   H     0.63087   0.41293   0.17599   0.00000  Uiso   1.00
H170   H     0.71054   0.49774   0.10194   0.00000  Uiso   1.00
H171   H     0.67736   0.36568   0.29620   0.00000  Uiso   1.00
H172   H     0.50674   0.36123   0.12784   0.00000  Uiso   1.00
H173   H     0.79570   0.61404   0.02306   0.00000  Uiso   1.00
H174   H     0.72572   0.33556   0.43267   0.00000  Uiso   1.00
H175   H     0.36593   0.32619   0.07766   0.00000  Uiso   1.00
O176   O     0.83719   0.74641   0.98537   0.00000  Uiso   1.00
O177   O     0.74537   0.38105   0.52276   0.00000  Uiso   1.00
O178   O     0.27333   0.36875   0.05699   0.00000  Uiso   1.00
N179   N     0.76871   0.71477   0.04936   0.00000  Uiso   1.00
N180   N     0.70329   0.45442   0.43232   0.00000  Uiso   1.00
N181   N     0.36691   0.44564   0.10043   0.00000  Uiso   1.00
N182   N     0.78000   0.63570   0.03800   0.00000  Uiso   1.00
N183   N     0.71459   0.37534   0.42096   0.00000  Uiso   1.00
N184   N     0.37821   0.36657   0.08907   0.00000  Uiso   1.00
C185   C     0.00641   0.52513   0.40953   0.00000  Uiso   1.00
C186   C     0.95565   0.55751   0.36901   0.00000  Uiso   1.00
C187   C     0.96924   0.62518   0.33664   0.00000  Uiso   1.00
C188   C     0.91596   0.64485   0.30220   0.00000  Uiso   1.00
C189   C     0.84695   0.70218   0.23956   0.00000  Uiso   1.00
C190   C     0.99111   0.47203   0.38229   0.00000  Uiso   1.00
C191   C     0.03453   0.46783   0.36110   0.00000  Uiso   1.00
C192   C     0.01110   0.41553   0.33785   0.00000  Uiso   1.00
C193   C     0.99717   0.34012   0.29587   0.00000  Uiso   1.00
C194   C     0.99106   0.48733   0.47481   0.00000  Uiso   1.00
C195   C     0.03443   0.49598   0.53142   0.00000  Uiso   1.00
C196   C     0.01096   0.45656   0.58606   0.00000  Uiso   1.00
C197   C     0.99695   0.40491   0.68773   0.00000  Uiso   1.00
C198   C     0.88761   0.43972   0.40593   0.00000  Uiso   1.00
C199   C     0.89112   0.51111   0.36706   0.00000  Uiso   1.00
C200   C     0.83780   0.53069   0.33266   0.00000  Uiso   1.00
C201   C     0.85131   0.59838   0.30025   0.00000  Uiso   1.00
C202   C     0.92659   0.42564   0.38034   0.00000  Uiso   1.00
C203   C     0.90309   0.37333   0.35712   0.00000  Uiso   1.00
C204   C     0.94645   0.36906   0.33589   0.00000  Uiso   1.00
C205   C     0.92653   0.44094   0.47286   0.00000  Uiso   1.00
C206   C     0.90299   0.40149   0.52743   0.00000  Uiso   1.00
C207   C     0.94632   0.41009   0.58411   0.00000  Uiso   1.00
H208   H     0.05665   0.56125   0.41105   0.00000  Uiso   1.00
H209   H     0.01918   0.66107   0.33816   0.00000  Uiso   1.00
H210   H     0.08446   0.50373   0.36262   0.00000  Uiso   1.00
H211   H     0.08436   0.53189   0.53291   0.00000  Uiso   1.00
H212   H     0.94919   0.75127   0.25647   0.00000  Uiso   1.00
H213   H     0.08684   0.41951   0.30807   0.00000  Uiso   1.00
H214   H     0.08663   0.47888   0.66715   0.00000  Uiso   1.00
H215   H     0.83738   0.40360   0.40441   0.00000  Uiso   1.00
H216   H     0.78788   0.49478   0.33116   0.00000  Uiso   1.00
H217   H     0.85315   0.33744   0.35562   0.00000  Uiso   1.00
H218   H     0.85306   0.36560   0.52590   0.00000  Uiso   1.00
H219   H     0.76145   0.61631   0.25078   0.00000  Uiso   1.00
H220   H     0.89910   0.28454   0.30238   0.00000  Uiso   1.00
H221   H     0.89889   0.34392   0.66146   0.00000  Uiso   1.00
O222   O     0.82672   0.74661   0.20554   0.00000  Uiso   1.00
O223   O     0.00731   0.31134   0.27325   0.00000  Uiso   1.00
O224   O     0.00704   0.38924   0.74435   0.00000  Uiso   1.00
N225   N     0.91180   0.70700   0.26520   0.00000  Uiso   1.00
N226   N     0.04049   0.39683   0.31343   0.00000  Uiso   1.00
N227   N     0.04030   0.45232   0.64914   0.00000  Uiso   1.00
N228   N     0.81078   0.63438   0.26214   0.00000  Uiso   1.00
N229   N     0.93947   0.32420   0.31037   0.00000  Uiso   1.00
N230   N     0.93928   0.37970   0.64608   0.00000  Uiso   1.00
C231   C     0.85217   0.51002   0.02699   0.00000  Uiso   1.00
C232   C     0.89257   0.54786   0.07483   0.00000  Uiso   1.00
C233   C     0.91673   0.61668   0.06073   0.00000  Uiso   1.00
C234   C     0.95258   0.64160   0.11118   0.00000  Uiso   1.00
C235   C     0.01358   0.70682   0.17599   0.00000  Uiso   1.00
C236   C     0.78887   0.46003   0.04857   0.00000  Uiso   1.00
C237   C     0.72584   0.45499   0.01239   0.00000  Uiso   1.00
C238   C     0.67439   0.40598   0.04074   0.00000  Uiso   1.00
C239   C     0.57439   0.33480   0.06477   0.00000  Uiso   1.00
C240   C     0.88923   0.46863   0.03616   0.00000  Uiso   1.00
C241   C     0.91058   0.47081   0.98955   0.00000  Uiso   1.00
C242   C     0.94362   0.42902   0.00745   0.00000  Uiso   1.00
C243   C     0.99945   0.37121   0.01221   0.00000  Uiso   1.00
C244   C     0.87286   0.43191   0.14166   0.00000  Uiso   1.00
C245   C     0.90381   0.50544   0.13711   0.00000  Uiso   1.00
C246   C     0.93963   0.53027   0.18759   0.00000  Uiso   1.00
C247   C     0.96384   0.59911   0.17358   0.00000  Uiso   1.00
C248   C     0.80010   0.41761   0.11085   0.00000  Uiso   1.00
C249   C     0.74873   0.36858   0.13926   0.00000  Uiso   1.00
C250   C     0.68564   0.36348   0.10314   0.00000  Uiso   1.00
C251   C     0.90047   0.42621   0.09844   0.00000  Uiso   1.00
C252   C     0.93348   0.38441   0.11642   0.00000  Uiso   1.00
C253   C     0.95487   0.38653   0.06985   0.00000  Uiso   1.00
H254   H     0.84341   0.54304   0.97851   0.00000  Uiso   1.00
H255   H     0.90802   0.64949   0.01253   0.00000  Uiso   1.00
H256   H     0.71716   0.48783   0.96420   0.00000  Uiso   1.00
H257   H     0.90188   0.50365   0.94136   0.00000  Uiso   1.00
H258   H     0.98459   0.74880   0.07772   0.00000  Uiso   1.00
H259   H     0.58214   0.40791   0.97580   0.00000  Uiso   1.00
H260   H     0.97165   0.44127   0.92765   0.00000  Uiso   1.00
H261   H     0.88160   0.39888   0.19015   0.00000  Uiso   1.00
H262   H     0.94831   0.49743   0.23579   0.00000  Uiso   1.00
H263   H     0.75745   0.33576   0.18745   0.00000  Uiso   1.00
H264   H     0.94216   0.35158   0.16462   0.00000  Uiso   1.00
H265   H     0.01728   0.62538   0.25892   0.00000  Uiso   1.00
H266   H     0.61484   0.28448   0.15700   0.00000  Uiso   1.00
H267   H     0.00435   0.31785   0.10885   0.00000  Uiso   1.00
O268   O     0.04411   0.75451   0.19453   0.00000  Uiso   1.00
O269   O     0.51612   0.30726   0.06081   0.00000  Uiso   1.00
O270   O     0.02715   0.35104   0.99763   0.00000  Uiso   1.00
N271   N     0.98314   0.70623   0.11410   0.00000  Uiso   1.00
N272   N     0.60688   0.38752   0.01882   0.00000  Uiso   1.00
N273   N     0.97102   0.41870   0.97379   0.00000  Uiso   1.00
N274   N     0.00073   0.63982   0.21160   0.00000  Uiso   1.00
N275   N     0.62447   0.32111   0.11632   0.00000  Uiso   1.00
N276   N     0.98862   0.35229   0.07130   0.00000  Uiso   1.00
C277   C     0.45413   0.80653   0.42696   0.00000  Uiso   1.00
C278   C     0.50206   0.77287   0.47544   0.00000  Uiso   1.00
C279   C     0.48790   0.70451   0.50096   0.00000  Uiso   1.00
C280   C     0.53847   0.68368   0.54462   0.00000  Uiso   1.00
C281   C     0.60341   0.62442   0.61721   0.00000  Uiso   1.00
C282   C     0.48587   0.85456   0.37104   0.00000  Uiso   1.00
C283   C     0.45810   0.85490   0.30876   0.00000  Uiso   1.00
C284   C     0.49504   0.90284   0.26453   0.00000  Uiso   1.00
C285   C     0.53482   0.97045   0.17502   0.00000  Uiso   1.00
C286   C     0.45324   0.85011   0.45646   0.00000  Uiso   1.00
C287   C     0.39803   0.84672   0.46600   0.00000  Uiso   1.00
C288   C     0.40750   0.89093   0.49368   0.00000  Uiso   1.00
C289   C     0.39662   0.95163   0.53681   0.00000  Uiso   1.00
C290   C     0.56910   0.89109   0.45914   0.00000  Uiso   1.00
C291   C     0.56451   0.81880   0.49292   0.00000  Uiso   1.00
C292   C     0.61511   0.79806   0.53656   0.00000  Uiso   1.00
C293   C     0.60103   0.72969   0.56213   0.00000  Uiso   1.00
C294   C     0.54832   0.90049   0.38851   0.00000  Uiso   1.00
C295   C     0.58530   0.94845   0.34436   0.00000  Uiso   1.00
C296   C     0.55760   0.94885   0.28204   0.00000  Uiso   1.00
C297   C     0.51569   0.89604   0.47394   0.00000  Uiso   1.00
C298   C     0.52524   0.94027   0.50161   0.00000  Uiso   1.00
C299   C     0.47006   0.93694   0.51119   0.00000  Uiso   1.00
H300   H     0.40551   0.77078   0.41335   0.00000  Uiso   1.00
H301   H     0.43957   0.66899   0.48741   0.00000  Uiso   1.00
H302   H     0.40977   0.81936   0.29525   0.00000  Uiso   1.00
H303   H     0.34972   0.81118   0.45247   0.00000  Uiso   1.00
H304   H     0.50488   0.57639   0.57721   0.00000  Uiso   1.00
H305   H     0.44204   0.89346   0.17202   0.00000  Uiso   1.00
H306   H     0.31539   0.87621   0.50355   0.00000  Uiso   1.00
H307   H     0.61772   0.92685   0.47275   0.00000  Uiso   1.00
H308   H     0.66343   0.83362   0.55007   0.00000  Uiso   1.00
H309   H     0.63362   0.98398   0.35791   0.00000  Uiso   1.00
H310   H     0.57357   0.97580   0.51512   0.00000  Uiso   1.00
H311   H     0.68657   0.71000   0.62807   0.00000  Uiso   1.00
H312   H     0.62372   0.02708   0.22287   0.00000  Uiso   1.00
H313   H     0.49709   0.00983   0.55440   0.00000  Uiso   1.00
O314   O     0.62197   0.57905   0.65242   0.00000  Uiso   1.00
O315   O     0.53951   0.99504   0.12082   0.00000  Uiso   1.00
O316   O     0.37337   0.97242   0.55577   0.00000  Uiso   1.00
N317   N     0.54137   0.62063   0.57858   0.00000  Uiso   1.00
N318   N     0.48261   0.91706   0.19975   0.00000  Uiso   1.00
N319   N     0.36421   0.90095   0.50968   0.00000  Uiso   1.00
N320   N     0.63913   0.69253   0.60594   0.00000  Uiso   1.00
N321   N     0.58038   0.98896   0.22712   0.00000  Uiso   1.00
N322   N     0.46198   0.97285   0.53705   0.00000  Uiso   1.00
C323   C     0.70340   0.77405   0.25217   0.00000  Uiso   1.00
C324   C     0.65048   0.75526   0.28417   0.00000  Uiso   1.00
C325   C     0.61079   0.69072   0.31223   0.00000  Uiso   1.00
C326   C     0.56534   0.68403   0.33896   0.00000  Uiso   1.00
C327   C     0.48403   0.64635   0.38888   0.00000  Uiso   1.00
C328   C     0.76670   0.81803   0.28564   0.00000  Uiso   1.00
C329   C     0.82473   0.80626   0.31491   0.00000  Uiso   1.00
C330   C     0.87712   0.85242   0.34287   0.00000  Uiso   1.00
C331   C     0.97627   0.91222   0.39502   0.00000  Uiso   1.00
C332   C     0.68608   0.81938   0.18506   0.00000  Uiso   1.00
C333   C     0.67633   0.80877   0.12978   0.00000  Uiso   1.00
C334   C     0.66086   0.85609   0.07306   0.00000  Uiso   1.00
C335   C     0.63483   0.91798   0.96905   0.00000  Uiso   1.00
C336   C     0.69327   0.87695   0.24976   0.00000  Uiso   1.00
C337   C     0.64498   0.81115   0.28286   0.00000  Uiso   1.00
C338   C     0.59958   0.80457   0.30956   0.00000  Uiso   1.00
C339   C     0.55983   0.74003   0.33765   0.00000  Uiso   1.00
C340   C     0.76120   0.87392   0.28433   0.00000  Uiso   1.00
C341   C     0.81352   0.92011   0.31224   0.00000  Uiso   1.00
C342   C     0.87161   0.90842   0.34156   0.00000  Uiso   1.00
C343   C     0.68057   0.87528   0.18375   0.00000  Uiso   1.00
C344   C     0.66512   0.92262   0.12711   0.00000  Uiso   1.00
C345   C     0.65536   0.91208   0.07175   0.00000  Uiso   1.00
H346   H     0.70768   0.73054   0.25319   0.00000  Uiso   1.00
H347   H     0.61506   0.64747   0.31324   0.00000  Uiso   1.00
H348   H     0.82897   0.76301   0.31591   0.00000  Uiso   1.00
H349   H     0.68060   0.76551   0.13081   0.00000  Uiso   1.00
H350   H     0.50997   0.58004   0.37925   0.00000  Uiso   1.00
H351   H     0.96101   0.82365   0.38487   0.00000  Uiso   1.00
H352   H     0.64814   0.82894   0.99454   0.00000  Uiso   1.00
H353   H     0.68899   0.92047   0.24874   0.00000  Uiso   1.00
H354   H     0.59534   0.84783   0.30854   0.00000  Uiso   1.00
H355   H     0.80925   0.96336   0.31122   0.00000  Uiso   1.00
H356   H     0.66087   0.96587   0.12612   0.00000  Uiso   1.00
H357   H     0.49396   0.74265   0.37544   0.00000  Uiso   1.00
H358   H     0.94501   0.98627   0.38106   0.00000  Uiso   1.00
H359   H     0.63212   0.99155   0.99073   0.00000  Uiso   1.00
O360   O     0.44071   0.61013   0.41678   0.00000  Uiso   1.00
O361   O     0.03247   0.92975   0.42415   0.00000  Uiso   1.00
O362   O     0.62197   0.93668   0.91205   0.00000  Uiso   1.00
N363   N     0.51904   0.62828   0.37013   0.00000  Uiso   1.00
N364   N     0.94074   0.85604   0.37540   0.00000  Uiso   1.00
N365   N     0.64824   0.86099   0.01048   0.00000  Uiso   1.00
N366   N     0.51043   0.71578   0.36808   0.00000  Uiso   1.00
N367   N     0.93213   0.94354   0.37335   0.00000  Uiso   1.00
N368   N     0.63963   0.94849   0.00843   0.00000  Uiso   1.00
C369   C     0.84623   0.81867   0.62601   0.00000  Uiso   1.00
C370   C     0.81072   0.77929   0.57943   0.00000  Uiso   1.00
C371   C     0.77872   0.71044   0.59489   0.00000  Uiso   1.00
C372   C     0.74921   0.68398   0.54544   0.00000  Uiso   1.00
C373   C     0.69366   0.61660   0.48265   0.00000  Uiso   1.00
C374   C     0.81491   0.86979   0.60270   0.00000  Uiso   1.00
C375   C     0.78644   0.87703   0.63772   0.00000  Uiso   1.00
C376   C     0.76046   0.92677   0.60786   0.00000  Uiso   1.00
C377   C     0.71146   0.99992   0.58120   0.00000  Uiso   1.00
C378   C     0.91616   0.85864   0.61687   0.00000  Uiso   1.00
C379   C     0.97282   0.85653   0.66381   0.00000  Uiso   1.00
C380   C     0.03209   0.89690   0.64589   0.00000  Uiso   1.00
C381   C     0.14030   0.95275   0.64124   0.00000  Uiso   1.00
C382   C     0.85074   0.89412   0.51071   0.00000  Uiso   1.00
C383   C     0.81316   0.82027   0.51681   0.00000  Uiso   1.00
C384   C     0.78370   0.79391   0.46733   0.00000  Uiso   1.00
C385   C     0.75166   0.72503   0.48270   0.00000  Uiso   1.00
C386   C     0.81735   0.91077   0.54008   0.00000  Uiso   1.00
C387   C     0.79142   0.96051   0.51016   0.00000  Uiso   1.00
C388   C     0.76291   0.96782   0.54512   0.00000  Uiso   1.00
C389   C     0.91860   0.89962   0.55425   0.00000  Uiso   1.00
C390   C     0.97780   0.94000   0.53625   0.00000  Uiso   1.00
C391   C     0.03454   0.93795   0.58315   0.00000  Uiso   1.00
H392   H     0.84433   0.78677   0.67476   0.00000  Uiso   1.00
H393   H     0.77683   0.67874   0.64336   0.00000  Uiso   1.00
H394   H     0.78456   0.84532   0.68618   0.00000  Uiso   1.00
H395   H     0.97091   0.82482   0.71227   0.00000  Uiso   1.00
H396   H     0.70305   0.57705   0.58092   0.00000  Uiso   1.00
H397   H     0.71936   0.92829   0.67123   0.00000  Uiso   1.00
H398   H     0.11233   0.88507   0.72624   0.00000  Uiso   1.00
H399   H     0.85264   0.92603   0.46196   0.00000  Uiso   1.00
H400   H     0.78560   0.82564   0.41887   0.00000  Uiso   1.00
H401   H     0.79332   0.99221   0.46170   0.00000  Uiso   1.00
H402   H     0.97967   0.97171   0.48778   0.00000  Uiso   1.00
H403   H     0.71016   0.69627   0.39872   0.00000  Uiso   1.00
H404   H     0.72648   0.04752   0.48903   0.00000  Uiso   1.00
H405   H     0.11944   0.00429   0.54404   0.00000  Uiso   1.00
O406   O     0.66234   0.56811   0.46531   0.00000  Uiso   1.00
O407   O     0.68375   0.02894   0.58380   0.00000  Uiso   1.00
O408   O     0.19930   0.97222   0.65597   0.00000  Uiso   1.00
N409   N     0.71394   0.61888   0.54395   0.00000  Uiso   1.00
N410   N     0.72918   0.94727   0.62838   0.00000  Uiso   1.00
N411   N     0.09657   0.90687   0.67981   0.00000  Uiso   1.00
N412   N     0.71777   0.68304   0.44591   0.00000  Uiso   1.00
N413   N     0.73301   0.01142   0.53034   0.00000  Uiso   1.00
N414   N     0.10040   0.97102   0.58177   0.00000  Uiso   1.00
C415   C     0.23481   0.05344   0.05983   0.00000  Uiso   1.00
C416   C     0.18131   0.02238   0.09551   0.00000  Uiso   1.00
C417   C     0.14879   0.95447   0.12214   0.00000  Uiso   1.00
C418   C     0.10141   0.93616   0.15280   0.00000  Uiso   1.00
C419   C     0.02050   0.88064   0.20759   0.00000  Uiso   1.00
C420   C     0.21103   0.09826   0.99499   0.00000  Uiso   1.00
C421   C     0.20349   0.09415   0.93711   0.00000  Uiso   1.00
C422   C     0.18113   0.13972   0.88315   0.00000  Uiso   1.00
C423   C     0.14639   0.20203   0.78188   0.00000  Uiso   1.00
C424   C     0.29406   0.10015   0.09384   0.00000  Uiso   1.00
C425   C     0.35634   0.09765   0.11906   0.00000  Uiso   1.00
C426   C     0.40390   0.14482   0.14832   0.00000  Uiso   1.00
C427   C     0.49808   0.21008   0.20053   0.00000  Uiso   1.00
C428   C     0.20851   0.14167   0.06692   0.00000  Uiso   1.00
C429   C     0.16703   0.07031   0.09936   0.00000  Uiso   1.00
C430   C     0.11969   0.05209   0.12999   0.00000  Uiso   1.00
C431   C     0.08710   0.98417   0.15666   0.00000  Uiso   1.00
C432   C     0.19674   0.14618   0.99884   0.00000  Uiso   1.00
C433   C     0.17440   0.19177   0.94495   0.00000  Uiso   1.00
C434   C     0.16682   0.18773   0.88701   0.00000  Uiso   1.00
C435   C     0.27978   0.14808   0.09769   0.00000  Uiso   1.00
C436   C     0.32725   0.19527   0.12691   0.00000  Uiso   1.00
C437   C     0.38959   0.19284   0.15217   0.00000  Uiso   1.00
H438   H     0.24593   0.01613   0.05683   0.00000  Uiso   1.00
H439   H     0.15985   0.91740   0.11915   0.00000  Uiso   1.00
H440   H     0.21455   0.05706   0.93415   0.00000  Uiso   1.00
H441   H     0.36738   0.06056   0.11607   0.00000  Uiso   1.00
H442   H     0.05810   0.82907   0.18992   0.00000  Uiso   1.00
H443   H     0.17346   0.12357   0.79983   0.00000  Uiso   1.00
H444   H     0.49573   0.13094   0.18346   0.00000  Uiso   1.00
H445   H     0.19739   0.17899   0.06991   0.00000  Uiso   1.00
H446   H     0.10865   0.08919   0.13296   0.00000  Uiso   1.00
H447   H     0.16335   0.22885   0.94795   0.00000  Uiso   1.00
H448   H     0.31618   0.23235   0.12988   0.00000  Uiso   1.00
H449   H     0.01655   0.96850   0.20112   0.00000  Uiso   1.00
H450   H     0.13191   0.26300   0.81103   0.00000  Uiso   1.00
H451   H     0.45417   0.27037   0.19466   0.00000  Uiso   1.00
O452   O     0.97981   0.83677   0.23674   0.00000  Uiso   1.00
O453   O     0.13117   0.22315   0.72496   0.00000  Uiso   1.00
O454   O     0.55397   0.23282   0.22827   0.00000  Uiso   1.00
N455   N     0.06051   0.87421   0.18392   0.00000  Uiso   1.00
N456   N     0.16836   0.14954   0.81921   0.00000  Uiso   1.00
N457   N     0.46965   0.15645   0.17785   0.00000  Uiso   1.00
N458   N     0.03815   0.94923   0.18995   0.00000  Uiso   1.00
N459   N     0.14600   0.22456   0.82524   0.00000  Uiso   1.00
N460   N     0.44729   0.23147   0.18388   0.00000  Uiso   1.00
C461   C     0.81415   0.04912   0.84160   0.00000  Uiso   1.00
C462   C     0.86767   0.02020   0.88060   0.00000  Uiso   1.00
C463   C     0.85785   0.95275   0.90759   0.00000  Uiso   1.00
C464   C     0.91319   0.93649   0.94152   0.00000  Uiso   1.00
C465   C     0.98673   0.88406   0.00109   0.00000  Uiso   1.00
C466   C     0.82174   0.09434   0.87435   0.00000  Uiso   1.00
C467   C     0.77330   0.08923   0.89607   0.00000  Uiso   1.00
C468   C     0.78997   0.13538   0.92474   0.00000  Uiso   1.00
C469   C     0.79220   0.19808   0.97456   0.00000  Uiso   1.00
C470   C     0.83235   0.09524   0.77826   0.00000  Uiso   1.00
C471   C     0.79281   0.09089   0.71919   0.00000  Uiso   1.00
C472   C     0.81841   0.13781   0.66695   0.00000  Uiso   1.00
C473   C     0.83709   0.20190   0.56758   0.00000  Uiso   1.00
C474   C     0.92989   0.14020   0.85386   0.00000  Uiso   1.00
C475   C     0.93054   0.06967   0.88726   0.00000  Uiso   1.00
C476   C     0.98591   0.05351   0.92116   0.00000  Uiso   1.00
C477   C     0.97617   0.98604   0.94819   0.00000  Uiso   1.00
C478   C     0.88461   0.14381   0.88101   0.00000  Uiso   1.00
C479   C     0.90136   0.18999   0.90964   0.00000  Uiso   1.00
C480   C     0.85296   0.18494   0.93141   0.00000  Uiso   1.00
C481   C     0.89522   0.14470   0.78492   0.00000  Uiso   1.00
C482   C     0.92088   0.19165   0.73276   0.00000  Uiso   1.00
C483   C     0.88139   0.18737   0.67362   0.00000  Uiso   1.00
H484   H     0.76520   0.01062   0.83641   0.00000  Uiso   1.00
H485   H     0.80919   0.91448   0.90243   0.00000  Uiso   1.00
H486   H     0.72465   0.05094   0.89091   0.00000  Uiso   1.00
H487   H     0.74416   0.05260   0.71405   0.00000  Uiso   1.00
H488   H     0.88568   0.82972   0.97857   0.00000  Uiso   1.00
H489   H     0.70742   0.11747   0.95426   0.00000  Uiso   1.00
H490   H     0.74856   0.12097   0.58132   0.00000  Uiso   1.00
H491   H     0.97884   0.17871   0.85905   0.00000  Uiso   1.00
H492   H     0.03456   0.09180   0.92630   0.00000  Uiso   1.00
H493   H     0.95002   0.22826   0.91479   0.00000  Uiso   1.00
H494   H     0.96953   0.22992   0.73793   0.00000  Uiso   1.00
H495   H     0.06860   0.97364   0.99795   0.00000  Uiso   1.00
H496   H     0.89033   0.26139   0.97364   0.00000  Uiso   1.00
H497   H     0.93148   0.26488   0.60071   0.00000  Uiso   1.00
O498   O     0.00993   0.84147   0.03211   0.00000  Uiso   1.00
O499   O     0.77605   0.21899   0.00021   0.00000  Uiso   1.00
O500   O     0.83004   0.22358   0.51093   0.00000  Uiso   1.00
N501   N     0.92108   0.87552   0.97389   0.00000  Uiso   1.00
N502   N     0.75442   0.14454   0.95117   0.00000  Uiso   1.00
N503   N     0.79288   0.14782   0.60251   0.00000  Uiso   1.00
N504   N     0.01951   0.95296   0.98432   0.00000  Uiso   1.00
N505   N     0.85285   0.22198   0.96160   0.00000  Uiso   1.00
N506   N     0.89131   0.22526   0.61294   0.00000  Uiso   1.00
C507   C     0.96960   0.06327   0.22490   0.00000  Uiso   1.00
C508   C     0.93175   0.02883   0.17432   0.00000  Uiso   1.00
C509   C     0.90504   0.96036   0.18540   0.00000  Uiso   1.00
C510   C     0.87222   0.93878   0.13277   0.00000  Uiso   1.00
C511   C     0.81436   0.87841   0.06359   0.00000  Uiso   1.00
C512   C     0.03585   0.11156   0.20881   0.00000  Uiso   1.00
C513   C     0.09668   0.11265   0.24891   0.00000  Uiso   1.00
C514   C     0.15150   0.16071   0.22532   0.00000  Uiso   1.00
C515   C     0.25526   0.22881   0.20971   0.00000  Uiso   1.00
C516   C     0.93381   0.10659   0.21399   0.00000  Uiso   1.00
C517   C     0.90886   0.10352   0.25845   0.00000  Uiso   1.00
C518   C     0.87777   0.14742   0.23922   0.00000  Uiso   1.00
C519   C     0.82310   0.20780   0.23165   0.00000  Uiso   1.00
C520   C     0.95879   0.14669   0.11172   0.00000  Uiso   1.00
C521   C     0.92588   0.07415   0.11284   0.00000  Uiso   1.00
C522   C     0.89308   0.05266   0.06018   0.00000  Uiso   1.00
C523   C     0.86633   0.98417   0.07119   0.00000  Uiso   1.00
C524   C     0.02998   0.15687   0.14734   0.00000  Uiso   1.00
C525   C     0.08472   0.20495   0.12369   0.00000  Uiso   1.00
C526   C     0.14562   0.20611   0.16373   0.00000  Uiso   1.00
C527   C     0.92794   0.15191   0.15252   0.00000  Uiso   1.00
C528   C     0.89689   0.19582   0.13322   0.00000  Uiso   1.00
C529   C     0.87189   0.19281   0.17763   0.00000  Uiso   1.00
H530   H     0.97418   0.02800   0.27276   0.00000  Uiso   1.00
H531   H     0.90961   0.92531   0.23298   0.00000  Uiso   1.00
H532   H     0.10121   0.07759   0.29648   0.00000  Uiso   1.00
H533   H     0.91341   0.06846   0.30601   0.00000  Uiso   1.00
H534   H     0.83544   0.83145   0.16178   0.00000  Uiso   1.00
H535   H     0.23946   0.15254   0.29567   0.00000  Uiso   1.00
H536   H     0.84344   0.13329   0.31578   0.00000  Uiso   1.00
H537   H     0.95422   0.18197   0.06385   0.00000  Uiso   1.00
H538   H     0.88854   0.08773   0.01262   0.00000  Uiso   1.00
H539   H     0.08016   0.24000   0.07611   0.00000  Uiso   1.00
H540   H     0.89235   0.23087   0.08565   0.00000  Uiso   1.00
H541   H     0.81835   0.96327   0.98292   0.00000  Uiso   1.00
H542   H     0.22237   0.28436   0.11681   0.00000  Uiso   1.00
H543   H     0.82635   0.26511   0.13692   0.00000  Uiso   1.00
O544   O     0.78407   0.83259   0.04241   0.00000  Uiso   1.00
O545   O     0.31412   0.25385   0.21808   0.00000  Uiso   1.00
O546   O     0.79456   0.22859   0.24445   0.00000  Uiso   1.00
N547   N     0.84042   0.87541   0.12671   0.00000  Uiso   1.00
N548   N     0.21815   0.17560   0.25189   0.00000  Uiso   1.00
N549   N     0.84793   0.15761   0.27070   0.00000  Uiso   1.00
N550   N     0.83122   0.94634   0.03047   0.00000  Uiso   1.00
N551   N     0.20895   0.24653   0.15565   0.00000  Uiso   1.00
N552   N     0.83873   0.22854   0.17445   0.00000  Uiso   1.00
