data_job_01910
_audit_creation_date              2018-12-19
_audit_creation_method            'Materials Studio'
_symmetry_space_group_name_H-M    'P1'
_symmetry_Int_Tables_number       1
_symmetry_cell_setting            triclinic
loop_
_symmetry_equiv_pos_as_xyz
  x,y,z
_cell_length_a                    10.1207
_cell_length_b                    8.3206
_cell_length_c                    32.4771
_cell_angle_alpha                 90.0000
_cell_angle_beta                  100.0901
_cell_angle_gamma                 90.0000
loop_
_atom_site_label
_atom_site_type_symbol
_atom_site_fract_x
_atom_site_fract_y
_atom_site_fract_z
_atom_site_U_iso_or_equiv
_atom_site_adp_type
_atom_site_occupancy
C1     C     0.40599   0.61401   0.65545   0.00000  Uiso   1.00
C2     C     0.36342   0.45191   0.67071   0.00000  Uiso   1.00
C3     C     0.30463   0.42707   0.70571   0.00000  Uiso   1.00
C4     C     0.27313   0.26970   0.71441   0.00000  Uiso   1.00
C5     C     0.20309   0.03742   0.74198   0.00000  Uiso   1.00
C6     C     0.55464   0.59809   0.65317   0.00000  Uiso   1.00
C7     C     0.65662   0.69619   0.67342   0.00000  Uiso   1.00
C8     C     0.78608   0.66188   0.66735   0.00000  Uiso   1.00
C9     C     0.01289   0.65664   0.66768   0.00000  Uiso   1.00
C10    C     0.33322   0.63078   0.61039   0.00000  Uiso   1.00
C11    C     0.24904   0.75637   0.59467   0.00000  Uiso   1.00
C12    C     0.19211   0.74960   0.55258   0.00000  Uiso   1.00
C13    C     0.07513   0.79510   0.48649   0.00000  Uiso   1.00
C14    C     0.45458   0.37869   0.60865   0.00000  Uiso   1.00
C15    C     0.38982   0.32409   0.64529   0.00000  Uiso   1.00
C16    C     0.35840   0.16671   0.65393   0.00000  Uiso   1.00
C17    C     0.29957   0.14165   0.68894   0.00000  Uiso   1.00
C18    C     0.58104   0.47028   0.62775   0.00000  Uiso   1.00
C19    C     0.71038   0.43583   0.62165   0.00000  Uiso   1.00
C20    C     0.81253   0.53384   0.64189   0.00000  Uiso   1.00
C21    C     0.35961   0.50296   0.58497   0.00000  Uiso   1.00
C22    C     0.30281   0.49600   0.54290   0.00000  Uiso   1.00
C23    C     0.21856   0.62155   0.52712   0.00000  Uiso   1.00
H24    H     0.38545   0.71353   0.67523   0.00000  Uiso   1.00
H25    H     0.28423   0.52602   0.72537   0.00000  Uiso   1.00
H26    H     0.63616   0.79510   0.69309   0.00000  Uiso   1.00
H27    H     0.22864   0.85526   0.61435   0.00000  Uiso   1.00
H28    H     0.18371   0.26176   0.76976   0.00000  Uiso   1.00
H29    H     0.92575   0.82917   0.70167   0.00000  Uiso   1.00
H30    H     0.06643   0.95603   0.53564   0.00000  Uiso   1.00
H31    H     0.47514   0.27918   0.58886   0.00000  Uiso   1.00
H32    H     0.37884   0.06783   0.63426   0.00000  Uiso   1.00
H33    H     0.73077   0.33691   0.60197   0.00000  Uiso   1.00
H34    H     0.32326   0.39707   0.52324   0.00000  Uiso   1.00
H35    H     0.26050   0.88987   0.69581   0.00000  Uiso   1.00
H36    H     0.00255   0.45729   0.62772   0.00000  Uiso   1.00
H37    H     0.14322   0.58414   0.46169   0.00000  Uiso   1.00
O38    O     0.15718   0.94461   0.76422   0.00000  Uiso   1.00
O39    O     0.13071   0.68905   0.67488   0.00000  Uiso   1.00
O40    O     0.00329   0.85549   0.45705   0.00000  Uiso   1.00
N41    N     0.21497   0.20324   0.74612   0.00000  Uiso   1.00
N42    N     0.90874   0.73372   0.68247   0.00000  Uiso   1.00
N43    N     0.10538   0.85235   0.52724   0.00000  Uiso   1.00
N44    N     0.25629   0.00313   0.70633   0.00000  Uiso   1.00
N45    N     0.95006   0.53361   0.64268   0.00000  Uiso   1.00
N46    N     0.14670   0.65224   0.48745   0.00000  Uiso   1.00
C47    C     0.59401   0.61401   0.84455   0.00000  Uiso   1.00
C48    C     0.63658   0.45191   0.82929   0.00000  Uiso   1.00
C49    C     0.69537   0.42707   0.79429   0.00000  Uiso   1.00
C50    C     0.72687   0.26970   0.78559   0.00000  Uiso   1.00
C51    C     0.79691   0.03742   0.75802   0.00000  Uiso   1.00
C52    C     0.44536   0.59809   0.84683   0.00000  Uiso   1.00
C53    C     0.34338   0.69619   0.82658   0.00000  Uiso   1.00
C54    C     0.21392   0.66188   0.83265   0.00000  Uiso   1.00
C55    C     0.98711   0.65664   0.83232   0.00000  Uiso   1.00
C56    C     0.66678   0.63078   0.88961   0.00000  Uiso   1.00
C57    C     0.75096   0.75637   0.90533   0.00000  Uiso   1.00
C58    C     0.80789   0.74960   0.94742   0.00000  Uiso   1.00
C59    C     0.92487   0.79510   0.01351   0.00000  Uiso   1.00
C60    C     0.54542   0.37869   0.89135   0.00000  Uiso   1.00
C61    C     0.61018   0.32409   0.85471   0.00000  Uiso   1.00
C62    C     0.64160   0.16671   0.84607   0.00000  Uiso   1.00
C63    C     0.70043   0.14165   0.81106   0.00000  Uiso   1.00
C64    C     0.41896   0.47028   0.87225   0.00000  Uiso   1.00
C65    C     0.28962   0.43583   0.87835   0.00000  Uiso   1.00
C66    C     0.18747   0.53384   0.85811   0.00000  Uiso   1.00
C67    C     0.64039   0.50296   0.91503   0.00000  Uiso   1.00
C68    C     0.69719   0.49600   0.95710   0.00000  Uiso   1.00
C69    C     0.78144   0.62155   0.97288   0.00000  Uiso   1.00
H70    H     0.61455   0.71353   0.82477   0.00000  Uiso   1.00
H71    H     0.71577   0.52602   0.77463   0.00000  Uiso   1.00
H72    H     0.36384   0.79510   0.80691   0.00000  Uiso   1.00
H73    H     0.77136   0.85526   0.88565   0.00000  Uiso   1.00
H74    H     0.81629   0.26176   0.73024   0.00000  Uiso   1.00
H75    H     0.07425   0.82917   0.79833   0.00000  Uiso   1.00
H76    H     0.93357   0.95603   0.96436   0.00000  Uiso   1.00
H77    H     0.52486   0.27918   0.91114   0.00000  Uiso   1.00
H78    H     0.62116   0.06783   0.86574   0.00000  Uiso   1.00
H79    H     0.26923   0.33691   0.89803   0.00000  Uiso   1.00
H80    H     0.67674   0.39707   0.97676   0.00000  Uiso   1.00
H81    H     0.73950   0.88987   0.80419   0.00000  Uiso   1.00
H82    H     0.99745   0.45729   0.87228   0.00000  Uiso   1.00
H83    H     0.85678   0.58414   0.03831   0.00000  Uiso   1.00
O84    O     0.84282   0.94461   0.73578   0.00000  Uiso   1.00
O85    O     0.86929   0.68905   0.82512   0.00000  Uiso   1.00
O86    O     0.99671   0.85549   0.04295   0.00000  Uiso   1.00
N87    N     0.78503   0.20324   0.75388   0.00000  Uiso   1.00
N88    N     0.09126   0.73372   0.81753   0.00000  Uiso   1.00
N89    N     0.89462   0.85235   0.97276   0.00000  Uiso   1.00
N90    N     0.74371   0.00313   0.79367   0.00000  Uiso   1.00
N91    N     0.04994   0.53361   0.85732   0.00000  Uiso   1.00
N92    N     0.85330   0.65224   0.01255   0.00000  Uiso   1.00
C93    C     0.59401   0.38599   0.34455   0.00000  Uiso   1.00
C94    C     0.63658   0.54809   0.32929   0.00000  Uiso   1.00
C95    C     0.69537   0.57293   0.29429   0.00000  Uiso   1.00
C96    C     0.72687   0.73030   0.28559   0.00000  Uiso   1.00
C97    C     0.79691   0.96258   0.25802   0.00000  Uiso   1.00
C98    C     0.44536   0.40191   0.34683   0.00000  Uiso   1.00
C99    C     0.34338   0.30381   0.32658   0.00000  Uiso   1.00
C100   C     0.21392   0.33812   0.33265   0.00000  Uiso   1.00
C101   C     0.98711   0.34336   0.33232   0.00000  Uiso   1.00
C102   C     0.66678   0.36922   0.38961   0.00000  Uiso   1.00
C103   C     0.75096   0.24363   0.40533   0.00000  Uiso   1.00
C104   C     0.80789   0.25040   0.44742   0.00000  Uiso   1.00
C105   C     0.92487   0.20490   0.51351   0.00000  Uiso   1.00
C106   C     0.54542   0.62131   0.39135   0.00000  Uiso   1.00
C107   C     0.61018   0.67591   0.35471   0.00000  Uiso   1.00
C108   C     0.64160   0.83329   0.34607   0.00000  Uiso   1.00
C109   C     0.70043   0.85835   0.31106   0.00000  Uiso   1.00
C110   C     0.41896   0.52972   0.37225   0.00000  Uiso   1.00
C111   C     0.28962   0.56417   0.37835   0.00000  Uiso   1.00
C112   C     0.18747   0.46616   0.35811   0.00000  Uiso   1.00
C113   C     0.64039   0.49704   0.41503   0.00000  Uiso   1.00
C114   C     0.69719   0.50400   0.45710   0.00000  Uiso   1.00
C115   C     0.78144   0.37845   0.47288   0.00000  Uiso   1.00
H116   H     0.61455   0.28647   0.32477   0.00000  Uiso   1.00
H117   H     0.71577   0.47398   0.27463   0.00000  Uiso   1.00
H118   H     0.36384   0.20490   0.30691   0.00000  Uiso   1.00
H119   H     0.77136   0.14474   0.38565   0.00000  Uiso   1.00
H120   H     0.81629   0.73824   0.23024   0.00000  Uiso   1.00
H121   H     0.07425   0.17083   0.29833   0.00000  Uiso   1.00
H122   H     0.93357   0.04397   0.46436   0.00000  Uiso   1.00
H123   H     0.52486   0.72082   0.41114   0.00000  Uiso   1.00
H124   H     0.62116   0.93217   0.36574   0.00000  Uiso   1.00
H125   H     0.26923   0.66309   0.39803   0.00000  Uiso   1.00
H126   H     0.67674   0.60293   0.47676   0.00000  Uiso   1.00
H127   H     0.73950   0.11013   0.30419   0.00000  Uiso   1.00
H128   H     0.99745   0.54271   0.37228   0.00000  Uiso   1.00
H129   H     0.85678   0.41586   0.53831   0.00000  Uiso   1.00
O130   O     0.84282   0.05539   0.23578   0.00000  Uiso   1.00
O131   O     0.86929   0.31095   0.32512   0.00000  Uiso   1.00
O132   O     0.99671   0.14451   0.54295   0.00000  Uiso   1.00
N133   N     0.78503   0.79676   0.25388   0.00000  Uiso   1.00
N134   N     0.09126   0.26628   0.31753   0.00000  Uiso   1.00
N135   N     0.89462   0.14765   0.47276   0.00000  Uiso   1.00
N136   N     0.74371   0.99687   0.29367   0.00000  Uiso   1.00
N137   N     0.04994   0.46639   0.35732   0.00000  Uiso   1.00
N138   N     0.85330   0.34776   0.51255   0.00000  Uiso   1.00
C139   C     0.40599   0.38599   0.15545   0.00000  Uiso   1.00
C140   C     0.36342   0.54809   0.17071   0.00000  Uiso   1.00
C141   C     0.30463   0.57293   0.20571   0.00000  Uiso   1.00
C142   C     0.27313   0.73030   0.21441   0.00000  Uiso   1.00
C143   C     0.20309   0.96258   0.24198   0.00000  Uiso   1.00
C144   C     0.55464   0.40191   0.15317   0.00000  Uiso   1.00
C145   C     0.65662   0.30381   0.17342   0.00000  Uiso   1.00
C146   C     0.78608   0.33812   0.16735   0.00000  Uiso   1.00
C147   C     0.01289   0.34336   0.16768   0.00000  Uiso   1.00
C148   C     0.33322   0.36922   0.11039   0.00000  Uiso   1.00
C149   C     0.24904   0.24363   0.09467   0.00000  Uiso   1.00
C150   C     0.19211   0.25040   0.05258   0.00000  Uiso   1.00
C151   C     0.07513   0.20490   0.98649   0.00000  Uiso   1.00
C152   C     0.45458   0.62131   0.10865   0.00000  Uiso   1.00
C153   C     0.38982   0.67591   0.14529   0.00000  Uiso   1.00
C154   C     0.35840   0.83329   0.15393   0.00000  Uiso   1.00
C155   C     0.29957   0.85835   0.18894   0.00000  Uiso   1.00
C156   C     0.58104   0.52972   0.12775   0.00000  Uiso   1.00
C157   C     0.71038   0.56417   0.12165   0.00000  Uiso   1.00
C158   C     0.81253   0.46616   0.14189   0.00000  Uiso   1.00
C159   C     0.35961   0.49704   0.08497   0.00000  Uiso   1.00
C160   C     0.30281   0.50400   0.04290   0.00000  Uiso   1.00
C161   C     0.21856   0.37845   0.02712   0.00000  Uiso   1.00
H162   H     0.38545   0.28647   0.17523   0.00000  Uiso   1.00
H163   H     0.28423   0.47398   0.22537   0.00000  Uiso   1.00
H164   H     0.63616   0.20490   0.19309   0.00000  Uiso   1.00
H165   H     0.22864   0.14474   0.11435   0.00000  Uiso   1.00
H166   H     0.18371   0.73824   0.26976   0.00000  Uiso   1.00
H167   H     0.92575   0.17083   0.20167   0.00000  Uiso   1.00
H168   H     0.06643   0.04397   0.03564   0.00000  Uiso   1.00
H169   H     0.47514   0.72082   0.08886   0.00000  Uiso   1.00
H170   H     0.37884   0.93217   0.13426   0.00000  Uiso   1.00
H171   H     0.73077   0.66309   0.10197   0.00000  Uiso   1.00
H172   H     0.32326   0.60293   0.02324   0.00000  Uiso   1.00
H173   H     0.26050   0.11013   0.19581   0.00000  Uiso   1.00
H174   H     0.00255   0.54271   0.12772   0.00000  Uiso   1.00
H175   H     0.14322   0.41586   0.96169   0.00000  Uiso   1.00
O176   O     0.15718   0.05539   0.26422   0.00000  Uiso   1.00
O177   O     0.13071   0.31095   0.17488   0.00000  Uiso   1.00
O178   O     0.00329   0.14451   0.95705   0.00000  Uiso   1.00
N179   N     0.21497   0.79676   0.24612   0.00000  Uiso   1.00
N180   N     0.90874   0.26628   0.18247   0.00000  Uiso   1.00
N181   N     0.10538   0.14765   0.02724   0.00000  Uiso   1.00
N182   N     0.25629   0.99687   0.20633   0.00000  Uiso   1.00
N183   N     0.95006   0.46639   0.14268   0.00000  Uiso   1.00
N184   N     0.14670   0.34776   0.98745   0.00000  Uiso   1.00
