data_job_06267
_audit_creation_date              2018-12-19
_audit_creation_method            'Materials Studio'
_symmetry_space_group_name_H-M    'P1'
_symmetry_Int_Tables_number       1
_symmetry_cell_setting            triclinic
loop_
_symmetry_equiv_pos_as_xyz
  x,y,z
_cell_length_a                    14.7893
_cell_length_b                    14.8068
_cell_length_c                    14.8227
_cell_angle_alpha                 97.6924
_cell_angle_beta                  97.7152
_cell_angle_gamma                 97.7332
loop_
_atom_site_label
_atom_site_type_symbol
_atom_site_fract_x
_atom_site_fract_y
_atom_site_fract_z
_atom_site_U_iso_or_equiv
_atom_site_adp_type
_atom_site_occupancy
C1     C     0.87467   0.38713   0.27146   0.00000  Uiso   1.00
C2     C     0.86402   0.28290   0.26889   0.00000  Uiso   1.00
C3     C     0.80416   0.23134   0.31394   0.00000  Uiso   1.00
C4     C     0.80475   0.13683   0.30295   0.00000  Uiso   1.00
C5     C     0.77936   0.98128   0.30723   0.00000  Uiso   1.00
C6     C     0.97659   0.42374   0.30587   0.00000  Uiso   1.00
C7     C     0.01136   0.49061   0.38200   0.00000  Uiso   1.00
C8     C     0.10671   0.51466   0.40212   0.00000  Uiso   1.00
C9     C     0.25608   0.57782   0.46376   0.00000  Uiso   1.00
C10    C     0.85709   0.40257   0.17135   0.00000  Uiso   1.00
C11    C     0.79140   0.45166   0.13437   0.00000  Uiso   1.00
C12    C     0.78615   0.45790   0.04123   0.00000  Uiso   1.00
C13    C     0.74998   0.48819   0.89401   0.00000  Uiso   1.00
C14    C     0.98217   0.31097   0.17182   0.00000  Uiso   1.00
C15    C     0.92241   0.24154   0.21478   0.00000  Uiso   1.00
C16    C     0.92309   0.14708   0.20370   0.00000  Uiso   1.00
C17    C     0.86324   0.09539   0.24873   0.00000  Uiso   1.00
C18    C     0.03498   0.38238   0.25175   0.00000  Uiso   1.00
C19    C     0.13030   0.40634   0.27176   0.00000  Uiso   1.00
C20    C     0.16521   0.47322   0.34790   0.00000  Uiso   1.00
C21    C     0.91547   0.36120   0.11722   0.00000  Uiso   1.00
C22    C     0.91033   0.36738   0.02413   0.00000  Uiso   1.00
C23    C     0.84465   0.41646   0.98701   0.00000  Uiso   1.00
H24    H     0.82922   0.41935   0.31360   0.00000  Uiso   1.00
H25    H     0.75899   0.26338   0.35583   0.00000  Uiso   1.00
H26    H     0.96616   0.52261   0.42386   0.00000  Uiso   1.00
H27    H     0.74623   0.48366   0.17627   0.00000  Uiso   1.00
H28    H     0.70690   0.07223   0.37881   0.00000  Uiso   1.00
H29    H     0.14373   0.61885   0.52224   0.00000  Uiso   1.00
H30    H     0.67996   0.53672   0.00015   0.00000  Uiso   1.00
H31    H     0.02763   0.27877   0.12968   0.00000  Uiso   1.00
H32    H     0.96828   0.11508   0.16182   0.00000  Uiso   1.00
H33    H     0.17546   0.37432   0.22986   0.00000  Uiso   1.00
H34    H     0.95553   0.33536   0.98227   0.00000  Uiso   1.00
H35    H     0.87677   0.95187   0.22134   0.00000  Uiso   1.00
H36    H     0.31361   0.49849   0.36478   0.00000  Uiso   1.00
H37    H     0.84984   0.41635   0.84269   0.00000  Uiso   1.00
O38    O     0.74923   0.90691   0.32456   0.00000  Uiso   1.00
O39    O     0.32234   0.62407   0.51273   0.00000  Uiso   1.00
O40    O     0.71389   0.51631   0.82776   0.00000  Uiso   1.00
N41    N     0.75501   0.06636   0.33732   0.00000  Uiso   1.00
N42    N     0.16342   0.57741   0.47144   0.00000  Uiso   1.00
N43    N     0.72986   0.50064   0.98333   0.00000  Uiso   1.00
N44    N     0.84641   0.00160   0.25259   0.00000  Uiso   1.00
N45    N     0.25483   0.51265   0.38671   0.00000  Uiso   1.00
N46    N     0.82126   0.43588   0.89860   0.00000  Uiso   1.00
C47    C     0.27176   0.87530   0.38691   0.00000  Uiso   1.00
C48    C     0.26918   0.86469   0.28280   0.00000  Uiso   1.00
C49    C     0.31434   0.80493   0.23134   0.00000  Uiso   1.00
C50    C     0.30331   0.80555   0.13693   0.00000  Uiso   1.00
C51    C     0.30760   0.78025   0.98156   0.00000  Uiso   1.00
C52    C     0.30624   0.97708   0.42346   0.00000  Uiso   1.00
C53    C     0.38255   0.01182   0.49026   0.00000  Uiso   1.00
C54    C     0.40272   0.10705   0.51426   0.00000  Uiso   1.00
C55    C     0.46451   0.25623   0.57732   0.00000  Uiso   1.00
C56    C     0.17141   0.85769   0.40230   0.00000  Uiso   1.00
C57    C     0.13435   0.79206   0.45134   0.00000  Uiso   1.00
C58    C     0.04099   0.78678   0.45755   0.00000  Uiso   1.00
C59    C     0.89343   0.75059   0.48776   0.00000  Uiso   1.00
C60    C     0.17188   0.98265   0.31076   0.00000  Uiso   1.00
C61    C     0.21493   0.92301   0.24144   0.00000  Uiso   1.00
C62    C     0.20383   0.92371   0.14708   0.00000  Uiso   1.00
C63    C     0.24896   0.86396   0.09549   0.00000  Uiso   1.00
C64    C     0.25200   0.03540   0.38210   0.00000  Uiso   1.00
C65    C     0.27205   0.13060   0.40601   0.00000  Uiso   1.00
C66    C     0.34837   0.16547   0.47282   0.00000  Uiso   1.00
C67    C     0.11715   0.91600   0.36094   0.00000  Uiso   1.00
C68    C     0.02384   0.91083   0.36708   0.00000  Uiso   1.00
C69    C     0.98664   0.84520   0.41611   0.00000  Uiso   1.00
H70    H     0.31400   0.82990   0.41912   0.00000  Uiso   1.00
H71    H     0.35632   0.75982   0.26337   0.00000  Uiso   1.00
H72    H     0.42452   0.96668   0.52226   0.00000  Uiso   1.00
H73    H     0.17635   0.74694   0.48334   0.00000  Uiso   1.00
H74    H     0.37935   0.70787   0.07246   0.00000  Uiso   1.00
H75    H     0.52313   0.14402   0.61837   0.00000  Uiso   1.00
H76    H     0.99981   0.68068   0.53630   0.00000  Uiso   1.00
H77    H     0.12964   0.02806   0.27856   0.00000  Uiso   1.00
H78    H     0.16184   0.96885   0.11509   0.00000  Uiso   1.00
H79    H     0.23005   0.17570   0.37399   0.00000  Uiso   1.00
H80    H     0.98188   0.95597   0.33506   0.00000  Uiso   1.00
H81    H     0.22151   0.87752   0.95211   0.00000  Uiso   1.00
H82    H     0.36529   0.31368   0.49803   0.00000  Uiso   1.00
H83    H     0.84198   0.85033   0.41595   0.00000  Uiso   1.00
O84    O     0.32497   0.75019   0.90730   0.00000  Uiso   1.00
O85    O     0.51359   0.32241   0.62352   0.00000  Uiso   1.00
O86    O     0.82702   0.71451   0.51584   0.00000  Uiso   1.00
N87    N     0.33777   0.75591   0.06657   0.00000  Uiso   1.00
N88    N     0.47220   0.16369   0.57695   0.00000  Uiso   1.00
N89    N     0.98295   0.73052   0.50024   0.00000  Uiso   1.00
N90    N     0.25283   0.84720   0.00181   0.00000  Uiso   1.00
N91    N     0.38727   0.25498   0.51219   0.00000  Uiso   1.00
N92    N     0.89802   0.82181   0.43548   0.00000  Uiso   1.00
C93    C     0.38742   0.27161   0.87584   0.00000  Uiso   1.00
C94    C     0.28306   0.26901   0.86521   0.00000  Uiso   1.00
C95    C     0.23147   0.31411   0.80548   0.00000  Uiso   1.00
C96    C     0.13684   0.30307   0.80607   0.00000  Uiso   1.00
C97    C     0.98111   0.30731   0.78073   0.00000  Uiso   1.00
C98    C     0.42405   0.30603   0.97751   0.00000  Uiso   1.00
C99    C     0.49101   0.38226   0.01221   0.00000  Uiso   1.00
C100   C     0.51507   0.40237   0.10733   0.00000  Uiso   1.00
C101   C     0.57828   0.46406   0.25635   0.00000  Uiso   1.00
C102   C     0.40285   0.17140   0.85829   0.00000  Uiso   1.00
C103   C     0.45200   0.13442   0.79277   0.00000  Uiso   1.00
C104   C     0.45823   0.04118   0.78753   0.00000  Uiso   1.00
C105   C     0.48851   0.89382   0.75145   0.00000  Uiso   1.00
C106   C     0.31110   0.17179   0.98308   0.00000  Uiso   1.00
C107   C     0.24161   0.21479   0.92346   0.00000  Uiso   1.00
C108   C     0.14703   0.20367   0.92414   0.00000  Uiso   1.00
C109   C     0.09531   0.24875   0.86442   0.00000  Uiso   1.00
C110   C     0.38260   0.25182   0.03576   0.00000  Uiso   1.00
C111   C     0.40657   0.27182   0.13086   0.00000  Uiso   1.00
C112   C     0.47354   0.34806   0.16569   0.00000  Uiso   1.00
C113   C     0.36139   0.11718   0.91654   0.00000  Uiso   1.00
C114   C     0.36755   0.02398   0.91142   0.00000  Uiso   1.00
C115   C     0.41670   0.98687   0.84589   0.00000  Uiso   1.00
H116   H     0.41970   0.31383   0.83049   0.00000  Uiso   1.00
H117   H     0.26359   0.35607   0.76042   0.00000  Uiso   1.00
H118   H     0.52309   0.42420   0.96711   0.00000  Uiso   1.00
H119   H     0.48407   0.17640   0.74770   0.00000  Uiso   1.00
H120   H     0.07222   0.37902   0.70844   0.00000  Uiso   1.00
H121   H     0.61942   0.52266   0.14426   0.00000  Uiso   1.00
H122   H     0.53716   0.00012   0.68159   0.00000  Uiso   1.00
H123   H     0.27882   0.12958   0.02844   0.00000  Uiso   1.00
H124   H     0.11497   0.16171   0.96922   0.00000  Uiso   1.00
H125   H     0.37447   0.22984   0.17592   0.00000  Uiso   1.00
H126   H     0.33546   0.98204   0.95651   0.00000  Uiso   1.00
H127   H     0.95160   0.22128   0.87792   0.00000  Uiso   1.00
H128   H     0.49880   0.36491   0.31374   0.00000  Uiso   1.00
H129   H     0.41653   0.84238   0.85107   0.00000  Uiso   1.00
O130   O     0.90667   0.32464   0.75068   0.00000  Uiso   1.00
O131   O     0.62459   0.51307   0.32245   0.00000  Uiso   1.00
O132   O     0.51665   0.82752   0.71544   0.00000  Uiso   1.00
N133   N     0.06632   0.33747   0.75644   0.00000  Uiso   1.00
N134   N     0.57791   0.47177   0.16391   0.00000  Uiso   1.00
N135   N     0.50102   0.98325   0.73137   0.00000  Uiso   1.00
N136   N     0.00141   0.25259   0.84763   0.00000  Uiso   1.00
N137   N     0.51300   0.38689   0.25510   0.00000  Uiso   1.00
N138   N     0.43611   0.89837   0.82256   0.00000  Uiso   1.00
C139   C     0.12533   0.61286   0.72854   0.00000  Uiso   1.00
C140   C     0.13598   0.71710   0.73111   0.00000  Uiso   1.00
C141   C     0.19584   0.76866   0.68606   0.00000  Uiso   1.00
C142   C     0.19525   0.86317   0.69705   0.00000  Uiso   1.00
C143   C     0.22064   0.01872   0.69277   0.00000  Uiso   1.00
C144   C     0.02341   0.57626   0.69413   0.00000  Uiso   1.00
C145   C     0.98864   0.50939   0.61800   0.00000  Uiso   1.00
C146   C     0.89329   0.48534   0.59788   0.00000  Uiso   1.00
C147   C     0.74392   0.42218   0.53624   0.00000  Uiso   1.00
C148   C     0.14291   0.59743   0.82865   0.00000  Uiso   1.00
C149   C     0.20860   0.54834   0.86563   0.00000  Uiso   1.00
C150   C     0.21385   0.54210   0.95877   0.00000  Uiso   1.00
C151   C     0.25002   0.51181   0.10599   0.00000  Uiso   1.00
C152   C     0.01783   0.68903   0.82818   0.00000  Uiso   1.00
C153   C     0.07759   0.75846   0.78522   0.00000  Uiso   1.00
C154   C     0.07691   0.85292   0.79630   0.00000  Uiso   1.00
C155   C     0.13677   0.90461   0.75127   0.00000  Uiso   1.00
C156   C     0.96502   0.61762   0.74825   0.00000  Uiso   1.00
C157   C     0.86970   0.59366   0.72824   0.00000  Uiso   1.00
C158   C     0.83479   0.52678   0.65210   0.00000  Uiso   1.00
C159   C     0.08453   0.63880   0.88278   0.00000  Uiso   1.00
C160   C     0.08967   0.63262   0.97587   0.00000  Uiso   1.00
C161   C     0.15535   0.58354   0.01299   0.00000  Uiso   1.00
H162   H     0.17078   0.58065   0.68640   0.00000  Uiso   1.00
H163   H     0.24101   0.73662   0.64417   0.00000  Uiso   1.00
H164   H     0.03384   0.47739   0.57614   0.00000  Uiso   1.00
H165   H     0.25377   0.51634   0.82373   0.00000  Uiso   1.00
H166   H     0.29311   0.92777   0.62119   0.00000  Uiso   1.00
H167   H     0.85627   0.38115   0.47776   0.00000  Uiso   1.00
H168   H     0.32004   0.46328   0.99985   0.00000  Uiso   1.00
H169   H     0.97237   0.72123   0.87032   0.00000  Uiso   1.00
H170   H     0.03172   0.88492   0.83818   0.00000  Uiso   1.00
H171   H     0.82454   0.62568   0.77014   0.00000  Uiso   1.00
H172   H     0.04447   0.66464   0.01773   0.00000  Uiso   1.00
H173   H     0.12323   0.04813   0.77866   0.00000  Uiso   1.00
H174   H     0.68639   0.50150   0.63522   0.00000  Uiso   1.00
H175   H     0.15016   0.58365   0.15731   0.00000  Uiso   1.00
O176   O     0.25077   0.09309   0.67544   0.00000  Uiso   1.00
O177   O     0.67766   0.37593   0.48727   0.00000  Uiso   1.00
O178   O     0.28611   0.48369   0.17224   0.00000  Uiso   1.00
N179   N     0.24499   0.93364   0.66268   0.00000  Uiso   1.00
N180   N     0.83658   0.42259   0.52856   0.00000  Uiso   1.00
N181   N     0.27014   0.49936   0.01667   0.00000  Uiso   1.00
N182   N     0.15359   0.99840   0.74741   0.00000  Uiso   1.00
N183   N     0.74517   0.48735   0.61329   0.00000  Uiso   1.00
N184   N     0.17874   0.56412   0.10140   0.00000  Uiso   1.00
C185   C     0.72824   0.12470   0.61308   0.00000  Uiso   1.00
C186   C     0.73082   0.13531   0.71720   0.00000  Uiso   1.00
C187   C     0.68566   0.19507   0.76866   0.00000  Uiso   1.00
C188   C     0.69669   0.19445   0.86307   0.00000  Uiso   1.00
C189   C     0.69240   0.21975   0.01844   0.00000  Uiso   1.00
C190   C     0.69376   0.02292   0.57654   0.00000  Uiso   1.00
C191   C     0.61745   0.98818   0.50974   0.00000  Uiso   1.00
C192   C     0.59728   0.89295   0.48574   0.00000  Uiso   1.00
C193   C     0.53549   0.74377   0.42268   0.00000  Uiso   1.00
C194   C     0.82859   0.14231   0.59770   0.00000  Uiso   1.00
C195   C     0.86565   0.20794   0.54866   0.00000  Uiso   1.00
C196   C     0.95901   0.21322   0.54245   0.00000  Uiso   1.00
C197   C     0.10657   0.24941   0.51224   0.00000  Uiso   1.00
C198   C     0.82812   0.01735   0.68924   0.00000  Uiso   1.00
C199   C     0.78507   0.07699   0.75856   0.00000  Uiso   1.00
C200   C     0.79617   0.07629   0.85292   0.00000  Uiso   1.00
C201   C     0.75104   0.13604   0.90451   0.00000  Uiso   1.00
C202   C     0.74800   0.96460   0.61790   0.00000  Uiso   1.00
C203   C     0.72795   0.86940   0.59399   0.00000  Uiso   1.00
C204   C     0.65163   0.83453   0.52717   0.00000  Uiso   1.00
C205   C     0.88285   0.08400   0.63906   0.00000  Uiso   1.00
C206   C     0.97616   0.08917   0.63292   0.00000  Uiso   1.00
C207   C     0.01336   0.15480   0.58388   0.00000  Uiso   1.00
H208   H     0.68600   0.17010   0.58088   0.00000  Uiso   1.00
H209   H     0.64368   0.24018   0.73662   0.00000  Uiso   1.00
H210   H     0.57548   0.03332   0.47774   0.00000  Uiso   1.00
H211   H     0.82365   0.25306   0.51666   0.00000  Uiso   1.00
H212   H     0.62065   0.29213   0.92754   0.00000  Uiso   1.00
H213   H     0.47687   0.85598   0.38163   0.00000  Uiso   1.00
H214   H     0.00019   0.31932   0.46370   0.00000  Uiso   1.00
H215   H     0.87036   0.97194   0.72144   0.00000  Uiso   1.00
H216   H     0.83816   0.03115   0.88491   0.00000  Uiso   1.00
H217   H     0.76995   0.82430   0.62601   0.00000  Uiso   1.00
H218   H     0.01812   0.04403   0.66494   0.00000  Uiso   1.00
H219   H     0.77849   0.12248   0.04789   0.00000  Uiso   1.00
H220   H     0.63471   0.68632   0.50197   0.00000  Uiso   1.00
H221   H     0.15802   0.14967   0.58405   0.00000  Uiso   1.00
O222   O     0.67503   0.24981   0.09270   0.00000  Uiso   1.00
O223   O     0.48641   0.67759   0.37648   0.00000  Uiso   1.00
O224   O     0.17298   0.28549   0.48416   0.00000  Uiso   1.00
N225   N     0.66223   0.24409   0.93343   0.00000  Uiso   1.00
N226   N     0.52780   0.83631   0.42305   0.00000  Uiso   1.00
N227   N     0.01705   0.26948   0.49976   0.00000  Uiso   1.00
N228   N     0.74717   0.15280   0.99819   0.00000  Uiso   1.00
N229   N     0.61273   0.74502   0.48781   0.00000  Uiso   1.00
N230   N     0.10198   0.17819   0.56452   0.00000  Uiso   1.00
C231   C     0.61258   0.72839   0.12416   0.00000  Uiso   1.00
C232   C     0.71694   0.73099   0.13479   0.00000  Uiso   1.00
C233   C     0.76853   0.68589   0.19452   0.00000  Uiso   1.00
C234   C     0.86316   0.69693   0.19393   0.00000  Uiso   1.00
C235   C     0.01889   0.69269   0.21927   0.00000  Uiso   1.00
C236   C     0.57595   0.69396   0.02249   0.00000  Uiso   1.00
C237   C     0.50899   0.61774   0.98779   0.00000  Uiso   1.00
C238   C     0.48493   0.59762   0.89267   0.00000  Uiso   1.00
C239   C     0.42172   0.53594   0.74365   0.00000  Uiso   1.00
C240   C     0.59715   0.82860   0.14171   0.00000  Uiso   1.00
C241   C     0.54800   0.86558   0.20723   0.00000  Uiso   1.00
C242   C     0.54177   0.95882   0.21247   0.00000  Uiso   1.00
C243   C     0.51149   0.10618   0.24855   0.00000  Uiso   1.00
C244   C     0.68890   0.82821   0.01692   0.00000  Uiso   1.00
C245   C     0.75839   0.78521   0.07654   0.00000  Uiso   1.00
C246   C     0.85297   0.79633   0.07586   0.00000  Uiso   1.00
C247   C     0.90469   0.75125   0.13558   0.00000  Uiso   1.00
C248   C     0.61740   0.74818   0.96424   0.00000  Uiso   1.00
C249   C     0.59343   0.72818   0.86914   0.00000  Uiso   1.00
C250   C     0.52646   0.65194   0.83431   0.00000  Uiso   1.00
C251   C     0.63861   0.88282   0.08345   0.00000  Uiso   1.00
C252   C     0.63245   0.97602   0.08858   0.00000  Uiso   1.00
C253   C     0.58330   0.01313   0.15411   0.00000  Uiso   1.00
H254   H     0.58030   0.68617   0.16951   0.00000  Uiso   1.00
H255   H     0.73641   0.64393   0.23958   0.00000  Uiso   1.00
H256   H     0.47691   0.57580   0.03289   0.00000  Uiso   1.00
H257   H     0.51593   0.82360   0.25230   0.00000  Uiso   1.00
H258   H     0.92778   0.62097   0.29156   0.00000  Uiso   1.00
H259   H     0.38058   0.47734   0.85574   0.00000  Uiso   1.00
H260   H     0.46284   0.99988   0.31841   0.00000  Uiso   1.00
H261   H     0.72118   0.87042   0.97156   0.00000  Uiso   1.00
H262   H     0.88503   0.83829   0.03078   0.00000  Uiso   1.00
H263   H     0.62553   0.77015   0.82408   0.00000  Uiso   1.00
H264   H     0.66454   0.01796   0.04349   0.00000  Uiso   1.00
H265   H     0.04840   0.77872   0.12208   0.00000  Uiso   1.00
H266   H     0.50120   0.63509   0.68626   0.00000  Uiso   1.00
H267   H     0.58347   0.15762   0.14893   0.00000  Uiso   1.00
O268   O     0.09333   0.67536   0.24932   0.00000  Uiso   1.00
O269   O     0.37541   0.48693   0.67755   0.00000  Uiso   1.00
O270   O     0.48335   0.17248   0.28456   0.00000  Uiso   1.00
N271   N     0.93368   0.66253   0.24356   0.00000  Uiso   1.00
N272   N     0.42209   0.52823   0.83609   0.00000  Uiso   1.00
N273   N     0.49898   0.01675   0.26863   0.00000  Uiso   1.00
N274   N     0.99859   0.74741   0.15237   0.00000  Uiso   1.00
N275   N     0.48700   0.61311   0.74490   0.00000  Uiso   1.00
N276   N     0.56389   0.10163   0.17744   0.00000  Uiso   1.00
