data_job_04733
_audit_creation_date              2018-12-19
_audit_creation_method            'Materials Studio'
_symmetry_space_group_name_H-M    'P1'
_symmetry_Int_Tables_number       1
_symmetry_cell_setting            triclinic
loop_
_symmetry_equiv_pos_as_xyz
  x,y,z
_cell_length_a                    13.6716
_cell_length_b                    8.8679
_cell_length_c                    24.9131
_cell_angle_alpha                 90.0000
_cell_angle_beta                  124.4300
_cell_angle_gamma                 90.0000
loop_
_atom_site_label
_atom_site_type_symbol
_atom_site_fract_x
_atom_site_fract_y
_atom_site_fract_z
_atom_site_U_iso_or_equiv
_atom_site_adp_type
_atom_site_occupancy
C1     C     0.17564   0.87390   0.92400   0.00000  Uiso   1.00
C2     C     0.21574   0.77034   0.89107   0.00000  Uiso   1.00
C3     C     0.22784   0.81114   0.84133   0.00000  Uiso   1.00
C4     C     0.26562   0.69998   0.81773   0.00000  Uiso   1.00
C5     C     0.32405   0.56146   0.76273   0.00000  Uiso   1.00
C6     C     0.06852   0.79734   0.91632   0.00000  Uiso   1.00
C7     C     0.95686   0.86087   0.88782   0.00000  Uiso   1.00
C8     C     0.87072   0.77244   0.88548   0.00000  Uiso   1.00
C9     C     0.70062   0.67589   0.86972   0.00000  Uiso   1.00
C10    C     0.27389   0.86899   0.99651   0.00000  Uiso   1.00
C11    C     0.33489   0.99276   0.03543   0.00000  Uiso   1.00
C12    C     0.42163   0.96466   0.10062   0.00000  Uiso   1.00
C13    C     0.57040   0.97936   0.20936   0.00000  Uiso   1.00
C14    C     0.22121   0.60392   0.97054   0.00000  Uiso   1.00
C15    C     0.24048   0.62369   0.91635   0.00000  Uiso   1.00
C16    C     0.27826   0.51244   0.89282   0.00000  Uiso   1.00
C17    C     0.29042   0.55307   0.84306   0.00000  Uiso   1.00
C18    C     0.09326   0.65071   0.94160   0.00000  Uiso   1.00
C19    C     0.00727   0.56217   0.93931   0.00000  Uiso   1.00
C20    C     0.89551   0.62553   0.91081   0.00000  Uiso   1.00
C21    C     0.29864   0.72235   0.02179   0.00000  Uiso   1.00
C22    C     0.38530   0.69405   0.08692   0.00000  Uiso   1.00
C23    C     0.44642   0.81775   0.12594   0.00000  Uiso   1.00
H24    H     0.15637   0.98806   0.90432   0.00000  Uiso   1.00
H25    H     0.20867   0.92463   0.82177   0.00000  Uiso   1.00
H26    H     0.93774   0.97435   0.86826   0.00000  Uiso   1.00
H27    H     0.31571   0.10622   0.01585   0.00000  Uiso   1.00
H28    H     0.27753   0.78963   0.74139   0.00000  Uiso   1.00
H29    H     0.70627   0.89448   0.83943   0.00000  Uiso   1.00
H30    H     0.50329   0.17256   0.15066   0.00000  Uiso   1.00
H31    H     0.24047   0.48975   0.99023   0.00000  Uiso   1.00
H32    H     0.29740   0.39897   0.91239   0.00000  Uiso   1.00
H33    H     0.02646   0.44869   0.95888   0.00000  Uiso   1.00
H34    H     0.40443   0.58056   0.10647   0.00000  Uiso   1.00
H35    H     0.34954   0.36298   0.81494   0.00000  Uiso   1.00
H36    H     0.77827   0.46784   0.91298   0.00000  Uiso   1.00
H37    H     0.57529   0.74591   0.22421   0.00000  Uiso   1.00
O38    O     0.34942   0.52556   0.72540   0.00000  Uiso   1.00
O39    O     0.59996   0.66315   0.85404   0.00000  Uiso   1.00
O40    O     0.64563   0.02797   0.26235   0.00000  Uiso   1.00
N41    N     0.28669   0.70168   0.76939   0.00000  Uiso   1.00
N42    N     0.75258   0.79971   0.86104   0.00000  Uiso   1.00
N43    N     0.49771   0.05969   0.15202   0.00000  Uiso   1.00
N44    N     0.32544   0.47210   0.80896   0.00000  Uiso   1.00
N45    N     0.79133   0.57013   0.90062   0.00000  Uiso   1.00
N46    N     0.53646   0.83011   0.19159   0.00000  Uiso   1.00
C47    C     0.82436   0.37390   0.57600   0.00000  Uiso   1.00
C48    C     0.78426   0.27034   0.60893   0.00000  Uiso   1.00
C49    C     0.77216   0.31114   0.65867   0.00000  Uiso   1.00
C50    C     0.73438   0.19998   0.68227   0.00000  Uiso   1.00
C51    C     0.67595   0.06146   0.73727   0.00000  Uiso   1.00
C52    C     0.93148   0.29734   0.58368   0.00000  Uiso   1.00
C53    C     0.04314   0.36087   0.61218   0.00000  Uiso   1.00
C54    C     0.12928   0.27244   0.61452   0.00000  Uiso   1.00
C55    C     0.29938   0.17589   0.63028   0.00000  Uiso   1.00
C56    C     0.72611   0.36899   0.50349   0.00000  Uiso   1.00
C57    C     0.66511   0.49276   0.46457   0.00000  Uiso   1.00
C58    C     0.57837   0.46466   0.39938   0.00000  Uiso   1.00
C59    C     0.42960   0.47936   0.29064   0.00000  Uiso   1.00
C60    C     0.77879   0.10392   0.52946   0.00000  Uiso   1.00
C61    C     0.75952   0.12369   0.58365   0.00000  Uiso   1.00
C62    C     0.72174   0.01244   0.60718   0.00000  Uiso   1.00
C63    C     0.70958   0.05307   0.65694   0.00000  Uiso   1.00
C64    C     0.90674   0.15071   0.55840   0.00000  Uiso   1.00
C65    C     0.99273   0.06217   0.56069   0.00000  Uiso   1.00
C66    C     0.10449   0.12553   0.58919   0.00000  Uiso   1.00
C67    C     0.70136   0.22235   0.47821   0.00000  Uiso   1.00
C68    C     0.61470   0.19405   0.41308   0.00000  Uiso   1.00
C69    C     0.55358   0.31775   0.37406   0.00000  Uiso   1.00
H70    H     0.84363   0.48806   0.59568   0.00000  Uiso   1.00
H71    H     0.79133   0.42463   0.67823   0.00000  Uiso   1.00
H72    H     0.06226   0.47435   0.63174   0.00000  Uiso   1.00
H73    H     0.68429   0.60622   0.48415   0.00000  Uiso   1.00
H74    H     0.72247   0.28963   0.75861   0.00000  Uiso   1.00
H75    H     0.29373   0.39448   0.66057   0.00000  Uiso   1.00
H76    H     0.49671   0.67256   0.34934   0.00000  Uiso   1.00
H77    H     0.75953   0.98975   0.50977   0.00000  Uiso   1.00
H78    H     0.70260   0.89897   0.58761   0.00000  Uiso   1.00
H79    H     0.97354   0.94869   0.54112   0.00000  Uiso   1.00
H80    H     0.59557   0.08056   0.39353   0.00000  Uiso   1.00
H81    H     0.65046   0.86298   0.68506   0.00000  Uiso   1.00
H82    H     0.22173   0.96784   0.58702   0.00000  Uiso   1.00
H83    H     0.42471   0.24591   0.27579   0.00000  Uiso   1.00
O84    O     0.65058   0.02556   0.77460   0.00000  Uiso   1.00
O85    O     0.40004   0.16315   0.64596   0.00000  Uiso   1.00
O86    O     0.35437   0.52797   0.23765   0.00000  Uiso   1.00
N87    N     0.71331   0.20168   0.73061   0.00000  Uiso   1.00
N88    N     0.24742   0.29971   0.63896   0.00000  Uiso   1.00
N89    N     0.50229   0.55969   0.34798   0.00000  Uiso   1.00
N90    N     0.67456   0.97210   0.69104   0.00000  Uiso   1.00
N91    N     0.20867   0.07013   0.59938   0.00000  Uiso   1.00
N92    N     0.46354   0.33011   0.30841   0.00000  Uiso   1.00
C93    C     0.82436   0.12610   0.07600   0.00000  Uiso   1.00
C94    C     0.78426   0.22966   0.10893   0.00000  Uiso   1.00
C95    C     0.77216   0.18886   0.15867   0.00000  Uiso   1.00
C96    C     0.73438   0.30002   0.18227   0.00000  Uiso   1.00
C97    C     0.67595   0.43854   0.23727   0.00000  Uiso   1.00
C98    C     0.93148   0.20266   0.08368   0.00000  Uiso   1.00
C99    C     0.04314   0.13913   0.11218   0.00000  Uiso   1.00
C100   C     0.12928   0.22756   0.11452   0.00000  Uiso   1.00
C101   C     0.29938   0.32411   0.13028   0.00000  Uiso   1.00
C102   C     0.72611   0.13101   0.00349   0.00000  Uiso   1.00
C103   C     0.66511   0.00724   0.96457   0.00000  Uiso   1.00
C104   C     0.57837   0.03534   0.89938   0.00000  Uiso   1.00
C105   C     0.42960   0.02064   0.79064   0.00000  Uiso   1.00
C106   C     0.77879   0.39608   0.02946   0.00000  Uiso   1.00
C107   C     0.75952   0.37631   0.08365   0.00000  Uiso   1.00
C108   C     0.72174   0.48756   0.10718   0.00000  Uiso   1.00
C109   C     0.70958   0.44693   0.15694   0.00000  Uiso   1.00
C110   C     0.90674   0.34929   0.05840   0.00000  Uiso   1.00
C111   C     0.99273   0.43783   0.06069   0.00000  Uiso   1.00
C112   C     0.10449   0.37447   0.08919   0.00000  Uiso   1.00
C113   C     0.70136   0.27765   0.97821   0.00000  Uiso   1.00
C114   C     0.61470   0.30595   0.91308   0.00000  Uiso   1.00
C115   C     0.55358   0.18225   0.87406   0.00000  Uiso   1.00
H116   H     0.84363   0.01194   0.09568   0.00000  Uiso   1.00
H117   H     0.79133   0.07537   0.17823   0.00000  Uiso   1.00
H118   H     0.06226   0.02565   0.13174   0.00000  Uiso   1.00
H119   H     0.68429   0.89378   0.98415   0.00000  Uiso   1.00
H120   H     0.72247   0.21037   0.25861   0.00000  Uiso   1.00
H121   H     0.29373   0.10552   0.16057   0.00000  Uiso   1.00
H122   H     0.49671   0.82744   0.84934   0.00000  Uiso   1.00
H123   H     0.75953   0.51025   0.00977   0.00000  Uiso   1.00
H124   H     0.70260   0.60103   0.08761   0.00000  Uiso   1.00
H125   H     0.97354   0.55131   0.04112   0.00000  Uiso   1.00
H126   H     0.59557   0.41944   0.89353   0.00000  Uiso   1.00
H127   H     0.65046   0.63702   0.18506   0.00000  Uiso   1.00
H128   H     0.22173   0.53216   0.08702   0.00000  Uiso   1.00
H129   H     0.42471   0.25409   0.77579   0.00000  Uiso   1.00
O130   O     0.65058   0.47444   0.27460   0.00000  Uiso   1.00
O131   O     0.40004   0.33685   0.14596   0.00000  Uiso   1.00
O132   O     0.35437   0.97203   0.73765   0.00000  Uiso   1.00
N133   N     0.71331   0.29832   0.23061   0.00000  Uiso   1.00
N134   N     0.24742   0.20029   0.13896   0.00000  Uiso   1.00
N135   N     0.50229   0.94031   0.84798   0.00000  Uiso   1.00
N136   N     0.67456   0.52790   0.19104   0.00000  Uiso   1.00
N137   N     0.20867   0.42987   0.09938   0.00000  Uiso   1.00
N138   N     0.46354   0.16989   0.80841   0.00000  Uiso   1.00
C139   C     0.17564   0.62610   0.42400   0.00000  Uiso   1.00
C140   C     0.21574   0.72966   0.39107   0.00000  Uiso   1.00
C141   C     0.22784   0.68886   0.34133   0.00000  Uiso   1.00
C142   C     0.26562   0.80002   0.31773   0.00000  Uiso   1.00
C143   C     0.32405   0.93854   0.26273   0.00000  Uiso   1.00
C144   C     0.06852   0.70266   0.41632   0.00000  Uiso   1.00
C145   C     0.95686   0.63913   0.38782   0.00000  Uiso   1.00
C146   C     0.87072   0.72756   0.38548   0.00000  Uiso   1.00
C147   C     0.70062   0.82411   0.36972   0.00000  Uiso   1.00
C148   C     0.27389   0.63101   0.49651   0.00000  Uiso   1.00
C149   C     0.33489   0.50724   0.53543   0.00000  Uiso   1.00
C150   C     0.42163   0.53534   0.60062   0.00000  Uiso   1.00
C151   C     0.57040   0.52064   0.70936   0.00000  Uiso   1.00
C152   C     0.22121   0.89608   0.47054   0.00000  Uiso   1.00
C153   C     0.24048   0.87631   0.41635   0.00000  Uiso   1.00
C154   C     0.27826   0.98756   0.39282   0.00000  Uiso   1.00
C155   C     0.29042   0.94693   0.34306   0.00000  Uiso   1.00
C156   C     0.09326   0.84929   0.44160   0.00000  Uiso   1.00
C157   C     0.00727   0.93783   0.43931   0.00000  Uiso   1.00
C158   C     0.89551   0.87447   0.41081   0.00000  Uiso   1.00
C159   C     0.29864   0.77765   0.52179   0.00000  Uiso   1.00
C160   C     0.38530   0.80595   0.58692   0.00000  Uiso   1.00
C161   C     0.44642   0.68225   0.62594   0.00000  Uiso   1.00
H162   H     0.15637   0.51194   0.40432   0.00000  Uiso   1.00
H163   H     0.20867   0.57537   0.32177   0.00000  Uiso   1.00
H164   H     0.93774   0.52565   0.36826   0.00000  Uiso   1.00
H165   H     0.31571   0.39378   0.51585   0.00000  Uiso   1.00
H166   H     0.27753   0.71037   0.24139   0.00000  Uiso   1.00
H167   H     0.70627   0.60552   0.33943   0.00000  Uiso   1.00
H168   H     0.50329   0.32744   0.65066   0.00000  Uiso   1.00
H169   H     0.24047   0.01025   0.49023   0.00000  Uiso   1.00
H170   H     0.29740   0.10103   0.41239   0.00000  Uiso   1.00
H171   H     0.02646   0.05131   0.45888   0.00000  Uiso   1.00
H172   H     0.40443   0.91944   0.60647   0.00000  Uiso   1.00
H173   H     0.34954   0.13702   0.31494   0.00000  Uiso   1.00
H174   H     0.77827   0.03216   0.41298   0.00000  Uiso   1.00
H175   H     0.57529   0.75409   0.72421   0.00000  Uiso   1.00
O176   O     0.34942   0.97444   0.22540   0.00000  Uiso   1.00
O177   O     0.59996   0.83685   0.35404   0.00000  Uiso   1.00
O178   O     0.64563   0.47203   0.76235   0.00000  Uiso   1.00
N179   N     0.28669   0.79832   0.26939   0.00000  Uiso   1.00
N180   N     0.75258   0.70029   0.36104   0.00000  Uiso   1.00
N181   N     0.49771   0.44031   0.65202   0.00000  Uiso   1.00
N182   N     0.32544   0.02790   0.30896   0.00000  Uiso   1.00
N183   N     0.79133   0.92987   0.40062   0.00000  Uiso   1.00
N184   N     0.53646   0.66989   0.69159   0.00000  Uiso   1.00
