data_job_05209
_audit_creation_date              2018-12-19
_audit_creation_method            'Materials Studio'
_symmetry_space_group_name_H-M    'P1'
_symmetry_Int_Tables_number       1
_symmetry_cell_setting            triclinic
loop_
_symmetry_equiv_pos_as_xyz
  x,y,z
_cell_length_a                    27.0919
_cell_length_b                    14.0433
_cell_length_c                    12.3303
_cell_angle_alpha                 90.0000
_cell_angle_beta                  90.0000
_cell_angle_gamma                 90.0000
loop_
_atom_site_label
_atom_site_type_symbol
_atom_site_fract_x
_atom_site_fract_y
_atom_site_fract_z
_atom_site_U_iso_or_equiv
_atom_site_adp_type
_atom_site_occupancy
C1     C     0.82162   0.50944   0.53469   0.00000  Uiso   1.00
C2     C     0.86080   0.47137   0.61218   0.00000  Uiso   1.00
C3     C     0.85186   0.41852   0.70523   0.00000  Uiso   1.00
C4     C     0.89270   0.39039   0.76525   0.00000  Uiso   1.00
C5     C     0.94623   0.32767   0.89046   0.00000  Uiso   1.00
C6     C     0.82983   0.61673   0.52853   0.00000  Uiso   1.00
C7     C     0.79484   0.68611   0.55125   0.00000  Uiso   1.00
C8     C     0.80960   0.78035   0.54083   0.00000  Uiso   1.00
C9     C     0.81503   0.94332   0.53610   0.00000  Uiso   1.00
C10    C     0.83483   0.47039   0.42301   0.00000  Uiso   1.00
C11    C     0.80404   0.41674   0.35698   0.00000  Uiso   1.00
C12    C     0.82301   0.38777   0.25771   0.00000  Uiso   1.00
C13    C     0.83621   0.32352   0.08914   0.00000  Uiso   1.00
C14    C     0.91004   0.55344   0.47579   0.00000  Uiso   1.00
C15    C     0.90883   0.49527   0.58018   0.00000  Uiso   1.00
C16    C     0.94969   0.46720   0.64006   0.00000  Uiso   1.00
C17    C     0.94081   0.41432   0.73319   0.00000  Uiso   1.00
C18    C     0.87785   0.64063   0.49654   0.00000  Uiso   1.00
C19    C     0.89267   0.73479   0.48607   0.00000  Uiso   1.00
C20    C     0.85772   0.80429   0.50878   0.00000  Uiso   1.00
C21    C     0.88286   0.49428   0.39101   0.00000  Uiso   1.00
C22    C     0.90187   0.46541   0.29182   0.00000  Uiso   1.00
C23    C     0.87113   0.41172   0.22565   0.00000  Uiso   1.00
H24    H     0.78423   0.49085   0.55960   0.00000  Uiso   1.00
H25    H     0.81469   0.40005   0.72997   0.00000  Uiso   1.00
H26    H     0.75768   0.66760   0.57599   0.00000  Uiso   1.00
H27    H     0.76688   0.39826   0.38177   0.00000  Uiso   1.00
H28    H     0.86964   0.30996   0.90477   0.00000  Uiso   1.00
H29    H     0.74942   0.87410   0.58007   0.00000  Uiso   1.00
H30    H     0.76883   0.30614   0.17050   0.00000  Uiso   1.00
H31    H     0.94744   0.57204   0.45088   0.00000  Uiso   1.00
H32    H     0.98685   0.48570   0.61528   0.00000  Uiso   1.00
H33    H     0.92984   0.75325   0.46131   0.00000  Uiso   1.00
H34    H     0.93904   0.48391   0.26708   0.00000  Uiso   1.00
H35    H     0.00937   0.37948   0.81169   0.00000  Uiso   1.00
H36    H     0.88915   0.94362   0.48698   0.00000  Uiso   1.00
H37    H     0.90856   0.37566   0.07741   0.00000  Uiso   1.00
O38    O     0.96248   0.28649   0.96837   0.00000  Uiso   1.00
O39    O     0.80476   0.02661   0.54234   0.00000  Uiso   1.00
O40    O     0.83022   0.28146   0.00500   0.00000  Uiso   1.00
N41    N     0.89711   0.33816   0.86029   0.00000  Uiso   1.00
N42    N     0.78472   0.86559   0.55673   0.00000  Uiso   1.00
N43    N     0.80286   0.33462   0.17380   0.00000  Uiso   1.00
N44    N     0.97230   0.37556   0.81020   0.00000  Uiso   1.00
N45    N     0.85991   0.90300   0.50664   0.00000  Uiso   1.00
N46    N     0.87805   0.37203   0.12371   0.00000  Uiso   1.00
C47    C     0.67838   0.49056   0.53469   0.00000  Uiso   1.00
C48    C     0.63920   0.52863   0.61218   0.00000  Uiso   1.00
C49    C     0.64814   0.58148   0.70523   0.00000  Uiso   1.00
C50    C     0.60730   0.60961   0.76525   0.00000  Uiso   1.00
C51    C     0.55377   0.67233   0.89046   0.00000  Uiso   1.00
C52    C     0.67017   0.38327   0.52853   0.00000  Uiso   1.00
C53    C     0.70516   0.31389   0.55125   0.00000  Uiso   1.00
C54    C     0.69040   0.21965   0.54083   0.00000  Uiso   1.00
C55    C     0.68497   0.05668   0.53610   0.00000  Uiso   1.00
C56    C     0.66517   0.52961   0.42301   0.00000  Uiso   1.00
C57    C     0.69596   0.58326   0.35698   0.00000  Uiso   1.00
C58    C     0.67699   0.61223   0.25771   0.00000  Uiso   1.00
C59    C     0.66379   0.67648   0.08914   0.00000  Uiso   1.00
C60    C     0.58996   0.44656   0.47579   0.00000  Uiso   1.00
C61    C     0.59117   0.50473   0.58018   0.00000  Uiso   1.00
C62    C     0.55031   0.53280   0.64006   0.00000  Uiso   1.00
C63    C     0.55919   0.58568   0.73319   0.00000  Uiso   1.00
C64    C     0.62215   0.35937   0.49654   0.00000  Uiso   1.00
C65    C     0.60733   0.26521   0.48607   0.00000  Uiso   1.00
C66    C     0.64228   0.19571   0.50878   0.00000  Uiso   1.00
C67    C     0.61714   0.50572   0.39101   0.00000  Uiso   1.00
C68    C     0.59813   0.53459   0.29182   0.00000  Uiso   1.00
C69    C     0.62887   0.58828   0.22565   0.00000  Uiso   1.00
H70    H     0.71577   0.50915   0.55960   0.00000  Uiso   1.00
H71    H     0.68531   0.59995   0.72997   0.00000  Uiso   1.00
H72    H     0.74232   0.33240   0.57599   0.00000  Uiso   1.00
H73    H     0.73312   0.60174   0.38177   0.00000  Uiso   1.00
H74    H     0.63036   0.69004   0.90477   0.00000  Uiso   1.00
H75    H     0.75058   0.12590   0.58007   0.00000  Uiso   1.00
H76    H     0.73117   0.69386   0.17050   0.00000  Uiso   1.00
H77    H     0.55256   0.42796   0.45088   0.00000  Uiso   1.00
H78    H     0.51315   0.51430   0.61528   0.00000  Uiso   1.00
H79    H     0.57016   0.24675   0.46131   0.00000  Uiso   1.00
H80    H     0.56096   0.51609   0.26708   0.00000  Uiso   1.00
H81    H     0.49063   0.62052   0.81169   0.00000  Uiso   1.00
H82    H     0.61085   0.05638   0.48698   0.00000  Uiso   1.00
H83    H     0.59144   0.62434   0.07741   0.00000  Uiso   1.00
O84    O     0.53752   0.71351   0.96837   0.00000  Uiso   1.00
O85    O     0.69524   0.97339   0.54234   0.00000  Uiso   1.00
O86    O     0.66978   0.71854   0.00500   0.00000  Uiso   1.00
N87    N     0.60289   0.66184   0.86029   0.00000  Uiso   1.00
N88    N     0.71528   0.13441   0.55673   0.00000  Uiso   1.00
N89    N     0.69714   0.66538   0.17380   0.00000  Uiso   1.00
N90    N     0.52770   0.62444   0.81020   0.00000  Uiso   1.00
N91    N     0.64009   0.09700   0.50664   0.00000  Uiso   1.00
N92    N     0.62195   0.62797   0.12371   0.00000  Uiso   1.00
C93    C     0.67838   0.00944   0.96531   0.00000  Uiso   1.00
C94    C     0.63920   0.97137   0.88782   0.00000  Uiso   1.00
C95    C     0.64814   0.91852   0.79477   0.00000  Uiso   1.00
C96    C     0.60730   0.89039   0.73475   0.00000  Uiso   1.00
C97    C     0.55377   0.82767   0.60954   0.00000  Uiso   1.00
C98    C     0.67017   0.11673   0.97147   0.00000  Uiso   1.00
C99    C     0.70516   0.18611   0.94875   0.00000  Uiso   1.00
C100   C     0.69040   0.28035   0.95917   0.00000  Uiso   1.00
C101   C     0.68497   0.44332   0.96390   0.00000  Uiso   1.00
C102   C     0.66517   0.97039   0.07699   0.00000  Uiso   1.00
C103   C     0.69596   0.91674   0.14302   0.00000  Uiso   1.00
C104   C     0.67699   0.88777   0.24229   0.00000  Uiso   1.00
C105   C     0.66379   0.82352   0.41086   0.00000  Uiso   1.00
C106   C     0.58996   0.05344   0.02421   0.00000  Uiso   1.00
C107   C     0.59117   0.99527   0.91982   0.00000  Uiso   1.00
C108   C     0.55031   0.96720   0.85994   0.00000  Uiso   1.00
C109   C     0.55919   0.91432   0.76681   0.00000  Uiso   1.00
C110   C     0.62215   0.14063   0.00346   0.00000  Uiso   1.00
C111   C     0.60733   0.23479   0.01393   0.00000  Uiso   1.00
C112   C     0.64228   0.30429   0.99122   0.00000  Uiso   1.00
C113   C     0.61714   0.99428   0.10899   0.00000  Uiso   1.00
C114   C     0.59813   0.96541   0.20818   0.00000  Uiso   1.00
C115   C     0.62887   0.91172   0.27435   0.00000  Uiso   1.00
H116   H     0.71577   0.99085   0.94040   0.00000  Uiso   1.00
H117   H     0.68531   0.90005   0.77003   0.00000  Uiso   1.00
H118   H     0.74232   0.16760   0.92401   0.00000  Uiso   1.00
H119   H     0.73312   0.89826   0.11823   0.00000  Uiso   1.00
H120   H     0.63036   0.80996   0.59523   0.00000  Uiso   1.00
H121   H     0.75058   0.37410   0.91993   0.00000  Uiso   1.00
H122   H     0.73117   0.80614   0.32950   0.00000  Uiso   1.00
H123   H     0.55256   0.07204   0.04912   0.00000  Uiso   1.00
H124   H     0.51315   0.98570   0.88472   0.00000  Uiso   1.00
H125   H     0.57016   0.25325   0.03869   0.00000  Uiso   1.00
H126   H     0.56096   0.98391   0.23292   0.00000  Uiso   1.00
H127   H     0.49063   0.87948   0.68831   0.00000  Uiso   1.00
H128   H     0.61085   0.44362   0.01302   0.00000  Uiso   1.00
H129   H     0.59144   0.87566   0.42259   0.00000  Uiso   1.00
O130   O     0.53752   0.78649   0.53163   0.00000  Uiso   1.00
O131   O     0.69524   0.52661   0.95766   0.00000  Uiso   1.00
O132   O     0.66978   0.78146   0.49500   0.00000  Uiso   1.00
N133   N     0.60289   0.83816   0.63971   0.00000  Uiso   1.00
N134   N     0.71528   0.36559   0.94327   0.00000  Uiso   1.00
N135   N     0.69714   0.83462   0.32620   0.00000  Uiso   1.00
N136   N     0.52770   0.87556   0.68980   0.00000  Uiso   1.00
N137   N     0.64009   0.40300   0.99336   0.00000  Uiso   1.00
N138   N     0.62195   0.87203   0.37629   0.00000  Uiso   1.00
C139   C     0.82162   0.99056   0.96531   0.00000  Uiso   1.00
C140   C     0.86080   0.02863   0.88782   0.00000  Uiso   1.00
C141   C     0.85186   0.08148   0.79477   0.00000  Uiso   1.00
C142   C     0.89270   0.10961   0.73475   0.00000  Uiso   1.00
C143   C     0.94623   0.17233   0.60954   0.00000  Uiso   1.00
C144   C     0.82983   0.88327   0.97147   0.00000  Uiso   1.00
C145   C     0.79484   0.81389   0.94875   0.00000  Uiso   1.00
C146   C     0.80960   0.71965   0.95917   0.00000  Uiso   1.00
C147   C     0.81503   0.55668   0.96390   0.00000  Uiso   1.00
C148   C     0.83483   0.02961   0.07699   0.00000  Uiso   1.00
C149   C     0.80404   0.08326   0.14302   0.00000  Uiso   1.00
C150   C     0.82301   0.11223   0.24229   0.00000  Uiso   1.00
C151   C     0.83621   0.17648   0.41086   0.00000  Uiso   1.00
C152   C     0.91004   0.94656   0.02421   0.00000  Uiso   1.00
C153   C     0.90883   0.00473   0.91982   0.00000  Uiso   1.00
C154   C     0.94969   0.03280   0.85994   0.00000  Uiso   1.00
C155   C     0.94081   0.08568   0.76681   0.00000  Uiso   1.00
C156   C     0.87785   0.85937   0.00346   0.00000  Uiso   1.00
C157   C     0.89267   0.76521   0.01393   0.00000  Uiso   1.00
C158   C     0.85772   0.69571   0.99122   0.00000  Uiso   1.00
C159   C     0.88286   0.00572   0.10899   0.00000  Uiso   1.00
C160   C     0.90187   0.03459   0.20818   0.00000  Uiso   1.00
C161   C     0.87113   0.08828   0.27435   0.00000  Uiso   1.00
H162   H     0.78423   0.00915   0.94040   0.00000  Uiso   1.00
H163   H     0.81469   0.09995   0.77003   0.00000  Uiso   1.00
H164   H     0.75768   0.83240   0.92401   0.00000  Uiso   1.00
H165   H     0.76688   0.10174   0.11823   0.00000  Uiso   1.00
H166   H     0.86964   0.19004   0.59523   0.00000  Uiso   1.00
H167   H     0.74942   0.62590   0.91993   0.00000  Uiso   1.00
H168   H     0.76883   0.19386   0.32950   0.00000  Uiso   1.00
H169   H     0.94744   0.92796   0.04912   0.00000  Uiso   1.00
H170   H     0.98685   0.01430   0.88472   0.00000  Uiso   1.00
H171   H     0.92984   0.74675   0.03869   0.00000  Uiso   1.00
H172   H     0.93904   0.01609   0.23292   0.00000  Uiso   1.00
H173   H     0.00937   0.12052   0.68831   0.00000  Uiso   1.00
H174   H     0.88915   0.55638   0.01302   0.00000  Uiso   1.00
H175   H     0.90856   0.12434   0.42259   0.00000  Uiso   1.00
O176   O     0.96248   0.21351   0.53163   0.00000  Uiso   1.00
O177   O     0.80476   0.47339   0.95766   0.00000  Uiso   1.00
O178   O     0.83022   0.21854   0.49500   0.00000  Uiso   1.00
N179   N     0.89711   0.16184   0.63971   0.00000  Uiso   1.00
N180   N     0.78472   0.63441   0.94327   0.00000  Uiso   1.00
N181   N     0.80286   0.16538   0.32620   0.00000  Uiso   1.00
N182   N     0.97230   0.12444   0.68980   0.00000  Uiso   1.00
N183   N     0.85991   0.59700   0.99336   0.00000  Uiso   1.00
N184   N     0.87805   0.12797   0.37629   0.00000  Uiso   1.00
C185   C     0.17838   0.49056   0.46531   0.00000  Uiso   1.00
C186   C     0.13920   0.52863   0.38782   0.00000  Uiso   1.00
C187   C     0.14814   0.58148   0.29477   0.00000  Uiso   1.00
C188   C     0.10730   0.60961   0.23475   0.00000  Uiso   1.00
C189   C     0.05377   0.67233   0.10954   0.00000  Uiso   1.00
C190   C     0.17017   0.38327   0.47147   0.00000  Uiso   1.00
C191   C     0.20516   0.31389   0.44875   0.00000  Uiso   1.00
C192   C     0.19040   0.21965   0.45917   0.00000  Uiso   1.00
C193   C     0.18497   0.05668   0.46390   0.00000  Uiso   1.00
C194   C     0.16517   0.52961   0.57699   0.00000  Uiso   1.00
C195   C     0.19596   0.58326   0.64302   0.00000  Uiso   1.00
C196   C     0.17699   0.61223   0.74229   0.00000  Uiso   1.00
C197   C     0.16379   0.67648   0.91086   0.00000  Uiso   1.00
C198   C     0.08996   0.44656   0.52421   0.00000  Uiso   1.00
C199   C     0.09117   0.50473   0.41982   0.00000  Uiso   1.00
C200   C     0.05031   0.53280   0.35994   0.00000  Uiso   1.00
C201   C     0.05919   0.58568   0.26681   0.00000  Uiso   1.00
C202   C     0.12215   0.35937   0.50346   0.00000  Uiso   1.00
C203   C     0.10733   0.26521   0.51393   0.00000  Uiso   1.00
C204   C     0.14228   0.19571   0.49122   0.00000  Uiso   1.00
C205   C     0.11714   0.50572   0.60899   0.00000  Uiso   1.00
C206   C     0.09813   0.53459   0.70818   0.00000  Uiso   1.00
C207   C     0.12887   0.58828   0.77435   0.00000  Uiso   1.00
H208   H     0.21577   0.50915   0.44040   0.00000  Uiso   1.00
H209   H     0.18531   0.59995   0.27003   0.00000  Uiso   1.00
H210   H     0.24232   0.33240   0.42401   0.00000  Uiso   1.00
H211   H     0.23312   0.60174   0.61823   0.00000  Uiso   1.00
H212   H     0.13036   0.69004   0.09523   0.00000  Uiso   1.00
H213   H     0.25058   0.12590   0.41993   0.00000  Uiso   1.00
H214   H     0.23117   0.69386   0.82950   0.00000  Uiso   1.00
H215   H     0.05256   0.42796   0.54912   0.00000  Uiso   1.00
H216   H     0.01315   0.51430   0.38472   0.00000  Uiso   1.00
H217   H     0.07016   0.24675   0.53869   0.00000  Uiso   1.00
H218   H     0.06096   0.51609   0.73292   0.00000  Uiso   1.00
H219   H     0.99063   0.62052   0.18831   0.00000  Uiso   1.00
H220   H     0.11085   0.05638   0.51302   0.00000  Uiso   1.00
H221   H     0.09144   0.62434   0.92259   0.00000  Uiso   1.00
O222   O     0.03752   0.71351   0.03163   0.00000  Uiso   1.00
O223   O     0.19524   0.97339   0.45766   0.00000  Uiso   1.00
O224   O     0.16978   0.71854   0.99500   0.00000  Uiso   1.00
N225   N     0.10289   0.66184   0.13971   0.00000  Uiso   1.00
N226   N     0.21528   0.13441   0.44327   0.00000  Uiso   1.00
N227   N     0.19714   0.66538   0.82620   0.00000  Uiso   1.00
N228   N     0.02770   0.62444   0.18980   0.00000  Uiso   1.00
N229   N     0.14009   0.09700   0.49336   0.00000  Uiso   1.00
N230   N     0.12195   0.62797   0.87629   0.00000  Uiso   1.00
C231   C     0.32162   0.50944   0.46531   0.00000  Uiso   1.00
C232   C     0.36080   0.47137   0.38782   0.00000  Uiso   1.00
C233   C     0.35186   0.41852   0.29477   0.00000  Uiso   1.00
C234   C     0.39270   0.39039   0.23475   0.00000  Uiso   1.00
C235   C     0.44623   0.32767   0.10954   0.00000  Uiso   1.00
C236   C     0.32983   0.61673   0.47147   0.00000  Uiso   1.00
C237   C     0.29484   0.68611   0.44875   0.00000  Uiso   1.00
C238   C     0.30960   0.78035   0.45917   0.00000  Uiso   1.00
C239   C     0.31503   0.94332   0.46390   0.00000  Uiso   1.00
C240   C     0.33483   0.47039   0.57699   0.00000  Uiso   1.00
C241   C     0.30404   0.41674   0.64302   0.00000  Uiso   1.00
C242   C     0.32301   0.38777   0.74229   0.00000  Uiso   1.00
C243   C     0.33621   0.32352   0.91086   0.00000  Uiso   1.00
C244   C     0.41004   0.55344   0.52421   0.00000  Uiso   1.00
C245   C     0.40883   0.49527   0.41982   0.00000  Uiso   1.00
C246   C     0.44969   0.46720   0.35994   0.00000  Uiso   1.00
C247   C     0.44081   0.41432   0.26681   0.00000  Uiso   1.00
C248   C     0.37785   0.64063   0.50346   0.00000  Uiso   1.00
C249   C     0.39267   0.73479   0.51393   0.00000  Uiso   1.00
C250   C     0.35772   0.80429   0.49122   0.00000  Uiso   1.00
C251   C     0.38286   0.49428   0.60899   0.00000  Uiso   1.00
C252   C     0.40187   0.46541   0.70818   0.00000  Uiso   1.00
C253   C     0.37113   0.41172   0.77435   0.00000  Uiso   1.00
H254   H     0.28423   0.49085   0.44040   0.00000  Uiso   1.00
H255   H     0.31469   0.40005   0.27003   0.00000  Uiso   1.00
H256   H     0.25768   0.66760   0.42401   0.00000  Uiso   1.00
H257   H     0.26688   0.39826   0.61823   0.00000  Uiso   1.00
H258   H     0.36964   0.30996   0.09523   0.00000  Uiso   1.00
H259   H     0.24942   0.87410   0.41993   0.00000  Uiso   1.00
H260   H     0.26883   0.30614   0.82950   0.00000  Uiso   1.00
H261   H     0.44744   0.57204   0.54912   0.00000  Uiso   1.00
H262   H     0.48685   0.48570   0.38472   0.00000  Uiso   1.00
H263   H     0.42984   0.75325   0.53869   0.00000  Uiso   1.00
H264   H     0.43904   0.48391   0.73292   0.00000  Uiso   1.00
H265   H     0.50937   0.37948   0.18831   0.00000  Uiso   1.00
H266   H     0.38915   0.94362   0.51302   0.00000  Uiso   1.00
H267   H     0.40856   0.37566   0.92259   0.00000  Uiso   1.00
O268   O     0.46248   0.28649   0.03163   0.00000  Uiso   1.00
O269   O     0.30476   0.02661   0.45766   0.00000  Uiso   1.00
O270   O     0.33022   0.28146   0.99500   0.00000  Uiso   1.00
N271   N     0.39711   0.33816   0.13971   0.00000  Uiso   1.00
N272   N     0.28472   0.86559   0.44327   0.00000  Uiso   1.00
N273   N     0.30286   0.33462   0.82620   0.00000  Uiso   1.00
N274   N     0.47230   0.37556   0.18980   0.00000  Uiso   1.00
N275   N     0.35991   0.90300   0.49336   0.00000  Uiso   1.00
N276   N     0.37805   0.37203   0.87629   0.00000  Uiso   1.00
C277   C     0.32162   0.99056   0.03469   0.00000  Uiso   1.00
C278   C     0.36080   0.02863   0.11218   0.00000  Uiso   1.00
C279   C     0.35186   0.08148   0.20523   0.00000  Uiso   1.00
C280   C     0.39270   0.10961   0.26525   0.00000  Uiso   1.00
C281   C     0.44623   0.17233   0.39046   0.00000  Uiso   1.00
C282   C     0.32983   0.88327   0.02853   0.00000  Uiso   1.00
C283   C     0.29484   0.81389   0.05125   0.00000  Uiso   1.00
C284   C     0.30960   0.71965   0.04083   0.00000  Uiso   1.00
C285   C     0.31503   0.55668   0.03610   0.00000  Uiso   1.00
C286   C     0.33483   0.02961   0.92301   0.00000  Uiso   1.00
C287   C     0.30404   0.08326   0.85698   0.00000  Uiso   1.00
C288   C     0.32301   0.11223   0.75771   0.00000  Uiso   1.00
C289   C     0.33621   0.17648   0.58914   0.00000  Uiso   1.00
C290   C     0.41004   0.94656   0.97579   0.00000  Uiso   1.00
C291   C     0.40883   0.00473   0.08018   0.00000  Uiso   1.00
C292   C     0.44969   0.03280   0.14006   0.00000  Uiso   1.00
C293   C     0.44081   0.08568   0.23319   0.00000  Uiso   1.00
C294   C     0.37785   0.85937   0.99654   0.00000  Uiso   1.00
C295   C     0.39267   0.76521   0.98607   0.00000  Uiso   1.00
C296   C     0.35772   0.69571   0.00878   0.00000  Uiso   1.00
C297   C     0.38286   0.00572   0.89101   0.00000  Uiso   1.00
C298   C     0.40187   0.03459   0.79182   0.00000  Uiso   1.00
C299   C     0.37113   0.08828   0.72565   0.00000  Uiso   1.00
H300   H     0.28423   0.00915   0.05960   0.00000  Uiso   1.00
H301   H     0.31469   0.09995   0.22997   0.00000  Uiso   1.00
H302   H     0.25768   0.83240   0.07599   0.00000  Uiso   1.00
H303   H     0.26688   0.10174   0.88177   0.00000  Uiso   1.00
H304   H     0.36964   0.19004   0.40477   0.00000  Uiso   1.00
H305   H     0.24942   0.62590   0.08007   0.00000  Uiso   1.00
H306   H     0.26883   0.19386   0.67050   0.00000  Uiso   1.00
H307   H     0.44744   0.92796   0.95088   0.00000  Uiso   1.00
H308   H     0.48685   0.01430   0.11528   0.00000  Uiso   1.00
H309   H     0.42984   0.74675   0.96131   0.00000  Uiso   1.00
H310   H     0.43904   0.01609   0.76708   0.00000  Uiso   1.00
H311   H     0.50937   0.12052   0.31169   0.00000  Uiso   1.00
H312   H     0.38915   0.55638   0.98698   0.00000  Uiso   1.00
H313   H     0.40856   0.12434   0.57741   0.00000  Uiso   1.00
O314   O     0.46248   0.21351   0.46837   0.00000  Uiso   1.00
O315   O     0.30476   0.47339   0.04234   0.00000  Uiso   1.00
O316   O     0.33022   0.21854   0.50500   0.00000  Uiso   1.00
N317   N     0.39711   0.16184   0.36029   0.00000  Uiso   1.00
N318   N     0.28472   0.63441   0.05673   0.00000  Uiso   1.00
N319   N     0.30286   0.16538   0.67380   0.00000  Uiso   1.00
N320   N     0.47230   0.12444   0.31020   0.00000  Uiso   1.00
N321   N     0.35991   0.59700   0.00664   0.00000  Uiso   1.00
N322   N     0.37805   0.12797   0.62371   0.00000  Uiso   1.00
C323   C     0.17838   0.00944   0.03469   0.00000  Uiso   1.00
C324   C     0.13920   0.97137   0.11218   0.00000  Uiso   1.00
C325   C     0.14814   0.91852   0.20523   0.00000  Uiso   1.00
C326   C     0.10730   0.89039   0.26525   0.00000  Uiso   1.00
C327   C     0.05377   0.82767   0.39046   0.00000  Uiso   1.00
C328   C     0.17017   0.11673   0.02853   0.00000  Uiso   1.00
C329   C     0.20516   0.18611   0.05125   0.00000  Uiso   1.00
C330   C     0.19040   0.28035   0.04083   0.00000  Uiso   1.00
C331   C     0.18497   0.44332   0.03610   0.00000  Uiso   1.00
C332   C     0.16517   0.97039   0.92301   0.00000  Uiso   1.00
C333   C     0.19596   0.91674   0.85698   0.00000  Uiso   1.00
C334   C     0.17699   0.88777   0.75771   0.00000  Uiso   1.00
C335   C     0.16379   0.82352   0.58914   0.00000  Uiso   1.00
C336   C     0.08996   0.05344   0.97579   0.00000  Uiso   1.00
C337   C     0.09117   0.99527   0.08018   0.00000  Uiso   1.00
C338   C     0.05031   0.96720   0.14006   0.00000  Uiso   1.00
C339   C     0.05919   0.91432   0.23319   0.00000  Uiso   1.00
C340   C     0.12215   0.14063   0.99654   0.00000  Uiso   1.00
C341   C     0.10733   0.23479   0.98607   0.00000  Uiso   1.00
C342   C     0.14228   0.30429   0.00878   0.00000  Uiso   1.00
C343   C     0.11714   0.99428   0.89101   0.00000  Uiso   1.00
C344   C     0.09813   0.96541   0.79182   0.00000  Uiso   1.00
C345   C     0.12887   0.91172   0.72565   0.00000  Uiso   1.00
H346   H     0.21577   0.99085   0.05960   0.00000  Uiso   1.00
H347   H     0.18531   0.90005   0.22997   0.00000  Uiso   1.00
H348   H     0.24232   0.16760   0.07599   0.00000  Uiso   1.00
H349   H     0.23312   0.89826   0.88177   0.00000  Uiso   1.00
H350   H     0.13036   0.80996   0.40477   0.00000  Uiso   1.00
H351   H     0.25058   0.37410   0.08007   0.00000  Uiso   1.00
H352   H     0.23117   0.80614   0.67050   0.00000  Uiso   1.00
H353   H     0.05256   0.07204   0.95088   0.00000  Uiso   1.00
H354   H     0.01315   0.98570   0.11528   0.00000  Uiso   1.00
H355   H     0.07016   0.25325   0.96131   0.00000  Uiso   1.00
H356   H     0.06096   0.98391   0.76708   0.00000  Uiso   1.00
H357   H     0.99063   0.87948   0.31169   0.00000  Uiso   1.00
H358   H     0.11085   0.44362   0.98698   0.00000  Uiso   1.00
H359   H     0.09144   0.87566   0.57741   0.00000  Uiso   1.00
O360   O     0.03752   0.78649   0.46837   0.00000  Uiso   1.00
O361   O     0.19524   0.52661   0.04234   0.00000  Uiso   1.00
O362   O     0.16978   0.78146   0.50500   0.00000  Uiso   1.00
N363   N     0.10289   0.83816   0.36029   0.00000  Uiso   1.00
N364   N     0.21528   0.36559   0.05673   0.00000  Uiso   1.00
N365   N     0.19714   0.83462   0.67380   0.00000  Uiso   1.00
N366   N     0.02770   0.87556   0.31020   0.00000  Uiso   1.00
N367   N     0.14009   0.40300   0.00664   0.00000  Uiso   1.00
N368   N     0.12195   0.87203   0.62371   0.00000  Uiso   1.00
