data_job_01688
_audit_creation_date              2018-12-19
_audit_creation_method            'Materials Studio'
_symmetry_space_group_name_H-M    'P1'
_symmetry_Int_Tables_number       1
_symmetry_cell_setting            triclinic
loop_
_symmetry_equiv_pos_as_xyz
  x,y,z
_cell_length_a                    24.4715
_cell_length_b                    9.1322
_cell_length_c                    18.5095
_cell_angle_alpha                 90.0000
_cell_angle_beta                  135.3831
_cell_angle_gamma                 90.0000
loop_
_atom_site_label
_atom_site_type_symbol
_atom_site_fract_x
_atom_site_fract_y
_atom_site_fract_z
_atom_site_U_iso_or_equiv
_atom_site_adp_type
_atom_site_occupancy
C1     C     0.21566   0.48620   0.75824   0.00000  Uiso   1.00
C2     C     0.21954   0.62035   0.71297   0.00000  Uiso   1.00
C3     C     0.24654   0.62219   0.66772   0.00000  Uiso   1.00
C4     C     0.24537   0.75592   0.63097   0.00000  Uiso   1.00
C5     C     0.25558   0.94488   0.55946   0.00000  Uiso   1.00
C6     C     0.26203   0.52525   0.86943   0.00000  Uiso   1.00
C7     C     0.32475   0.44711   0.95573   0.00000  Uiso   1.00
C8     C     0.35934   0.50079   0.05068   0.00000  Uiso   1.00
C9     C     0.43547   0.54203   0.22208   0.00000  Uiso   1.00
C10    C     0.13109   0.47354   0.70275   0.00000  Uiso   1.00
C11    C     0.08371   0.35191   0.64893   0.00000  Uiso   1.00
C12    C     0.00806   0.36204   0.60357   0.00000  Uiso   1.00
C13    C     0.88088   0.32301   0.51617   0.00000  Uiso   1.00
C14    C     0.16557   0.72044   0.77342   0.00000  Uiso   1.00
C15    C     0.19234   0.74758   0.72122   0.00000  Uiso   1.00
C16    C     0.19112   0.88135   0.68452   0.00000  Uiso   1.00
C17    C     0.21811   0.88338   0.63922   0.00000  Uiso   1.00
C18    C     0.23483   0.65247   0.87768   0.00000  Uiso   1.00
C19    C     0.26933   0.70627   0.97252   0.00000  Uiso   1.00
C20    C     0.33209   0.62824   0.05895   0.00000  Uiso   1.00
C21    C     0.10388   0.60077   0.71099   0.00000  Uiso   1.00
C22    C     0.02829   0.61108   0.66572   0.00000  Uiso   1.00
C23    C     0.98081   0.48950   0.61183   0.00000  Uiso   1.00
H24    H     0.23684   0.38715   0.75183   0.00000  Uiso   1.00
H25    H     0.26760   0.52370   0.66137   0.00000  Uiso   1.00
H26    H     0.34578   0.34865   0.94933   0.00000  Uiso   1.00
H27    H     0.10478   0.25348   0.64256   0.00000  Uiso   1.00
H28    H     0.28972   0.73122   0.56474   0.00000  Uiso   1.00
H29    H     0.45457   0.36208   0.17191   0.00000  Uiso   1.00
H30    H     0.94637   0.16138   0.52505   0.00000  Uiso   1.00
H31    H     0.14439   0.81950   0.77985   0.00000  Uiso   1.00
H32    H     0.17007   0.97979   0.69091   0.00000  Uiso   1.00
H33    H     0.24826   0.80473   0.97887   0.00000  Uiso   1.00
H34    H     0.00726   0.70955   0.67211   0.00000  Uiso   1.00
H35    H     0.21057   0.10140   0.58872   0.00000  Uiso   1.00
H36    H     0.37541   0.73225   0.19590   0.00000  Uiso   1.00
H37    H     0.86721   0.53156   0.54903   0.00000  Uiso   1.00
O38    O     0.26873   0.01396   0.51775   0.00000  Uiso   1.00
O39    O     0.48499   0.52964   0.31434   0.00000  Uiso   1.00
O40    O     0.81825   0.26634   0.46567   0.00000  Uiso   1.00
N41    N     0.26755   0.79634   0.58257   0.00000  Uiso   1.00
N42    N     0.42169   0.45122   0.15024   0.00000  Uiso   1.00
N43    N     0.94657   0.26358   0.54550   0.00000  Uiso   1.00
N44    N     0.22496   0.99553   0.59547   0.00000  Uiso   1.00
N45    N     0.37909   0.65041   0.16315   0.00000  Uiso   1.00
N46    N     0.90397   0.46276   0.55841   0.00000  Uiso   1.00
C47    C     0.71566   0.98620   0.75824   0.00000  Uiso   1.00
C48    C     0.71954   0.12035   0.71297   0.00000  Uiso   1.00
C49    C     0.74654   0.12219   0.66772   0.00000  Uiso   1.00
C50    C     0.74537   0.25592   0.63097   0.00000  Uiso   1.00
C51    C     0.75558   0.44488   0.55946   0.00000  Uiso   1.00
C52    C     0.76203   0.02525   0.86943   0.00000  Uiso   1.00
C53    C     0.82475   0.94711   0.95573   0.00000  Uiso   1.00
C54    C     0.85934   0.00079   0.05068   0.00000  Uiso   1.00
C55    C     0.93547   0.04203   0.22208   0.00000  Uiso   1.00
C56    C     0.63109   0.97354   0.70275   0.00000  Uiso   1.00
C57    C     0.58371   0.85191   0.64893   0.00000  Uiso   1.00
C58    C     0.50806   0.86204   0.60357   0.00000  Uiso   1.00
C59    C     0.38088   0.82301   0.51617   0.00000  Uiso   1.00
C60    C     0.66557   0.22044   0.77342   0.00000  Uiso   1.00
C61    C     0.69234   0.24758   0.72122   0.00000  Uiso   1.00
C62    C     0.69112   0.38135   0.68452   0.00000  Uiso   1.00
C63    C     0.71811   0.38338   0.63922   0.00000  Uiso   1.00
C64    C     0.73483   0.15247   0.87768   0.00000  Uiso   1.00
C65    C     0.76933   0.20627   0.97252   0.00000  Uiso   1.00
C66    C     0.83209   0.12824   0.05895   0.00000  Uiso   1.00
C67    C     0.60388   0.10077   0.71099   0.00000  Uiso   1.00
C68    C     0.52829   0.11108   0.66572   0.00000  Uiso   1.00
C69    C     0.48081   0.98950   0.61183   0.00000  Uiso   1.00
H70    H     0.73684   0.88715   0.75183   0.00000  Uiso   1.00
H71    H     0.76760   0.02370   0.66137   0.00000  Uiso   1.00
H72    H     0.84578   0.84865   0.94933   0.00000  Uiso   1.00
H73    H     0.60478   0.75348   0.64256   0.00000  Uiso   1.00
H74    H     0.78972   0.23122   0.56474   0.00000  Uiso   1.00
H75    H     0.95457   0.86208   0.17191   0.00000  Uiso   1.00
H76    H     0.44637   0.66138   0.52505   0.00000  Uiso   1.00
H77    H     0.64439   0.31950   0.77985   0.00000  Uiso   1.00
H78    H     0.67007   0.47979   0.69091   0.00000  Uiso   1.00
H79    H     0.74826   0.30473   0.97887   0.00000  Uiso   1.00
H80    H     0.50726   0.20955   0.67211   0.00000  Uiso   1.00
H81    H     0.71057   0.60140   0.58872   0.00000  Uiso   1.00
H82    H     0.87541   0.23225   0.19590   0.00000  Uiso   1.00
H83    H     0.36721   0.03156   0.54903   0.00000  Uiso   1.00
O84    O     0.76873   0.51396   0.51775   0.00000  Uiso   1.00
O85    O     0.98499   0.02964   0.31434   0.00000  Uiso   1.00
O86    O     0.31825   0.76634   0.46567   0.00000  Uiso   1.00
N87    N     0.76755   0.29634   0.58257   0.00000  Uiso   1.00
N88    N     0.92169   0.95122   0.15024   0.00000  Uiso   1.00
N89    N     0.44657   0.76358   0.54550   0.00000  Uiso   1.00
N90    N     0.72496   0.49553   0.59547   0.00000  Uiso   1.00
N91    N     0.87909   0.15041   0.16315   0.00000  Uiso   1.00
N92    N     0.40397   0.96276   0.55841   0.00000  Uiso   1.00
C93    C     0.78434   0.48620   0.24176   0.00000  Uiso   1.00
C94    C     0.78046   0.62035   0.28703   0.00000  Uiso   1.00
C95    C     0.75346   0.62219   0.33228   0.00000  Uiso   1.00
C96    C     0.75463   0.75592   0.36903   0.00000  Uiso   1.00
C97    C     0.74442   0.94488   0.44054   0.00000  Uiso   1.00
C98    C     0.73797   0.52525   0.13057   0.00000  Uiso   1.00
C99    C     0.67525   0.44711   0.04427   0.00000  Uiso   1.00
C100   C     0.64066   0.50079   0.94932   0.00000  Uiso   1.00
C101   C     0.56453   0.54203   0.77792   0.00000  Uiso   1.00
C102   C     0.86891   0.47354   0.29725   0.00000  Uiso   1.00
C103   C     0.91629   0.35191   0.35107   0.00000  Uiso   1.00
C104   C     0.99194   0.36204   0.39643   0.00000  Uiso   1.00
C105   C     0.11912   0.32301   0.48383   0.00000  Uiso   1.00
C106   C     0.83443   0.72044   0.22658   0.00000  Uiso   1.00
C107   C     0.80766   0.74758   0.27878   0.00000  Uiso   1.00
C108   C     0.80888   0.88135   0.31548   0.00000  Uiso   1.00
C109   C     0.78189   0.88338   0.36078   0.00000  Uiso   1.00
C110   C     0.76517   0.65247   0.12232   0.00000  Uiso   1.00
C111   C     0.73067   0.70627   0.02748   0.00000  Uiso   1.00
C112   C     0.66791   0.62824   0.94105   0.00000  Uiso   1.00
C113   C     0.89612   0.60077   0.28901   0.00000  Uiso   1.00
C114   C     0.97171   0.61108   0.33428   0.00000  Uiso   1.00
C115   C     0.01919   0.48950   0.38817   0.00000  Uiso   1.00
H116   H     0.76316   0.38715   0.24817   0.00000  Uiso   1.00
H117   H     0.73240   0.52370   0.33863   0.00000  Uiso   1.00
H118   H     0.65422   0.34865   0.05067   0.00000  Uiso   1.00
H119   H     0.89522   0.25348   0.35744   0.00000  Uiso   1.00
H120   H     0.71028   0.73122   0.43526   0.00000  Uiso   1.00
H121   H     0.54543   0.36208   0.82809   0.00000  Uiso   1.00
H122   H     0.05363   0.16138   0.47495   0.00000  Uiso   1.00
H123   H     0.85561   0.81950   0.22015   0.00000  Uiso   1.00
H124   H     0.82993   0.97979   0.30909   0.00000  Uiso   1.00
H125   H     0.75174   0.80473   0.02113   0.00000  Uiso   1.00
H126   H     0.99274   0.70955   0.32789   0.00000  Uiso   1.00
H127   H     0.78943   0.10140   0.41128   0.00000  Uiso   1.00
H128   H     0.62459   0.73225   0.80410   0.00000  Uiso   1.00
H129   H     0.13279   0.53156   0.45097   0.00000  Uiso   1.00
O130   O     0.73127   0.01396   0.48225   0.00000  Uiso   1.00
O131   O     0.51501   0.52964   0.68566   0.00000  Uiso   1.00
O132   O     0.18175   0.26634   0.53433   0.00000  Uiso   1.00
N133   N     0.73245   0.79634   0.41743   0.00000  Uiso   1.00
N134   N     0.57831   0.45122   0.84976   0.00000  Uiso   1.00
N135   N     0.05343   0.26358   0.45450   0.00000  Uiso   1.00
N136   N     0.77504   0.99553   0.40453   0.00000  Uiso   1.00
N137   N     0.62091   0.65041   0.83685   0.00000  Uiso   1.00
N138   N     0.09603   0.46276   0.44159   0.00000  Uiso   1.00
C139   C     0.28434   0.98620   0.24176   0.00000  Uiso   1.00
C140   C     0.28046   0.12035   0.28703   0.00000  Uiso   1.00
C141   C     0.25346   0.12219   0.33228   0.00000  Uiso   1.00
C142   C     0.25463   0.25592   0.36903   0.00000  Uiso   1.00
C143   C     0.24442   0.44488   0.44054   0.00000  Uiso   1.00
C144   C     0.23797   0.02525   0.13057   0.00000  Uiso   1.00
C145   C     0.17525   0.94711   0.04427   0.00000  Uiso   1.00
C146   C     0.14066   0.00079   0.94932   0.00000  Uiso   1.00
C147   C     0.06453   0.04203   0.77792   0.00000  Uiso   1.00
C148   C     0.36891   0.97354   0.29725   0.00000  Uiso   1.00
C149   C     0.41629   0.85191   0.35107   0.00000  Uiso   1.00
C150   C     0.49194   0.86204   0.39643   0.00000  Uiso   1.00
C151   C     0.61912   0.82301   0.48383   0.00000  Uiso   1.00
C152   C     0.33443   0.22044   0.22658   0.00000  Uiso   1.00
C153   C     0.30766   0.24758   0.27878   0.00000  Uiso   1.00
C154   C     0.30888   0.38135   0.31548   0.00000  Uiso   1.00
C155   C     0.28189   0.38338   0.36078   0.00000  Uiso   1.00
C156   C     0.26517   0.15247   0.12232   0.00000  Uiso   1.00
C157   C     0.23067   0.20627   0.02748   0.00000  Uiso   1.00
C158   C     0.16791   0.12824   0.94105   0.00000  Uiso   1.00
C159   C     0.39612   0.10077   0.28901   0.00000  Uiso   1.00
C160   C     0.47171   0.11108   0.33428   0.00000  Uiso   1.00
C161   C     0.51919   0.98950   0.38817   0.00000  Uiso   1.00
H162   H     0.26316   0.88715   0.24817   0.00000  Uiso   1.00
H163   H     0.23240   0.02370   0.33863   0.00000  Uiso   1.00
H164   H     0.15422   0.84865   0.05067   0.00000  Uiso   1.00
H165   H     0.39522   0.75348   0.35744   0.00000  Uiso   1.00
H166   H     0.21028   0.23122   0.43526   0.00000  Uiso   1.00
H167   H     0.04543   0.86208   0.82809   0.00000  Uiso   1.00
H168   H     0.55363   0.66138   0.47495   0.00000  Uiso   1.00
H169   H     0.35561   0.31950   0.22015   0.00000  Uiso   1.00
H170   H     0.32993   0.47979   0.30909   0.00000  Uiso   1.00
H171   H     0.25174   0.30473   0.02113   0.00000  Uiso   1.00
H172   H     0.49274   0.20955   0.32789   0.00000  Uiso   1.00
H173   H     0.28943   0.60140   0.41128   0.00000  Uiso   1.00
H174   H     0.12459   0.23225   0.80410   0.00000  Uiso   1.00
H175   H     0.63279   0.03156   0.45097   0.00000  Uiso   1.00
O176   O     0.23127   0.51396   0.48225   0.00000  Uiso   1.00
O177   O     0.01501   0.02964   0.68566   0.00000  Uiso   1.00
O178   O     0.68175   0.76634   0.53433   0.00000  Uiso   1.00
N179   N     0.23245   0.29634   0.41743   0.00000  Uiso   1.00
N180   N     0.07831   0.95122   0.84976   0.00000  Uiso   1.00
N181   N     0.55343   0.76358   0.45450   0.00000  Uiso   1.00
N182   N     0.27504   0.49553   0.40453   0.00000  Uiso   1.00
N183   N     0.12091   0.15041   0.83685   0.00000  Uiso   1.00
N184   N     0.59603   0.96276   0.44159   0.00000  Uiso   1.00
