data_job_00715
_audit_creation_date              2018-12-19
_audit_creation_method            'Materials Studio'
_symmetry_space_group_name_H-M    'P1'
_symmetry_Int_Tables_number       1
_symmetry_cell_setting            triclinic
loop_
_symmetry_equiv_pos_as_xyz
  x,y,z
_cell_length_a                    12.5104
_cell_length_b                    13.8629
_cell_length_c                    14.4369
_cell_angle_alpha                 90.0000
_cell_angle_beta                  86.6777
_cell_angle_gamma                 90.0000
loop_
_atom_site_label
_atom_site_type_symbol
_atom_site_fract_x
_atom_site_fract_y
_atom_site_fract_z
_atom_site_U_iso_or_equiv
_atom_site_adp_type
_atom_site_occupancy
C1     C     0.74024   0.01115   0.19956   0.00000  Uiso   1.00
C2     C     0.63668   0.04229   0.25205   0.00000  Uiso   1.00
C3     C     0.58122   0.12720   0.23779   0.00000  Uiso   1.00
C4     C     0.48813   0.14242   0.29295   0.00000  Uiso   1.00
C5     C     0.33287   0.20104   0.36431   0.00000  Uiso   1.00
C6     C     0.82082   0.99359   0.27306   0.00000  Uiso   1.00
C7     C     0.92019   0.03754   0.27644   0.00000  Uiso   1.00
C8     C     0.98210   0.01175   0.34927   0.00000  Uiso   1.00
C9     C     0.11275   0.99472   0.45320   0.00000  Uiso   1.00
C10    C     0.71750   0.91261   0.15808   0.00000  Uiso   1.00
C11    C     0.73002   0.88847   0.06479   0.00000  Uiso   1.00
C12    C     0.70497   0.79449   0.04081   0.00000  Uiso   1.00
C13    C     0.67520   0.65172   0.96622   0.00000  Uiso   1.00
C14    C     0.67352   0.88717   0.32288   0.00000  Uiso   1.00
C15    C     0.60044   0.97495   0.31904   0.00000  Uiso   1.00
C16    C     0.50740   0.99004   0.37423   0.00000  Uiso   1.00
C17    C     0.45181   0.07496   0.36005   0.00000  Uiso   1.00
C18    C     0.78458   0.92626   0.34004   0.00000  Uiso   1.00
C19    C     0.84637   0.90039   0.41288   0.00000  Uiso   1.00
C20    C     0.94580   0.94430   0.41638   0.00000  Uiso   1.00
C21    C     0.68125   0.84527   0.22506   0.00000  Uiso   1.00
C22    C     0.65619   0.75131   0.20123   0.00000  Uiso   1.00
C23    C     0.66867   0.72703   0.10792   0.00000  Uiso   1.00
H24    H     0.76846   0.06357   0.14741   0.00000  Uiso   1.00
H25    H     0.60930   0.17930   0.18595   0.00000  Uiso   1.00
H26    H     0.94821   0.08964   0.22459   0.00000  Uiso   1.00
H27    H     0.75807   0.94059   0.01297   0.00000  Uiso   1.00
H28    H     0.41688   0.27792   0.25825   0.00000  Uiso   1.00
H29    H     0.13151   0.08886   0.33970   0.00000  Uiso   1.00
H30    H     0.73056   0.77456   0.89346   0.00000  Uiso   1.00
H31    H     0.64530   0.83475   0.37503   0.00000  Uiso   1.00
H32    H     0.47938   0.93792   0.42606   0.00000  Uiso   1.00
H33    H     0.81830   0.84827   0.46470   0.00000  Uiso   1.00
H34    H     0.62815   0.69922   0.25308   0.00000  Uiso   1.00
H35    H     0.31144   0.08201   0.45313   0.00000  Uiso   1.00
H36    H     0.02607   0.89296   0.53458   0.00000  Uiso   1.00
H37    H     0.62511   0.57865   0.08834   0.00000  Uiso   1.00
O38    O     0.25725   0.25198   0.38517   0.00000  Uiso   1.00
O39    O     0.19483   0.00393   0.49202   0.00000  Uiso   1.00
O40    O     0.66878   0.59157   0.90656   0.00000  Uiso   1.00
N41    N     0.41482   0.21765   0.29710   0.00000  Uiso   1.00
N42    N     0.08296   0.04090   0.37326   0.00000  Uiso   1.00
N43    N     0.70812   0.74704   0.95606   0.00000  Uiso   1.00
N44    N     0.35808   0.11223   0.40196   0.00000  Uiso   1.00
N45    N     0.02622   0.93549   0.47812   0.00000  Uiso   1.00
N46    N     0.65138   0.64163   0.06092   0.00000  Uiso   1.00
C47    C     0.25666   0.54188   0.10767   0.00000  Uiso   1.00
C48    C     0.36480   0.49471   0.12101   0.00000  Uiso   1.00
C49    C     0.43535   0.46083   0.05071   0.00000  Uiso   1.00
C50    C     0.53021   0.42001   0.07723   0.00000  Uiso   1.00
C51    C     0.69455   0.34774   0.08373   0.00000  Uiso   1.00
C52    C     0.17431   0.48245   0.16498   0.00000  Uiso   1.00
C53    C     0.08470   0.43829   0.13163   0.00000  Uiso   1.00
C54    C     0.01919   0.38717   0.19516   0.00000  Uiso   1.00
C55    C     0.88776   0.29594   0.26993   0.00000  Uiso   1.00
C56    C     0.26032   0.64007   0.15497   0.00000  Uiso   1.00
C57    C     0.24299   0.72844   0.11322   0.00000  Uiso   1.00
C58    C     0.24987   0.81003   0.16834   0.00000  Uiso   1.00
C59    C     0.25198   0.96353   0.22757   0.00000  Uiso   1.00
C60    C     0.29967   0.52964   0.27979   0.00000  Uiso   1.00
C61    C     0.38816   0.48806   0.21450   0.00000  Uiso   1.00
C62    C     0.48294   0.44729   0.24114   0.00000  Uiso   1.00
C63    C     0.55362   0.41336   0.17088   0.00000  Uiso   1.00
C64    C     0.19767   0.47581   0.25846   0.00000  Uiso   1.00
C65    C     0.13228   0.42475   0.32206   0.00000  Uiso   1.00
C66    C     0.04260   0.38052   0.28882   0.00000  Uiso   1.00
C67    C     0.28368   0.63343   0.24846   0.00000  Uiso   1.00
C68    C     0.29058   0.71490   0.30365   0.00000  Uiso   1.00
C69    C     0.27327   0.80338   0.26199   0.00000  Uiso   1.00
H70    H     0.23846   0.54705   0.03489   0.00000  Uiso   1.00
H71    H     0.41724   0.46597   0.97837   0.00000  Uiso   1.00
H72    H     0.06663   0.44345   0.05929   0.00000  Uiso   1.00
H73    H     0.22491   0.73355   0.04088   0.00000  Uiso   1.00
H74    H     0.62573   0.37313   0.95694   0.00000  Uiso   1.00
H75    H     0.88644   0.32566   0.12756   0.00000  Uiso   1.00
H76    H     0.22019   0.93741   0.08874   0.00000  Uiso   1.00
H77    H     0.31785   0.52447   0.35257   0.00000  Uiso   1.00
H78    H     0.50099   0.44216   0.31349   0.00000  Uiso   1.00
H79    H     0.15038   0.41963   0.39440   0.00000  Uiso   1.00
H80    H     0.30866   0.70974   0.37599   0.00000  Uiso   1.00
H81    H     0.69371   0.35379   0.22893   0.00000  Uiso   1.00
H82    H     0.95441   0.30633   0.39955   0.00000  Uiso   1.00
H83    H     0.28817   0.91807   0.36073   0.00000  Uiso   1.00
O84    O     0.77874   0.30969   0.06149   0.00000  Uiso   1.00
O85    O     0.80882   0.24744   0.28534   0.00000  Uiso   1.00
O86    O     0.24670   0.05003   0.23441   0.00000  Uiso   1.00
N87    N     0.61660   0.37989   0.02632   0.00000  Uiso   1.00
N88    N     0.92542   0.33550   0.18583   0.00000  Uiso   1.00
N89    N     0.23742   0.90743   0.14954   0.00000  Uiso   1.00
N90    N     0.65318   0.36949   0.17267   0.00000  Uiso   1.00
N91    N     0.96200   0.32510   0.33219   0.00000  Uiso   1.00
N92    N     0.27400   0.89703   0.29590   0.00000  Uiso   1.00
C93    C     0.74024   0.98885   0.69956   0.00000  Uiso   1.00
C94    C     0.63668   0.95771   0.75205   0.00000  Uiso   1.00
C95    C     0.58122   0.87280   0.73779   0.00000  Uiso   1.00
C96    C     0.48813   0.85758   0.79295   0.00000  Uiso   1.00
C97    C     0.33287   0.79896   0.86431   0.00000  Uiso   1.00
C98    C     0.82082   0.00641   0.77306   0.00000  Uiso   1.00
C99    C     0.92019   0.96246   0.77644   0.00000  Uiso   1.00
C100   C     0.98210   0.98825   0.84927   0.00000  Uiso   1.00
C101   C     0.11275   0.00528   0.95320   0.00000  Uiso   1.00
C102   C     0.71750   0.08739   0.65808   0.00000  Uiso   1.00
C103   C     0.73002   0.11153   0.56479   0.00000  Uiso   1.00
C104   C     0.70497   0.20551   0.54081   0.00000  Uiso   1.00
C105   C     0.67520   0.34828   0.46622   0.00000  Uiso   1.00
C106   C     0.67352   0.11283   0.82288   0.00000  Uiso   1.00
C107   C     0.60044   0.02505   0.81904   0.00000  Uiso   1.00
C108   C     0.50740   0.00996   0.87423   0.00000  Uiso   1.00
C109   C     0.45181   0.92504   0.86005   0.00000  Uiso   1.00
C110   C     0.78458   0.07374   0.84004   0.00000  Uiso   1.00
C111   C     0.84637   0.09961   0.91288   0.00000  Uiso   1.00
C112   C     0.94580   0.05570   0.91638   0.00000  Uiso   1.00
C113   C     0.68125   0.15473   0.72506   0.00000  Uiso   1.00
C114   C     0.65619   0.24869   0.70123   0.00000  Uiso   1.00
C115   C     0.66867   0.27297   0.60792   0.00000  Uiso   1.00
H116   H     0.76846   0.93643   0.64741   0.00000  Uiso   1.00
H117   H     0.60930   0.82070   0.68595   0.00000  Uiso   1.00
H118   H     0.94821   0.91036   0.72459   0.00000  Uiso   1.00
H119   H     0.75807   0.05941   0.51297   0.00000  Uiso   1.00
H120   H     0.41688   0.72208   0.75825   0.00000  Uiso   1.00
H121   H     0.13151   0.91114   0.83970   0.00000  Uiso   1.00
H122   H     0.73056   0.22544   0.39346   0.00000  Uiso   1.00
H123   H     0.64530   0.16525   0.87503   0.00000  Uiso   1.00
H124   H     0.47938   0.06208   0.92606   0.00000  Uiso   1.00
H125   H     0.81830   0.15173   0.96470   0.00000  Uiso   1.00
H126   H     0.62815   0.30078   0.75308   0.00000  Uiso   1.00
H127   H     0.31144   0.91799   0.95313   0.00000  Uiso   1.00
H128   H     0.02607   0.10704   0.03458   0.00000  Uiso   1.00
H129   H     0.62511   0.42135   0.58834   0.00000  Uiso   1.00
O130   O     0.25725   0.74802   0.88517   0.00000  Uiso   1.00
O131   O     0.19483   0.99607   0.99202   0.00000  Uiso   1.00
O132   O     0.66878   0.40843   0.40656   0.00000  Uiso   1.00
N133   N     0.41482   0.78235   0.79710   0.00000  Uiso   1.00
N134   N     0.08296   0.95910   0.87326   0.00000  Uiso   1.00
N135   N     0.70812   0.25296   0.45606   0.00000  Uiso   1.00
N136   N     0.35808   0.88777   0.90196   0.00000  Uiso   1.00
N137   N     0.02622   0.06451   0.97812   0.00000  Uiso   1.00
N138   N     0.65138   0.35837   0.56092   0.00000  Uiso   1.00
C139   C     0.25666   0.45812   0.60767   0.00000  Uiso   1.00
C140   C     0.36480   0.50529   0.62101   0.00000  Uiso   1.00
C141   C     0.43535   0.53917   0.55071   0.00000  Uiso   1.00
C142   C     0.53021   0.57999   0.57723   0.00000  Uiso   1.00
C143   C     0.69455   0.65226   0.58373   0.00000  Uiso   1.00
C144   C     0.17431   0.51755   0.66498   0.00000  Uiso   1.00
C145   C     0.08470   0.56171   0.63163   0.00000  Uiso   1.00
C146   C     0.01919   0.61283   0.69516   0.00000  Uiso   1.00
C147   C     0.88776   0.70406   0.76993   0.00000  Uiso   1.00
C148   C     0.26032   0.35993   0.65497   0.00000  Uiso   1.00
C149   C     0.24299   0.27156   0.61322   0.00000  Uiso   1.00
C150   C     0.24987   0.18997   0.66834   0.00000  Uiso   1.00
C151   C     0.25198   0.03647   0.72757   0.00000  Uiso   1.00
C152   C     0.29967   0.47036   0.77979   0.00000  Uiso   1.00
C153   C     0.38816   0.51194   0.71450   0.00000  Uiso   1.00
C154   C     0.48294   0.55271   0.74114   0.00000  Uiso   1.00
C155   C     0.55362   0.58664   0.67088   0.00000  Uiso   1.00
C156   C     0.19767   0.52419   0.75846   0.00000  Uiso   1.00
C157   C     0.13228   0.57525   0.82206   0.00000  Uiso   1.00
C158   C     0.04260   0.61948   0.78882   0.00000  Uiso   1.00
C159   C     0.28368   0.36657   0.74846   0.00000  Uiso   1.00
C160   C     0.29058   0.28510   0.80365   0.00000  Uiso   1.00
C161   C     0.27327   0.19662   0.76199   0.00000  Uiso   1.00
H162   H     0.23846   0.45295   0.53489   0.00000  Uiso   1.00
H163   H     0.41724   0.53403   0.47837   0.00000  Uiso   1.00
H164   H     0.06663   0.55655   0.55929   0.00000  Uiso   1.00
H165   H     0.22491   0.26645   0.54088   0.00000  Uiso   1.00
H166   H     0.62573   0.62687   0.45694   0.00000  Uiso   1.00
H167   H     0.88644   0.67434   0.62756   0.00000  Uiso   1.00
H168   H     0.22019   0.06259   0.58874   0.00000  Uiso   1.00
H169   H     0.31785   0.47553   0.85257   0.00000  Uiso   1.00
H170   H     0.50099   0.55784   0.81349   0.00000  Uiso   1.00
H171   H     0.15038   0.58037   0.89440   0.00000  Uiso   1.00
H172   H     0.30866   0.29026   0.87599   0.00000  Uiso   1.00
H173   H     0.69371   0.64621   0.72893   0.00000  Uiso   1.00
H174   H     0.95441   0.69367   0.89955   0.00000  Uiso   1.00
H175   H     0.28817   0.08193   0.86073   0.00000  Uiso   1.00
O176   O     0.77874   0.69031   0.56149   0.00000  Uiso   1.00
O177   O     0.80882   0.75256   0.78534   0.00000  Uiso   1.00
O178   O     0.24670   0.94997   0.73441   0.00000  Uiso   1.00
N179   N     0.61660   0.62011   0.52632   0.00000  Uiso   1.00
N180   N     0.92542   0.66450   0.68583   0.00000  Uiso   1.00
N181   N     0.23742   0.09257   0.64954   0.00000  Uiso   1.00
N182   N     0.65318   0.63051   0.67267   0.00000  Uiso   1.00
N183   N     0.96200   0.67490   0.83219   0.00000  Uiso   1.00
N184   N     0.27400   0.10297   0.79590   0.00000  Uiso   1.00
