data_job_01089
_audit_creation_date              2018-12-19
_audit_creation_method            'Materials Studio'
_symmetry_space_group_name_H-M    'P1'
_symmetry_Int_Tables_number       1
_symmetry_cell_setting            triclinic
loop_
_symmetry_equiv_pos_as_xyz
  x,y,z
_cell_length_a                    18.4869
_cell_length_b                    11.6434
_cell_length_c                    24.4743
_cell_angle_alpha                 90.0000
_cell_angle_beta                  138.4400
_cell_angle_gamma                 90.0000
loop_
_atom_site_label
_atom_site_type_symbol
_atom_site_fract_x
_atom_site_fract_y
_atom_site_fract_z
_atom_site_U_iso_or_equiv
_atom_site_adp_type
_atom_site_occupancy
C1     C     0.81462   0.21263   0.61505   0.00000  Uiso   1.00
C2     C     0.74251   0.27548   0.61531   0.00000  Uiso   1.00
C3     C     0.77718   0.32390   0.68371   0.00000  Uiso   1.00
C4     C     0.69860   0.37763   0.67115   0.00000  Uiso   1.00
C5     C     0.60325   0.47441   0.68346   0.00000  Uiso   1.00
C6     C     0.76392   0.09406   0.57899   0.00000  Uiso   1.00
C7     C     0.81659   0.98994   0.61686   0.00000  Uiso   1.00
C8     C     0.75604   0.89094   0.57371   0.00000  Uiso   1.00
C9     C     0.69394   0.70606   0.52961   0.00000  Uiso   1.00
C10    C     0.79956   0.27471   0.55220   0.00000  Uiso   1.00
C11    C     0.88220   0.32247   0.56753   0.00000  Uiso   1.00
C12    C     0.85165   0.37555   0.50182   0.00000  Uiso   1.00
C13    C     0.84489   0.47116   0.41612   0.00000  Uiso   1.00
C14    C     0.61343   0.22194   0.47109   0.00000  Uiso   1.00
C15    C     0.63324   0.28054   0.53712   0.00000  Uiso   1.00
C16    C     0.55459   0.33421   0.52445   0.00000  Uiso   1.00
C17    C     0.58913   0.38270   0.59282   0.00000  Uiso   1.00
C18    C     0.65465   0.09911   0.50080   0.00000  Uiso   1.00
C19    C     0.59400   0.00025   0.45759   0.00000  Uiso   1.00
C20    C     0.64656   0.89601   0.49538   0.00000  Uiso   1.00
C21    C     0.69028   0.27978   0.47400   0.00000  Uiso   1.00
C22    C     0.65960   0.33278   0.40826   0.00000  Uiso   1.00
C23    C     0.74218   0.38062   0.42349   0.00000  Uiso   1.00
H24    H     0.89970   0.20868   0.67592   0.00000  Uiso   1.00
H25    H     0.86175   0.31996   0.74422   0.00000  Uiso   1.00
H26    H     0.90116   0.98605   0.67736   0.00000  Uiso   1.00
H27    H     0.96675   0.31854   0.62804   0.00000  Uiso   1.00
H28    H     0.77148   0.44553   0.78546   0.00000  Uiso   1.00
H29    H     0.85459   0.74147   0.64448   0.00000  Uiso   1.00
H30    H     0.99290   0.44257   0.54048   0.00000  Uiso   1.00
H31    H     0.52835   0.22588   0.41022   0.00000  Uiso   1.00
H32    H     0.47003   0.33811   0.46393   0.00000  Uiso   1.00
H33    H     0.50944   0.00419   0.39708   0.00000  Uiso   1.00
H34    H     0.57503   0.33668   0.34776   0.00000  Uiso   1.00
H35    H     0.45355   0.46025   0.55797   0.00000  Uiso   1.00
H36    H     0.53666   0.75619   0.41700   0.00000  Uiso   1.00
H37    H     0.67497   0.45730   0.31299   0.00000  Uiso   1.00
O38    O     0.58084   0.52638   0.71185   0.00000  Uiso   1.00
O39    O     0.68988   0.60267   0.52689   0.00000  Uiso   1.00
O40    O     0.87134   0.52251   0.39045   0.00000  Uiso   1.00
N41    N     0.70466   0.43361   0.72454   0.00000  Uiso   1.00
N42    N     0.78236   0.77535   0.59275   0.00000  Uiso   1.00
N43    N     0.91168   0.43080   0.49551   0.00000  Uiso   1.00
N44    N     0.53359   0.44154   0.60214   0.00000  Uiso   1.00
N45    N     0.61128   0.78328   0.47034   0.00000  Uiso   1.00
N46    N     0.74060   0.43873   0.37310   0.00000  Uiso   1.00
C47    C     0.18538   0.21263   0.88495   0.00000  Uiso   1.00
C48    C     0.25749   0.27548   0.88469   0.00000  Uiso   1.00
C49    C     0.22282   0.32390   0.81629   0.00000  Uiso   1.00
C50    C     0.30140   0.37763   0.82885   0.00000  Uiso   1.00
C51    C     0.39675   0.47441   0.81654   0.00000  Uiso   1.00
C52    C     0.23608   0.09406   0.92101   0.00000  Uiso   1.00
C53    C     0.18341   0.98994   0.88314   0.00000  Uiso   1.00
C54    C     0.24396   0.89094   0.92629   0.00000  Uiso   1.00
C55    C     0.30606   0.70606   0.97039   0.00000  Uiso   1.00
C56    C     0.20044   0.27471   0.94780   0.00000  Uiso   1.00
C57    C     0.11780   0.32247   0.93247   0.00000  Uiso   1.00
C58    C     0.14835   0.37555   0.99818   0.00000  Uiso   1.00
C59    C     0.15511   0.47116   0.08388   0.00000  Uiso   1.00
C60    C     0.38657   0.22194   0.02891   0.00000  Uiso   1.00
C61    C     0.36676   0.28054   0.96288   0.00000  Uiso   1.00
C62    C     0.44541   0.33421   0.97555   0.00000  Uiso   1.00
C63    C     0.41087   0.38270   0.90718   0.00000  Uiso   1.00
C64    C     0.34535   0.09911   0.99920   0.00000  Uiso   1.00
C65    C     0.40600   0.00025   0.04241   0.00000  Uiso   1.00
C66    C     0.35344   0.89601   0.00462   0.00000  Uiso   1.00
C67    C     0.30972   0.27978   0.02600   0.00000  Uiso   1.00
C68    C     0.34040   0.33278   0.09174   0.00000  Uiso   1.00
C69    C     0.25782   0.38062   0.07651   0.00000  Uiso   1.00
H70    H     0.10030   0.20868   0.82408   0.00000  Uiso   1.00
H71    H     0.13825   0.31996   0.75578   0.00000  Uiso   1.00
H72    H     0.09884   0.98605   0.82264   0.00000  Uiso   1.00
H73    H     0.03325   0.31854   0.87196   0.00000  Uiso   1.00
H74    H     0.22852   0.44553   0.71454   0.00000  Uiso   1.00
H75    H     0.14541   0.74147   0.85552   0.00000  Uiso   1.00
H76    H     0.00710   0.44257   0.95952   0.00000  Uiso   1.00
H77    H     0.47165   0.22588   0.08978   0.00000  Uiso   1.00
H78    H     0.52997   0.33811   0.03607   0.00000  Uiso   1.00
H79    H     0.49056   0.00419   0.10292   0.00000  Uiso   1.00
H80    H     0.42497   0.33668   0.15224   0.00000  Uiso   1.00
H81    H     0.54645   0.46025   0.94203   0.00000  Uiso   1.00
H82    H     0.46334   0.75619   0.08300   0.00000  Uiso   1.00
H83    H     0.32503   0.45730   0.18701   0.00000  Uiso   1.00
O84    O     0.41916   0.52638   0.78815   0.00000  Uiso   1.00
O85    O     0.31012   0.60267   0.97311   0.00000  Uiso   1.00
O86    O     0.12866   0.52251   0.10955   0.00000  Uiso   1.00
N87    N     0.29534   0.43361   0.77546   0.00000  Uiso   1.00
N88    N     0.21764   0.77535   0.90725   0.00000  Uiso   1.00
N89    N     0.08832   0.43080   0.00449   0.00000  Uiso   1.00
N90    N     0.46641   0.44154   0.89786   0.00000  Uiso   1.00
N91    N     0.38872   0.78328   0.02966   0.00000  Uiso   1.00
N92    N     0.25940   0.43873   0.12690   0.00000  Uiso   1.00
C93    C     0.18538   0.78737   0.38495   0.00000  Uiso   1.00
C94    C     0.25749   0.72452   0.38469   0.00000  Uiso   1.00
C95    C     0.22282   0.67610   0.31629   0.00000  Uiso   1.00
C96    C     0.30140   0.62237   0.32885   0.00000  Uiso   1.00
C97    C     0.39675   0.52559   0.31654   0.00000  Uiso   1.00
C98    C     0.23608   0.90594   0.42101   0.00000  Uiso   1.00
C99    C     0.18341   0.01006   0.38314   0.00000  Uiso   1.00
C100   C     0.24396   0.10906   0.42629   0.00000  Uiso   1.00
C101   C     0.30606   0.29394   0.47039   0.00000  Uiso   1.00
C102   C     0.20044   0.72529   0.44780   0.00000  Uiso   1.00
C103   C     0.11780   0.67753   0.43247   0.00000  Uiso   1.00
C104   C     0.14835   0.62445   0.49818   0.00000  Uiso   1.00
C105   C     0.15511   0.52884   0.58388   0.00000  Uiso   1.00
C106   C     0.38657   0.77806   0.52891   0.00000  Uiso   1.00
C107   C     0.36676   0.71946   0.46288   0.00000  Uiso   1.00
C108   C     0.44541   0.66579   0.47555   0.00000  Uiso   1.00
C109   C     0.41087   0.61730   0.40718   0.00000  Uiso   1.00
C110   C     0.34535   0.90089   0.49920   0.00000  Uiso   1.00
C111   C     0.40600   0.99975   0.54241   0.00000  Uiso   1.00
C112   C     0.35344   0.10399   0.50462   0.00000  Uiso   1.00
C113   C     0.30972   0.72022   0.52600   0.00000  Uiso   1.00
C114   C     0.34040   0.66722   0.59174   0.00000  Uiso   1.00
C115   C     0.25782   0.61938   0.57651   0.00000  Uiso   1.00
H116   H     0.10030   0.79132   0.32408   0.00000  Uiso   1.00
H117   H     0.13825   0.68004   0.25578   0.00000  Uiso   1.00
H118   H     0.09884   0.01395   0.32264   0.00000  Uiso   1.00
H119   H     0.03325   0.68146   0.37196   0.00000  Uiso   1.00
H120   H     0.22852   0.55447   0.21454   0.00000  Uiso   1.00
H121   H     0.14541   0.25853   0.35552   0.00000  Uiso   1.00
H122   H     0.00710   0.55743   0.45952   0.00000  Uiso   1.00
H123   H     0.47165   0.77412   0.58978   0.00000  Uiso   1.00
H124   H     0.52997   0.66189   0.53607   0.00000  Uiso   1.00
H125   H     0.49056   0.99581   0.60292   0.00000  Uiso   1.00
H126   H     0.42497   0.66332   0.65224   0.00000  Uiso   1.00
H127   H     0.54645   0.53975   0.44203   0.00000  Uiso   1.00
H128   H     0.46334   0.24381   0.58300   0.00000  Uiso   1.00
H129   H     0.32503   0.54270   0.68701   0.00000  Uiso   1.00
O130   O     0.41916   0.47362   0.28815   0.00000  Uiso   1.00
O131   O     0.31012   0.39733   0.47311   0.00000  Uiso   1.00
O132   O     0.12866   0.47749   0.60955   0.00000  Uiso   1.00
N133   N     0.29534   0.56639   0.27546   0.00000  Uiso   1.00
N134   N     0.21764   0.22465   0.40725   0.00000  Uiso   1.00
N135   N     0.08832   0.56920   0.50449   0.00000  Uiso   1.00
N136   N     0.46641   0.55846   0.39786   0.00000  Uiso   1.00
N137   N     0.38872   0.21672   0.52966   0.00000  Uiso   1.00
N138   N     0.25940   0.56127   0.62690   0.00000  Uiso   1.00
C139   C     0.81462   0.78737   0.11505   0.00000  Uiso   1.00
C140   C     0.74251   0.72452   0.11531   0.00000  Uiso   1.00
C141   C     0.77718   0.67610   0.18371   0.00000  Uiso   1.00
C142   C     0.69860   0.62237   0.17115   0.00000  Uiso   1.00
C143   C     0.60325   0.52559   0.18346   0.00000  Uiso   1.00
C144   C     0.76392   0.90594   0.07899   0.00000  Uiso   1.00
C145   C     0.81659   0.01006   0.11686   0.00000  Uiso   1.00
C146   C     0.75604   0.10906   0.07371   0.00000  Uiso   1.00
C147   C     0.69394   0.29394   0.02961   0.00000  Uiso   1.00
C148   C     0.79956   0.72529   0.05220   0.00000  Uiso   1.00
C149   C     0.88220   0.67753   0.06753   0.00000  Uiso   1.00
C150   C     0.85165   0.62445   0.00182   0.00000  Uiso   1.00
C151   C     0.84489   0.52884   0.91612   0.00000  Uiso   1.00
C152   C     0.61343   0.77806   0.97109   0.00000  Uiso   1.00
C153   C     0.63324   0.71946   0.03712   0.00000  Uiso   1.00
C154   C     0.55459   0.66579   0.02445   0.00000  Uiso   1.00
C155   C     0.58913   0.61730   0.09282   0.00000  Uiso   1.00
C156   C     0.65465   0.90089   0.00080   0.00000  Uiso   1.00
C157   C     0.59400   0.99975   0.95759   0.00000  Uiso   1.00
C158   C     0.64656   0.10399   0.99538   0.00000  Uiso   1.00
C159   C     0.69028   0.72022   0.97400   0.00000  Uiso   1.00
C160   C     0.65960   0.66722   0.90826   0.00000  Uiso   1.00
C161   C     0.74218   0.61938   0.92349   0.00000  Uiso   1.00
H162   H     0.89970   0.79132   0.17592   0.00000  Uiso   1.00
H163   H     0.86175   0.68004   0.24422   0.00000  Uiso   1.00
H164   H     0.90116   0.01395   0.17736   0.00000  Uiso   1.00
H165   H     0.96675   0.68146   0.12804   0.00000  Uiso   1.00
H166   H     0.77148   0.55447   0.28546   0.00000  Uiso   1.00
H167   H     0.85459   0.25853   0.14448   0.00000  Uiso   1.00
H168   H     0.99290   0.55743   0.04048   0.00000  Uiso   1.00
H169   H     0.52835   0.77412   0.91022   0.00000  Uiso   1.00
H170   H     0.47003   0.66189   0.96393   0.00000  Uiso   1.00
H171   H     0.50944   0.99581   0.89708   0.00000  Uiso   1.00
H172   H     0.57503   0.66332   0.84776   0.00000  Uiso   1.00
H173   H     0.45355   0.53975   0.05797   0.00000  Uiso   1.00
H174   H     0.53666   0.24381   0.91700   0.00000  Uiso   1.00
H175   H     0.67497   0.54270   0.81299   0.00000  Uiso   1.00
O176   O     0.58084   0.47362   0.21185   0.00000  Uiso   1.00
O177   O     0.68988   0.39733   0.02689   0.00000  Uiso   1.00
O178   O     0.87134   0.47749   0.89045   0.00000  Uiso   1.00
N179   N     0.70466   0.56639   0.22454   0.00000  Uiso   1.00
N180   N     0.78236   0.22465   0.09275   0.00000  Uiso   1.00
N181   N     0.91168   0.56920   0.99551   0.00000  Uiso   1.00
N182   N     0.53359   0.55846   0.10214   0.00000  Uiso   1.00
N183   N     0.61128   0.21672   0.97034   0.00000  Uiso   1.00
N184   N     0.74060   0.56127   0.87310   0.00000  Uiso   1.00
