data_job_05826
_audit_creation_date              2018-12-19
_audit_creation_method            'Materials Studio'
_symmetry_space_group_name_H-M    'P1'
_symmetry_Int_Tables_number       1
_symmetry_cell_setting            triclinic
loop_
_symmetry_equiv_pos_as_xyz
  x,y,z
_cell_length_a                    25.8178
_cell_length_b                    25.8178
_cell_length_c                    7.8653
_cell_angle_alpha                 90.0000
_cell_angle_beta                  90.0000
_cell_angle_gamma                 90.0000
loop_
_atom_site_label
_atom_site_type_symbol
_atom_site_fract_x
_atom_site_fract_y
_atom_site_fract_z
_atom_site_U_iso_or_equiv
_atom_site_adp_type
_atom_site_occupancy
C1     C     0.92054   0.23969   0.99342   0.00000  Uiso   1.00
C2     C     0.95179   0.27985   0.89496   0.00000  Uiso   1.00
C3     C     0.95689   0.33176   0.93760   0.00000  Uiso   1.00
C4     C     0.98716   0.36216   0.83117   0.00000  Uiso   1.00
C5     C     0.03197   0.42768   0.70012   0.00000  Uiso   1.00
C6     C     0.88217   0.21673   0.86675   0.00000  Uiso   1.00
C7     C     0.82873   0.21557   0.88570   0.00000  Uiso   1.00
C8     C     0.80040   0.19284   0.75553   0.00000  Uiso   1.00
C9     C     0.73712   0.16034   0.58075   0.00000  Uiso   1.00
C10    C     0.95827   0.19625   0.03706   0.00000  Uiso   1.00
C11    C     0.96883   0.17785   0.19920   0.00000  Uiso   1.00
C12    C     0.00456   0.13786   0.21242   0.00000  Uiso   1.00
C13    C     0.05946   0.07355   0.30207   0.00000  Uiso   1.00
C14    C     0.96522   0.20138   0.72860   0.00000  Uiso   1.00
C15    C     0.97606   0.25904   0.75112   0.00000  Uiso   1.00
C16    C     0.00633   0.28937   0.64460   0.00000  Uiso   1.00
C17    C     0.01148   0.34132   0.68708   0.00000  Uiso   1.00
C18    C     0.90643   0.19592   0.72292   0.00000  Uiso   1.00
C19    C     0.87817   0.17318   0.59270   0.00000  Uiso   1.00
C20    C     0.82471   0.17199   0.61143   0.00000  Uiso   1.00
C21    C     0.98255   0.17544   0.89323   0.00000  Uiso   1.00
C22    C     0.01827   0.13547   0.90620   0.00000  Uiso   1.00
C23    C     0.02887   0.11701   0.06832   0.00000  Uiso   1.00
H24    H     0.90164   0.25589   0.10540   0.00000  Uiso   1.00
H25    H     0.93810   0.34785   0.04892   0.00000  Uiso   1.00
H26    H     0.80996   0.23167   0.99703   0.00000  Uiso   1.00
H27    H     0.95004   0.19396   0.31048   0.00000  Uiso   1.00
H28    H     0.98921   0.44062   0.92282   0.00000  Uiso   1.00
H29    H     0.71903   0.19565   0.81344   0.00000  Uiso   1.00
H30    H     0.01440   0.11612   0.47442   0.00000  Uiso   1.00
H31    H     0.98412   0.18518   0.61661   0.00000  Uiso   1.00
H32    H     0.02511   0.27326   0.53330   0.00000  Uiso   1.00
H33    H     0.89697   0.15708   0.48141   0.00000  Uiso   1.00
H34    H     0.03704   0.11937   0.79486   0.00000  Uiso   1.00
H35    H     0.05982   0.38008   0.50432   0.00000  Uiso   1.00
H36    H     0.78964   0.13510   0.39495   0.00000  Uiso   1.00
H37    H     0.08502   0.05559   0.05592   0.00000  Uiso   1.00
O38    O     0.04998   0.46957   0.66756   0.00000  Uiso   1.00
O39    O     0.69551   0.14816   0.52407   0.00000  Uiso   1.00
O40    O     0.08304   0.04384   0.39125   0.00000  Uiso   1.00
N41    N     0.00021   0.41429   0.83578   0.00000  Uiso   1.00
N42    N     0.74761   0.18525   0.73350   0.00000  Uiso   1.00
N43    N     0.02375   0.11090   0.35145   0.00000  Uiso   1.00
N44    N     0.03821   0.38171   0.61059   0.00000  Uiso   1.00
N45    N     0.78561   0.15268   0.50831   0.00000  Uiso   1.00
N46    N     0.06175   0.07832   0.12627   0.00000  Uiso   1.00
C47    C     0.07946   0.76031   0.99342   0.00000  Uiso   1.00
C48    C     0.04821   0.72015   0.89496   0.00000  Uiso   1.00
C49    C     0.04311   0.66824   0.93760   0.00000  Uiso   1.00
C50    C     0.01284   0.63784   0.83117   0.00000  Uiso   1.00
C51    C     0.96803   0.57232   0.70012   0.00000  Uiso   1.00
C52    C     0.11783   0.78327   0.86675   0.00000  Uiso   1.00
C53    C     0.17127   0.78443   0.88570   0.00000  Uiso   1.00
C54    C     0.19960   0.80716   0.75553   0.00000  Uiso   1.00
C55    C     0.26288   0.83966   0.58075   0.00000  Uiso   1.00
C56    C     0.04173   0.80375   0.03706   0.00000  Uiso   1.00
C57    C     0.03117   0.82215   0.19920   0.00000  Uiso   1.00
C58    C     0.99544   0.86214   0.21242   0.00000  Uiso   1.00
C59    C     0.94054   0.92645   0.30207   0.00000  Uiso   1.00
C60    C     0.03478   0.79862   0.72860   0.00000  Uiso   1.00
C61    C     0.02394   0.74096   0.75112   0.00000  Uiso   1.00
C62    C     0.99367   0.71063   0.64460   0.00000  Uiso   1.00
C63    C     0.98852   0.65868   0.68708   0.00000  Uiso   1.00
C64    C     0.09357   0.80408   0.72292   0.00000  Uiso   1.00
C65    C     0.12183   0.82682   0.59270   0.00000  Uiso   1.00
C66    C     0.17529   0.82801   0.61143   0.00000  Uiso   1.00
C67    C     0.01745   0.82456   0.89323   0.00000  Uiso   1.00
C68    C     0.98173   0.86453   0.90620   0.00000  Uiso   1.00
C69    C     0.97113   0.88299   0.06832   0.00000  Uiso   1.00
H70    H     0.09836   0.74411   0.10540   0.00000  Uiso   1.00
H71    H     0.06190   0.65215   0.04892   0.00000  Uiso   1.00
H72    H     0.19004   0.76833   0.99703   0.00000  Uiso   1.00
H73    H     0.04996   0.80604   0.31048   0.00000  Uiso   1.00
H74    H     0.01079   0.55938   0.92282   0.00000  Uiso   1.00
H75    H     0.28097   0.80435   0.81344   0.00000  Uiso   1.00
H76    H     0.98560   0.88388   0.47442   0.00000  Uiso   1.00
H77    H     0.01588   0.81482   0.61661   0.00000  Uiso   1.00
H78    H     0.97489   0.72674   0.53330   0.00000  Uiso   1.00
H79    H     0.10303   0.84292   0.48141   0.00000  Uiso   1.00
H80    H     0.96296   0.88063   0.79486   0.00000  Uiso   1.00
H81    H     0.94018   0.61992   0.50432   0.00000  Uiso   1.00
H82    H     0.21036   0.86490   0.39495   0.00000  Uiso   1.00
H83    H     0.91498   0.94441   0.05592   0.00000  Uiso   1.00
O84    O     0.95002   0.53043   0.66756   0.00000  Uiso   1.00
O85    O     0.30449   0.85184   0.52407   0.00000  Uiso   1.00
O86    O     0.91696   0.95616   0.39125   0.00000  Uiso   1.00
N87    N     0.99979   0.58571   0.83578   0.00000  Uiso   1.00
N88    N     0.25239   0.81475   0.73350   0.00000  Uiso   1.00
N89    N     0.97625   0.88910   0.35145   0.00000  Uiso   1.00
N90    N     0.96179   0.61829   0.61059   0.00000  Uiso   1.00
N91    N     0.21439   0.84732   0.50831   0.00000  Uiso   1.00
N92    N     0.93825   0.92168   0.12627   0.00000  Uiso   1.00
C93    C     0.26031   0.42054   0.49342   0.00000  Uiso   1.00
C94    C     0.22015   0.45179   0.39496   0.00000  Uiso   1.00
C95    C     0.16824   0.45689   0.43760   0.00000  Uiso   1.00
C96    C     0.13784   0.48716   0.33117   0.00000  Uiso   1.00
C97    C     0.07232   0.53197   0.20012   0.00000  Uiso   1.00
C98    C     0.28327   0.38217   0.36675   0.00000  Uiso   1.00
C99    C     0.28443   0.32873   0.38570   0.00000  Uiso   1.00
C100   C     0.30716   0.30040   0.25553   0.00000  Uiso   1.00
C101   C     0.33966   0.23712   0.08075   0.00000  Uiso   1.00
C102   C     0.30375   0.45827   0.53706   0.00000  Uiso   1.00
C103   C     0.32215   0.46883   0.69920   0.00000  Uiso   1.00
C104   C     0.36214   0.50456   0.71242   0.00000  Uiso   1.00
C105   C     0.42645   0.55946   0.80207   0.00000  Uiso   1.00
C106   C     0.29862   0.46522   0.22860   0.00000  Uiso   1.00
C107   C     0.24096   0.47606   0.25112   0.00000  Uiso   1.00
C108   C     0.21063   0.50633   0.14460   0.00000  Uiso   1.00
C109   C     0.15868   0.51148   0.18708   0.00000  Uiso   1.00
C110   C     0.30408   0.40643   0.22292   0.00000  Uiso   1.00
C111   C     0.32682   0.37817   0.09270   0.00000  Uiso   1.00
C112   C     0.32801   0.32471   0.11143   0.00000  Uiso   1.00
C113   C     0.32456   0.48255   0.39323   0.00000  Uiso   1.00
C114   C     0.36453   0.51827   0.40620   0.00000  Uiso   1.00
C115   C     0.38299   0.52887   0.56832   0.00000  Uiso   1.00
H116   H     0.24411   0.40164   0.60540   0.00000  Uiso   1.00
H117   H     0.15215   0.43810   0.54892   0.00000  Uiso   1.00
H118   H     0.26833   0.30996   0.49703   0.00000  Uiso   1.00
H119   H     0.30604   0.45004   0.81048   0.00000  Uiso   1.00
H120   H     0.05938   0.48921   0.42282   0.00000  Uiso   1.00
H121   H     0.30435   0.21903   0.31344   0.00000  Uiso   1.00
H122   H     0.38388   0.51440   0.97442   0.00000  Uiso   1.00
H123   H     0.31482   0.48412   0.11661   0.00000  Uiso   1.00
H124   H     0.22674   0.52511   0.03330   0.00000  Uiso   1.00
H125   H     0.34292   0.39697   0.98141   0.00000  Uiso   1.00
H126   H     0.38063   0.53704   0.29486   0.00000  Uiso   1.00
H127   H     0.11992   0.55982   0.00432   0.00000  Uiso   1.00
H128   H     0.36490   0.28964   0.89495   0.00000  Uiso   1.00
H129   H     0.44441   0.58502   0.55592   0.00000  Uiso   1.00
O130   O     0.03043   0.54998   0.16756   0.00000  Uiso   1.00
O131   O     0.35184   0.19551   0.02407   0.00000  Uiso   1.00
O132   O     0.45616   0.58304   0.89125   0.00000  Uiso   1.00
N133   N     0.08571   0.50021   0.33578   0.00000  Uiso   1.00
N134   N     0.31475   0.24761   0.23350   0.00000  Uiso   1.00
N135   N     0.38910   0.52375   0.85145   0.00000  Uiso   1.00
N136   N     0.11829   0.53821   0.11059   0.00000  Uiso   1.00
N137   N     0.34732   0.28561   0.00831   0.00000  Uiso   1.00
N138   N     0.42168   0.56175   0.62627   0.00000  Uiso   1.00
C139   C     0.73969   0.57946   0.49342   0.00000  Uiso   1.00
C140   C     0.77985   0.54821   0.39496   0.00000  Uiso   1.00
C141   C     0.83176   0.54311   0.43760   0.00000  Uiso   1.00
C142   C     0.86216   0.51284   0.33117   0.00000  Uiso   1.00
C143   C     0.92768   0.46803   0.20012   0.00000  Uiso   1.00
C144   C     0.71673   0.61783   0.36675   0.00000  Uiso   1.00
C145   C     0.71557   0.67127   0.38570   0.00000  Uiso   1.00
C146   C     0.69284   0.69960   0.25553   0.00000  Uiso   1.00
C147   C     0.66034   0.76288   0.08075   0.00000  Uiso   1.00
C148   C     0.69625   0.54173   0.53706   0.00000  Uiso   1.00
C149   C     0.67785   0.53117   0.69920   0.00000  Uiso   1.00
C150   C     0.63786   0.49544   0.71242   0.00000  Uiso   1.00
C151   C     0.57355   0.44054   0.80207   0.00000  Uiso   1.00
C152   C     0.70138   0.53478   0.22860   0.00000  Uiso   1.00
C153   C     0.75904   0.52394   0.25112   0.00000  Uiso   1.00
C154   C     0.78937   0.49367   0.14460   0.00000  Uiso   1.00
C155   C     0.84132   0.48852   0.18708   0.00000  Uiso   1.00
C156   C     0.69592   0.59357   0.22292   0.00000  Uiso   1.00
C157   C     0.67318   0.62183   0.09270   0.00000  Uiso   1.00
C158   C     0.67199   0.67529   0.11143   0.00000  Uiso   1.00
C159   C     0.67544   0.51745   0.39323   0.00000  Uiso   1.00
C160   C     0.63547   0.48173   0.40620   0.00000  Uiso   1.00
C161   C     0.61701   0.47113   0.56832   0.00000  Uiso   1.00
H162   H     0.75589   0.59836   0.60540   0.00000  Uiso   1.00
H163   H     0.84785   0.56190   0.54892   0.00000  Uiso   1.00
H164   H     0.73167   0.69004   0.49703   0.00000  Uiso   1.00
H165   H     0.69396   0.54996   0.81048   0.00000  Uiso   1.00
H166   H     0.94062   0.51079   0.42282   0.00000  Uiso   1.00
H167   H     0.69565   0.78097   0.31344   0.00000  Uiso   1.00
H168   H     0.61612   0.48560   0.97442   0.00000  Uiso   1.00
H169   H     0.68518   0.51588   0.11661   0.00000  Uiso   1.00
H170   H     0.77326   0.47489   0.03330   0.00000  Uiso   1.00
H171   H     0.65708   0.60303   0.98141   0.00000  Uiso   1.00
H172   H     0.61937   0.46296   0.29486   0.00000  Uiso   1.00
H173   H     0.88008   0.44018   0.00432   0.00000  Uiso   1.00
H174   H     0.63510   0.71036   0.89495   0.00000  Uiso   1.00
H175   H     0.55559   0.41498   0.55592   0.00000  Uiso   1.00
O176   O     0.96957   0.45002   0.16756   0.00000  Uiso   1.00
O177   O     0.64816   0.80449   0.02407   0.00000  Uiso   1.00
O178   O     0.54384   0.41696   0.89125   0.00000  Uiso   1.00
N179   N     0.91429   0.49979   0.33578   0.00000  Uiso   1.00
N180   N     0.68525   0.75239   0.23350   0.00000  Uiso   1.00
N181   N     0.61090   0.47625   0.85145   0.00000  Uiso   1.00
N182   N     0.88171   0.46179   0.11059   0.00000  Uiso   1.00
N183   N     0.65268   0.71439   0.00831   0.00000  Uiso   1.00
N184   N     0.57832   0.43825   0.62627   0.00000  Uiso   1.00
C185   C     0.57946   0.26031   0.50658   0.00000  Uiso   1.00
C186   C     0.54821   0.22015   0.60504   0.00000  Uiso   1.00
C187   C     0.54311   0.16824   0.56240   0.00000  Uiso   1.00
C188   C     0.51284   0.13784   0.66883   0.00000  Uiso   1.00
C189   C     0.46803   0.07232   0.79988   0.00000  Uiso   1.00
C190   C     0.61783   0.28327   0.63325   0.00000  Uiso   1.00
C191   C     0.67127   0.28443   0.61430   0.00000  Uiso   1.00
C192   C     0.69960   0.30716   0.74447   0.00000  Uiso   1.00
C193   C     0.76288   0.33966   0.91925   0.00000  Uiso   1.00
C194   C     0.54173   0.30375   0.46294   0.00000  Uiso   1.00
C195   C     0.53117   0.32215   0.30080   0.00000  Uiso   1.00
C196   C     0.49544   0.36214   0.28758   0.00000  Uiso   1.00
C197   C     0.44054   0.42645   0.19793   0.00000  Uiso   1.00
C198   C     0.53478   0.29862   0.77140   0.00000  Uiso   1.00
C199   C     0.52394   0.24096   0.74888   0.00000  Uiso   1.00
C200   C     0.49367   0.21063   0.85540   0.00000  Uiso   1.00
C201   C     0.48852   0.15868   0.81292   0.00000  Uiso   1.00
C202   C     0.59357   0.30408   0.77708   0.00000  Uiso   1.00
C203   C     0.62183   0.32682   0.90730   0.00000  Uiso   1.00
C204   C     0.67529   0.32801   0.88857   0.00000  Uiso   1.00
C205   C     0.51745   0.32456   0.60677   0.00000  Uiso   1.00
C206   C     0.48173   0.36453   0.59380   0.00000  Uiso   1.00
C207   C     0.47113   0.38299   0.43168   0.00000  Uiso   1.00
H208   H     0.59836   0.24411   0.39460   0.00000  Uiso   1.00
H209   H     0.56190   0.15215   0.45108   0.00000  Uiso   1.00
H210   H     0.69004   0.26833   0.50297   0.00000  Uiso   1.00
H211   H     0.54996   0.30604   0.18952   0.00000  Uiso   1.00
H212   H     0.51079   0.05938   0.57718   0.00000  Uiso   1.00
H213   H     0.78097   0.30435   0.68656   0.00000  Uiso   1.00
H214   H     0.48560   0.38388   0.02558   0.00000  Uiso   1.00
H215   H     0.51588   0.31482   0.88339   0.00000  Uiso   1.00
H216   H     0.47489   0.22674   0.96670   0.00000  Uiso   1.00
H217   H     0.60303   0.34292   0.01859   0.00000  Uiso   1.00
H218   H     0.46296   0.38063   0.70514   0.00000  Uiso   1.00
H219   H     0.44018   0.11992   0.99568   0.00000  Uiso   1.00
H220   H     0.71036   0.36490   0.10505   0.00000  Uiso   1.00
H221   H     0.41498   0.44441   0.44408   0.00000  Uiso   1.00
O222   O     0.45002   0.03043   0.83244   0.00000  Uiso   1.00
O223   O     0.80449   0.35184   0.97593   0.00000  Uiso   1.00
O224   O     0.41696   0.45616   0.10875   0.00000  Uiso   1.00
N225   N     0.49979   0.08571   0.66422   0.00000  Uiso   1.00
N226   N     0.75239   0.31475   0.76650   0.00000  Uiso   1.00
N227   N     0.47625   0.38910   0.14855   0.00000  Uiso   1.00
N228   N     0.46179   0.11829   0.88941   0.00000  Uiso   1.00
N229   N     0.71439   0.34732   0.99169   0.00000  Uiso   1.00
N230   N     0.43825   0.42168   0.37373   0.00000  Uiso   1.00
C231   C     0.42054   0.73969   0.50658   0.00000  Uiso   1.00
C232   C     0.45179   0.77985   0.60504   0.00000  Uiso   1.00
C233   C     0.45689   0.83176   0.56240   0.00000  Uiso   1.00
C234   C     0.48716   0.86216   0.66883   0.00000  Uiso   1.00
C235   C     0.53197   0.92768   0.79988   0.00000  Uiso   1.00
C236   C     0.38217   0.71673   0.63325   0.00000  Uiso   1.00
C237   C     0.32873   0.71557   0.61430   0.00000  Uiso   1.00
C238   C     0.30040   0.69284   0.74447   0.00000  Uiso   1.00
C239   C     0.23712   0.66034   0.91925   0.00000  Uiso   1.00
C240   C     0.45827   0.69625   0.46294   0.00000  Uiso   1.00
C241   C     0.46883   0.67785   0.30080   0.00000  Uiso   1.00
C242   C     0.50456   0.63786   0.28758   0.00000  Uiso   1.00
C243   C     0.55946   0.57355   0.19793   0.00000  Uiso   1.00
C244   C     0.46522   0.70138   0.77140   0.00000  Uiso   1.00
C245   C     0.47606   0.75904   0.74888   0.00000  Uiso   1.00
C246   C     0.50633   0.78937   0.85540   0.00000  Uiso   1.00
C247   C     0.51148   0.84132   0.81292   0.00000  Uiso   1.00
C248   C     0.40643   0.69592   0.77708   0.00000  Uiso   1.00
C249   C     0.37817   0.67318   0.90730   0.00000  Uiso   1.00
C250   C     0.32471   0.67199   0.88857   0.00000  Uiso   1.00
C251   C     0.48255   0.67544   0.60677   0.00000  Uiso   1.00
C252   C     0.51827   0.63547   0.59380   0.00000  Uiso   1.00
C253   C     0.52887   0.61701   0.43168   0.00000  Uiso   1.00
H254   H     0.40164   0.75589   0.39460   0.00000  Uiso   1.00
H255   H     0.43810   0.84785   0.45108   0.00000  Uiso   1.00
H256   H     0.30996   0.73167   0.50297   0.00000  Uiso   1.00
H257   H     0.45004   0.69396   0.18952   0.00000  Uiso   1.00
H258   H     0.48921   0.94062   0.57718   0.00000  Uiso   1.00
H259   H     0.21903   0.69565   0.68656   0.00000  Uiso   1.00
H260   H     0.51440   0.61612   0.02558   0.00000  Uiso   1.00
H261   H     0.48412   0.68518   0.88339   0.00000  Uiso   1.00
H262   H     0.52511   0.77326   0.96670   0.00000  Uiso   1.00
H263   H     0.39697   0.65708   0.01859   0.00000  Uiso   1.00
H264   H     0.53704   0.61937   0.70514   0.00000  Uiso   1.00
H265   H     0.55982   0.88008   0.99568   0.00000  Uiso   1.00
H266   H     0.28964   0.63510   0.10505   0.00000  Uiso   1.00
H267   H     0.58502   0.55559   0.44408   0.00000  Uiso   1.00
O268   O     0.54998   0.96957   0.83244   0.00000  Uiso   1.00
O269   O     0.19551   0.64816   0.97593   0.00000  Uiso   1.00
O270   O     0.58304   0.54384   0.10875   0.00000  Uiso   1.00
N271   N     0.50021   0.91429   0.66422   0.00000  Uiso   1.00
N272   N     0.24761   0.68525   0.76650   0.00000  Uiso   1.00
N273   N     0.52375   0.61090   0.14855   0.00000  Uiso   1.00
N274   N     0.53821   0.88171   0.88941   0.00000  Uiso   1.00
N275   N     0.28561   0.65268   0.99169   0.00000  Uiso   1.00
N276   N     0.56175   0.57832   0.37373   0.00000  Uiso   1.00
C277   C     0.23969   0.07946   0.00658   0.00000  Uiso   1.00
C278   C     0.27985   0.04821   0.10504   0.00000  Uiso   1.00
C279   C     0.33176   0.04311   0.06240   0.00000  Uiso   1.00
C280   C     0.36216   0.01284   0.16883   0.00000  Uiso   1.00
C281   C     0.42768   0.96803   0.29988   0.00000  Uiso   1.00
C282   C     0.21673   0.11783   0.13325   0.00000  Uiso   1.00
C283   C     0.21557   0.17127   0.11430   0.00000  Uiso   1.00
C284   C     0.19284   0.19960   0.24447   0.00000  Uiso   1.00
C285   C     0.16034   0.26288   0.41925   0.00000  Uiso   1.00
C286   C     0.19625   0.04173   0.96294   0.00000  Uiso   1.00
C287   C     0.17785   0.03117   0.80080   0.00000  Uiso   1.00
C288   C     0.13786   0.99544   0.78758   0.00000  Uiso   1.00
C289   C     0.07355   0.94054   0.69793   0.00000  Uiso   1.00
C290   C     0.20138   0.03478   0.27140   0.00000  Uiso   1.00
C291   C     0.25904   0.02394   0.24888   0.00000  Uiso   1.00
C292   C     0.28937   0.99367   0.35540   0.00000  Uiso   1.00
C293   C     0.34132   0.98852   0.31292   0.00000  Uiso   1.00
C294   C     0.19592   0.09357   0.27708   0.00000  Uiso   1.00
C295   C     0.17318   0.12183   0.40730   0.00000  Uiso   1.00
C296   C     0.17199   0.17529   0.38857   0.00000  Uiso   1.00
C297   C     0.17544   0.01745   0.10677   0.00000  Uiso   1.00
C298   C     0.13547   0.98173   0.09380   0.00000  Uiso   1.00
C299   C     0.11701   0.97113   0.93168   0.00000  Uiso   1.00
H300   H     0.25589   0.09836   0.89460   0.00000  Uiso   1.00
H301   H     0.34785   0.06190   0.95108   0.00000  Uiso   1.00
H302   H     0.23167   0.19004   0.00297   0.00000  Uiso   1.00
H303   H     0.19396   0.04996   0.68952   0.00000  Uiso   1.00
H304   H     0.44062   0.01079   0.07718   0.00000  Uiso   1.00
H305   H     0.19565   0.28097   0.18656   0.00000  Uiso   1.00
H306   H     0.11612   0.98560   0.52558   0.00000  Uiso   1.00
H307   H     0.18518   0.01588   0.38339   0.00000  Uiso   1.00
H308   H     0.27326   0.97489   0.46670   0.00000  Uiso   1.00
H309   H     0.15708   0.10303   0.51859   0.00000  Uiso   1.00
H310   H     0.11937   0.96296   0.20514   0.00000  Uiso   1.00
H311   H     0.38008   0.94018   0.49568   0.00000  Uiso   1.00
H312   H     0.13510   0.21036   0.60505   0.00000  Uiso   1.00
H313   H     0.05559   0.91498   0.94408   0.00000  Uiso   1.00
O314   O     0.46957   0.95002   0.33244   0.00000  Uiso   1.00
O315   O     0.14816   0.30449   0.47593   0.00000  Uiso   1.00
O316   O     0.04384   0.91696   0.60875   0.00000  Uiso   1.00
N317   N     0.41429   0.99979   0.16422   0.00000  Uiso   1.00
N318   N     0.18525   0.25239   0.26650   0.00000  Uiso   1.00
N319   N     0.11090   0.97625   0.64855   0.00000  Uiso   1.00
N320   N     0.38171   0.96179   0.38941   0.00000  Uiso   1.00
N321   N     0.15268   0.21439   0.49169   0.00000  Uiso   1.00
N322   N     0.07832   0.93825   0.87373   0.00000  Uiso   1.00
C323   C     0.76031   0.92054   0.00658   0.00000  Uiso   1.00
C324   C     0.72015   0.95179   0.10504   0.00000  Uiso   1.00
C325   C     0.66824   0.95689   0.06240   0.00000  Uiso   1.00
C326   C     0.63784   0.98716   0.16883   0.00000  Uiso   1.00
C327   C     0.57232   0.03197   0.29988   0.00000  Uiso   1.00
C328   C     0.78327   0.88217   0.13325   0.00000  Uiso   1.00
C329   C     0.78443   0.82873   0.11430   0.00000  Uiso   1.00
C330   C     0.80716   0.80040   0.24447   0.00000  Uiso   1.00
C331   C     0.83966   0.73712   0.41925   0.00000  Uiso   1.00
C332   C     0.80375   0.95827   0.96294   0.00000  Uiso   1.00
C333   C     0.82215   0.96883   0.80080   0.00000  Uiso   1.00
C334   C     0.86214   0.00456   0.78758   0.00000  Uiso   1.00
C335   C     0.92645   0.05946   0.69793   0.00000  Uiso   1.00
C336   C     0.79862   0.96522   0.27140   0.00000  Uiso   1.00
C337   C     0.74096   0.97606   0.24888   0.00000  Uiso   1.00
C338   C     0.71063   0.00633   0.35540   0.00000  Uiso   1.00
C339   C     0.65868   0.01148   0.31292   0.00000  Uiso   1.00
C340   C     0.80408   0.90643   0.27708   0.00000  Uiso   1.00
C341   C     0.82682   0.87817   0.40730   0.00000  Uiso   1.00
C342   C     0.82801   0.82471   0.38857   0.00000  Uiso   1.00
C343   C     0.82456   0.98255   0.10677   0.00000  Uiso   1.00
C344   C     0.86453   0.01827   0.09380   0.00000  Uiso   1.00
C345   C     0.88299   0.02887   0.93168   0.00000  Uiso   1.00
H346   H     0.74411   0.90164   0.89460   0.00000  Uiso   1.00
H347   H     0.65215   0.93810   0.95108   0.00000  Uiso   1.00
H348   H     0.76833   0.80996   0.00297   0.00000  Uiso   1.00
H349   H     0.80604   0.95004   0.68952   0.00000  Uiso   1.00
H350   H     0.55938   0.98921   0.07718   0.00000  Uiso   1.00
H351   H     0.80435   0.71903   0.18656   0.00000  Uiso   1.00
H352   H     0.88388   0.01440   0.52558   0.00000  Uiso   1.00
H353   H     0.81482   0.98412   0.38339   0.00000  Uiso   1.00
H354   H     0.72674   0.02511   0.46670   0.00000  Uiso   1.00
H355   H     0.84292   0.89697   0.51859   0.00000  Uiso   1.00
H356   H     0.88063   0.03704   0.20514   0.00000  Uiso   1.00
H357   H     0.61992   0.05982   0.49568   0.00000  Uiso   1.00
H358   H     0.86490   0.78964   0.60505   0.00000  Uiso   1.00
H359   H     0.94441   0.08502   0.94408   0.00000  Uiso   1.00
O360   O     0.53043   0.04998   0.33244   0.00000  Uiso   1.00
O361   O     0.85184   0.69551   0.47593   0.00000  Uiso   1.00
O362   O     0.95616   0.08304   0.60875   0.00000  Uiso   1.00
N363   N     0.58571   0.00021   0.16422   0.00000  Uiso   1.00
N364   N     0.81475   0.74761   0.26650   0.00000  Uiso   1.00
N365   N     0.88910   0.02375   0.64855   0.00000  Uiso   1.00
N366   N     0.61829   0.03821   0.38941   0.00000  Uiso   1.00
N367   N     0.84732   0.78561   0.49169   0.00000  Uiso   1.00
N368   N     0.92168   0.06175   0.87373   0.00000  Uiso   1.00
