data_job_03298
_audit_creation_date              2018-12-19
_audit_creation_method            'Materials Studio'
_symmetry_space_group_name_H-M    'P1'
_symmetry_Int_Tables_number       1
_symmetry_cell_setting            triclinic
loop_
_symmetry_equiv_pos_as_xyz
  x,y,z
_cell_length_a                    28.7419
_cell_length_b                    28.7419
_cell_length_c                    8.8268
_cell_angle_alpha                 90.0000
_cell_angle_beta                  90.0000
_cell_angle_gamma                 90.0000
loop_
_atom_site_label
_atom_site_type_symbol
_atom_site_fract_x
_atom_site_fract_y
_atom_site_fract_z
_atom_site_U_iso_or_equiv
_atom_site_adp_type
_atom_site_occupancy
C1     C     0.41949   0.14992   0.41857   0.00000  Uiso   1.00
C2     C     0.38070   0.18516   0.39164   0.00000  Uiso   1.00
C3     C     0.35396   0.18879   0.26126   0.00000  Uiso   1.00
C4     C     0.32020   0.22334   0.25877   0.00000  Uiso   1.00
C5     C     0.26101   0.27353   0.19813   0.00000  Uiso   1.00
C6     C     0.46278   0.17827   0.45672   0.00000  Uiso   1.00
C7     C     0.50506   0.17609   0.38108   0.00000  Uiso   1.00
C8     C     0.54040   0.20482   0.43341   0.00000  Uiso   1.00
C9     C     0.60866   0.24429   0.47389   0.00000  Uiso   1.00
C10    C     0.40650   0.12397   0.56319   0.00000  Uiso   1.00
C11    C     0.40146   0.07614   0.57708   0.00000  Uiso   1.00
C12    C     0.38943   0.05917   0.71905   0.00000  Uiso   1.00
C13    C     0.37029   0.01434   0.92483   0.00000  Uiso   1.00
C14    C     0.40710   0.20483   0.64600   0.00000  Uiso   1.00
C15    C     0.37397   0.21499   0.51517   0.00000  Uiso   1.00
C16    C     0.34025   0.24954   0.51288   0.00000  Uiso   1.00
C17    C     0.31346   0.25321   0.38252   0.00000  Uiso   1.00
C18    C     0.45605   0.20809   0.58025   0.00000  Uiso   1.00
C19    C     0.49135   0.23684   0.63271   0.00000  Uiso   1.00
C20    C     0.53366   0.23470   0.55716   0.00000  Uiso   1.00
C21    C     0.39976   0.15380   0.68672   0.00000  Uiso   1.00
C22    C     0.38775   0.13690   0.82870   0.00000  Uiso   1.00
C23    C     0.38269   0.08905   0.84280   0.00000  Uiso   1.00
H24    H     0.42473   0.12670   0.32239   0.00000  Uiso   1.00
H25    H     0.35918   0.16570   0.16568   0.00000  Uiso   1.00
H26    H     0.51026   0.15300   0.28550   0.00000  Uiso   1.00
H27    H     0.40667   0.05307   0.48146   0.00000  Uiso   1.00
H28    H     0.28355   0.22210   0.04639   0.00000  Uiso   1.00
H29    H     0.60210   0.19530   0.29907   0.00000  Uiso   1.00
H30    H     0.38368   0.98459   0.71229   0.00000  Uiso   1.00
H31    H     0.40186   0.22806   0.74217   0.00000  Uiso   1.00
H32    H     0.33504   0.27262   0.60849   0.00000  Uiso   1.00
H33    H     0.48612   0.25991   0.72831   0.00000  Uiso   1.00
H34    H     0.38254   0.15999   0.92427   0.00000  Uiso   1.00
H35    H     0.26396   0.30888   0.40579   0.00000  Uiso   1.00
H36    H     0.58252   0.28208   0.65847   0.00000  Uiso   1.00
H37    H     0.36409   0.07137   0.07169   0.00000  Uiso   1.00
O38    O     0.23023   0.29299   0.13055   0.00000  Uiso   1.00
O39    O     0.64817   0.25782   0.46208   0.00000  Uiso   1.00
O40    O     0.36159   0.98137   0.00421   0.00000  Uiso   1.00
N41    N     0.28810   0.23640   0.14933   0.00000  Uiso   1.00
N42    N     0.58593   0.21136   0.38555   0.00000  Uiso   1.00
N43    N     0.38173   0.01435   0.77189   0.00000  Uiso   1.00
N44    N     0.27756   0.28310   0.34272   0.00000  Uiso   1.00
N45    N     0.57539   0.25805   0.57895   0.00000  Uiso   1.00
N46    N     0.37119   0.06105   0.96528   0.00000  Uiso   1.00
C47    C     0.58051   0.85008   0.41857   0.00000  Uiso   1.00
C48    C     0.61930   0.81484   0.39164   0.00000  Uiso   1.00
C49    C     0.64604   0.81121   0.26126   0.00000  Uiso   1.00
C50    C     0.67980   0.77666   0.25877   0.00000  Uiso   1.00
C51    C     0.73899   0.72647   0.19813   0.00000  Uiso   1.00
C52    C     0.53722   0.82173   0.45672   0.00000  Uiso   1.00
C53    C     0.49494   0.82391   0.38108   0.00000  Uiso   1.00
C54    C     0.45960   0.79518   0.43341   0.00000  Uiso   1.00
C55    C     0.39134   0.75571   0.47389   0.00000  Uiso   1.00
C56    C     0.59350   0.87603   0.56319   0.00000  Uiso   1.00
C57    C     0.59854   0.92386   0.57708   0.00000  Uiso   1.00
C58    C     0.61057   0.94083   0.71905   0.00000  Uiso   1.00
C59    C     0.62971   0.98566   0.92483   0.00000  Uiso   1.00
C60    C     0.59290   0.79517   0.64600   0.00000  Uiso   1.00
C61    C     0.62603   0.78501   0.51517   0.00000  Uiso   1.00
C62    C     0.65975   0.75046   0.51288   0.00000  Uiso   1.00
C63    C     0.68654   0.74679   0.38252   0.00000  Uiso   1.00
C64    C     0.54395   0.79191   0.58025   0.00000  Uiso   1.00
C65    C     0.50865   0.76316   0.63271   0.00000  Uiso   1.00
C66    C     0.46634   0.76530   0.55716   0.00000  Uiso   1.00
C67    C     0.60024   0.84620   0.68672   0.00000  Uiso   1.00
C68    C     0.61225   0.86310   0.82870   0.00000  Uiso   1.00
C69    C     0.61731   0.91095   0.84280   0.00000  Uiso   1.00
H70    H     0.57527   0.87330   0.32239   0.00000  Uiso   1.00
H71    H     0.64082   0.83430   0.16568   0.00000  Uiso   1.00
H72    H     0.48974   0.84700   0.28550   0.00000  Uiso   1.00
H73    H     0.59333   0.94693   0.48146   0.00000  Uiso   1.00
H74    H     0.71645   0.77790   0.04639   0.00000  Uiso   1.00
H75    H     0.39790   0.80470   0.29907   0.00000  Uiso   1.00
H76    H     0.61632   0.01541   0.71229   0.00000  Uiso   1.00
H77    H     0.59814   0.77194   0.74217   0.00000  Uiso   1.00
H78    H     0.66496   0.72738   0.60849   0.00000  Uiso   1.00
H79    H     0.51388   0.74009   0.72831   0.00000  Uiso   1.00
H80    H     0.61746   0.84001   0.92427   0.00000  Uiso   1.00
H81    H     0.73604   0.69112   0.40579   0.00000  Uiso   1.00
H82    H     0.41748   0.71792   0.65847   0.00000  Uiso   1.00
H83    H     0.63591   0.92863   0.07169   0.00000  Uiso   1.00
O84    O     0.76977   0.70701   0.13055   0.00000  Uiso   1.00
O85    O     0.35183   0.74218   0.46208   0.00000  Uiso   1.00
O86    O     0.63841   0.01863   0.00421   0.00000  Uiso   1.00
N87    N     0.71190   0.76360   0.14933   0.00000  Uiso   1.00
N88    N     0.41407   0.78864   0.38555   0.00000  Uiso   1.00
N89    N     0.61827   0.98565   0.77189   0.00000  Uiso   1.00
N90    N     0.72244   0.71690   0.34272   0.00000  Uiso   1.00
N91    N     0.42461   0.74195   0.57895   0.00000  Uiso   1.00
N92    N     0.62881   0.93895   0.96528   0.00000  Uiso   1.00
C93    C     0.35008   0.91949   0.41857   0.00000  Uiso   1.00
C94    C     0.31484   0.88070   0.39164   0.00000  Uiso   1.00
C95    C     0.31121   0.85396   0.26126   0.00000  Uiso   1.00
C96    C     0.27666   0.82020   0.25877   0.00000  Uiso   1.00
C97    C     0.22647   0.76101   0.19813   0.00000  Uiso   1.00
C98    C     0.32173   0.96278   0.45672   0.00000  Uiso   1.00
C99    C     0.32391   0.00506   0.38108   0.00000  Uiso   1.00
C100   C     0.29518   0.04040   0.43341   0.00000  Uiso   1.00
C101   C     0.25571   0.10866   0.47389   0.00000  Uiso   1.00
C102   C     0.37603   0.90650   0.56319   0.00000  Uiso   1.00
C103   C     0.42386   0.90146   0.57708   0.00000  Uiso   1.00
C104   C     0.44083   0.88943   0.71905   0.00000  Uiso   1.00
C105   C     0.48566   0.87029   0.92483   0.00000  Uiso   1.00
C106   C     0.29517   0.90710   0.64600   0.00000  Uiso   1.00
C107   C     0.28501   0.87397   0.51517   0.00000  Uiso   1.00
C108   C     0.25046   0.84025   0.51288   0.00000  Uiso   1.00
C109   C     0.24679   0.81346   0.38252   0.00000  Uiso   1.00
C110   C     0.29191   0.95605   0.58025   0.00000  Uiso   1.00
C111   C     0.26316   0.99135   0.63271   0.00000  Uiso   1.00
C112   C     0.26530   0.03366   0.55716   0.00000  Uiso   1.00
C113   C     0.34620   0.89976   0.68672   0.00000  Uiso   1.00
C114   C     0.36310   0.88775   0.82870   0.00000  Uiso   1.00
C115   C     0.41095   0.88269   0.84280   0.00000  Uiso   1.00
H116   H     0.37330   0.92473   0.32239   0.00000  Uiso   1.00
H117   H     0.33430   0.85918   0.16568   0.00000  Uiso   1.00
H118   H     0.34700   0.01026   0.28550   0.00000  Uiso   1.00
H119   H     0.44693   0.90667   0.48146   0.00000  Uiso   1.00
H120   H     0.27790   0.78355   0.04639   0.00000  Uiso   1.00
H121   H     0.30470   0.10210   0.29907   0.00000  Uiso   1.00
H122   H     0.51541   0.88368   0.71229   0.00000  Uiso   1.00
H123   H     0.27194   0.90186   0.74217   0.00000  Uiso   1.00
H124   H     0.22738   0.83504   0.60849   0.00000  Uiso   1.00
H125   H     0.24009   0.98612   0.72831   0.00000  Uiso   1.00
H126   H     0.34001   0.88254   0.92427   0.00000  Uiso   1.00
H127   H     0.19112   0.76396   0.40579   0.00000  Uiso   1.00
H128   H     0.21792   0.08252   0.65847   0.00000  Uiso   1.00
H129   H     0.42863   0.86409   0.07169   0.00000  Uiso   1.00
O130   O     0.20701   0.73023   0.13055   0.00000  Uiso   1.00
O131   O     0.24218   0.14817   0.46208   0.00000  Uiso   1.00
O132   O     0.51863   0.86159   0.00421   0.00000  Uiso   1.00
N133   N     0.26360   0.78810   0.14933   0.00000  Uiso   1.00
N134   N     0.28864   0.08593   0.38555   0.00000  Uiso   1.00
N135   N     0.48565   0.88173   0.77189   0.00000  Uiso   1.00
N136   N     0.21690   0.77756   0.34272   0.00000  Uiso   1.00
N137   N     0.24195   0.07539   0.57895   0.00000  Uiso   1.00
N138   N     0.43895   0.87119   0.96528   0.00000  Uiso   1.00
C139   C     0.64992   0.08051   0.41857   0.00000  Uiso   1.00
C140   C     0.68516   0.11930   0.39164   0.00000  Uiso   1.00
C141   C     0.68879   0.14604   0.26126   0.00000  Uiso   1.00
C142   C     0.72334   0.17980   0.25877   0.00000  Uiso   1.00
C143   C     0.77353   0.23899   0.19813   0.00000  Uiso   1.00
C144   C     0.67827   0.03722   0.45672   0.00000  Uiso   1.00
C145   C     0.67609   0.99494   0.38108   0.00000  Uiso   1.00
C146   C     0.70482   0.95960   0.43341   0.00000  Uiso   1.00
C147   C     0.74429   0.89134   0.47389   0.00000  Uiso   1.00
C148   C     0.62397   0.09350   0.56319   0.00000  Uiso   1.00
C149   C     0.57614   0.09854   0.57708   0.00000  Uiso   1.00
C150   C     0.55917   0.11057   0.71905   0.00000  Uiso   1.00
C151   C     0.51434   0.12971   0.92483   0.00000  Uiso   1.00
C152   C     0.70483   0.09290   0.64600   0.00000  Uiso   1.00
C153   C     0.71499   0.12603   0.51517   0.00000  Uiso   1.00
C154   C     0.74954   0.15975   0.51288   0.00000  Uiso   1.00
C155   C     0.75321   0.18654   0.38252   0.00000  Uiso   1.00
C156   C     0.70809   0.04395   0.58025   0.00000  Uiso   1.00
C157   C     0.73684   0.00865   0.63271   0.00000  Uiso   1.00
C158   C     0.73470   0.96634   0.55716   0.00000  Uiso   1.00
C159   C     0.65380   0.10024   0.68672   0.00000  Uiso   1.00
C160   C     0.63690   0.11225   0.82870   0.00000  Uiso   1.00
C161   C     0.58905   0.11731   0.84280   0.00000  Uiso   1.00
H162   H     0.62670   0.07527   0.32239   0.00000  Uiso   1.00
H163   H     0.66570   0.14082   0.16568   0.00000  Uiso   1.00
H164   H     0.65300   0.98974   0.28550   0.00000  Uiso   1.00
H165   H     0.55307   0.09333   0.48146   0.00000  Uiso   1.00
H166   H     0.72210   0.21645   0.04639   0.00000  Uiso   1.00
H167   H     0.69530   0.89790   0.29907   0.00000  Uiso   1.00
H168   H     0.48459   0.11632   0.71229   0.00000  Uiso   1.00
H169   H     0.72806   0.09814   0.74217   0.00000  Uiso   1.00
H170   H     0.77262   0.16496   0.60849   0.00000  Uiso   1.00
H171   H     0.75991   0.01388   0.72831   0.00000  Uiso   1.00
H172   H     0.65999   0.11746   0.92427   0.00000  Uiso   1.00
H173   H     0.80888   0.23604   0.40579   0.00000  Uiso   1.00
H174   H     0.78208   0.91748   0.65847   0.00000  Uiso   1.00
H175   H     0.57137   0.13591   0.07169   0.00000  Uiso   1.00
O176   O     0.79299   0.26977   0.13055   0.00000  Uiso   1.00
O177   O     0.75782   0.85183   0.46208   0.00000  Uiso   1.00
O178   O     0.48137   0.13841   0.00421   0.00000  Uiso   1.00
N179   N     0.73640   0.21190   0.14933   0.00000  Uiso   1.00
N180   N     0.71136   0.91407   0.38555   0.00000  Uiso   1.00
N181   N     0.51435   0.11827   0.77189   0.00000  Uiso   1.00
N182   N     0.78310   0.22244   0.34272   0.00000  Uiso   1.00
N183   N     0.75805   0.92461   0.57895   0.00000  Uiso   1.00
N184   N     0.56105   0.12881   0.96528   0.00000  Uiso   1.00
C185   C     0.08051   0.35008   0.58143   0.00000  Uiso   1.00
C186   C     0.11930   0.31484   0.60836   0.00000  Uiso   1.00
C187   C     0.14604   0.31121   0.73874   0.00000  Uiso   1.00
C188   C     0.17980   0.27666   0.74123   0.00000  Uiso   1.00
C189   C     0.23899   0.22647   0.80187   0.00000  Uiso   1.00
C190   C     0.03722   0.32173   0.54328   0.00000  Uiso   1.00
C191   C     0.99494   0.32391   0.61892   0.00000  Uiso   1.00
C192   C     0.95960   0.29518   0.56659   0.00000  Uiso   1.00
C193   C     0.89134   0.25571   0.52611   0.00000  Uiso   1.00
C194   C     0.09350   0.37603   0.43681   0.00000  Uiso   1.00
C195   C     0.09854   0.42386   0.42292   0.00000  Uiso   1.00
C196   C     0.11057   0.44083   0.28095   0.00000  Uiso   1.00
C197   C     0.12971   0.48566   0.07517   0.00000  Uiso   1.00
C198   C     0.09290   0.29517   0.35400   0.00000  Uiso   1.00
C199   C     0.12603   0.28501   0.48483   0.00000  Uiso   1.00
C200   C     0.15975   0.25046   0.48712   0.00000  Uiso   1.00
C201   C     0.18654   0.24679   0.61748   0.00000  Uiso   1.00
C202   C     0.04395   0.29191   0.41975   0.00000  Uiso   1.00
C203   C     0.00865   0.26316   0.36729   0.00000  Uiso   1.00
C204   C     0.96634   0.26530   0.44284   0.00000  Uiso   1.00
C205   C     0.10024   0.34620   0.31328   0.00000  Uiso   1.00
C206   C     0.11225   0.36310   0.17130   0.00000  Uiso   1.00
C207   C     0.11731   0.41095   0.15720   0.00000  Uiso   1.00
H208   H     0.07527   0.37330   0.67761   0.00000  Uiso   1.00
H209   H     0.14082   0.33430   0.83432   0.00000  Uiso   1.00
H210   H     0.98974   0.34700   0.71450   0.00000  Uiso   1.00
H211   H     0.09333   0.44693   0.51854   0.00000  Uiso   1.00
H212   H     0.21645   0.27790   0.95361   0.00000  Uiso   1.00
H213   H     0.89790   0.30470   0.70093   0.00000  Uiso   1.00
H214   H     0.11632   0.51541   0.28771   0.00000  Uiso   1.00
H215   H     0.09814   0.27194   0.25783   0.00000  Uiso   1.00
H216   H     0.16496   0.22738   0.39151   0.00000  Uiso   1.00
H217   H     0.01388   0.24009   0.27169   0.00000  Uiso   1.00
H218   H     0.11746   0.34001   0.07573   0.00000  Uiso   1.00
H219   H     0.23604   0.19112   0.59421   0.00000  Uiso   1.00
H220   H     0.91748   0.21792   0.34153   0.00000  Uiso   1.00
H221   H     0.13591   0.42863   0.92831   0.00000  Uiso   1.00
O222   O     0.26977   0.20701   0.86945   0.00000  Uiso   1.00
O223   O     0.85183   0.24218   0.53792   0.00000  Uiso   1.00
O224   O     0.13841   0.51863   0.99579   0.00000  Uiso   1.00
N225   N     0.21190   0.26360   0.85067   0.00000  Uiso   1.00
N226   N     0.91407   0.28864   0.61445   0.00000  Uiso   1.00
N227   N     0.11827   0.48565   0.22811   0.00000  Uiso   1.00
N228   N     0.22244   0.21690   0.65728   0.00000  Uiso   1.00
N229   N     0.92461   0.24195   0.42105   0.00000  Uiso   1.00
N230   N     0.12881   0.43895   0.03472   0.00000  Uiso   1.00
C231   C     0.91949   0.64992   0.58143   0.00000  Uiso   1.00
C232   C     0.88070   0.68516   0.60836   0.00000  Uiso   1.00
C233   C     0.85396   0.68879   0.73874   0.00000  Uiso   1.00
C234   C     0.82020   0.72334   0.74123   0.00000  Uiso   1.00
C235   C     0.76101   0.77353   0.80187   0.00000  Uiso   1.00
C236   C     0.96278   0.67827   0.54328   0.00000  Uiso   1.00
C237   C     0.00506   0.67609   0.61892   0.00000  Uiso   1.00
C238   C     0.04040   0.70482   0.56659   0.00000  Uiso   1.00
C239   C     0.10866   0.74429   0.52611   0.00000  Uiso   1.00
C240   C     0.90650   0.62397   0.43681   0.00000  Uiso   1.00
C241   C     0.90146   0.57614   0.42292   0.00000  Uiso   1.00
C242   C     0.88943   0.55917   0.28095   0.00000  Uiso   1.00
C243   C     0.87029   0.51434   0.07517   0.00000  Uiso   1.00
C244   C     0.90710   0.70483   0.35400   0.00000  Uiso   1.00
C245   C     0.87397   0.71499   0.48483   0.00000  Uiso   1.00
C246   C     0.84025   0.74954   0.48712   0.00000  Uiso   1.00
C247   C     0.81346   0.75321   0.61748   0.00000  Uiso   1.00
C248   C     0.95605   0.70809   0.41975   0.00000  Uiso   1.00
C249   C     0.99135   0.73684   0.36729   0.00000  Uiso   1.00
C250   C     0.03366   0.73470   0.44284   0.00000  Uiso   1.00
C251   C     0.89976   0.65380   0.31328   0.00000  Uiso   1.00
C252   C     0.88775   0.63690   0.17130   0.00000  Uiso   1.00
C253   C     0.88269   0.58905   0.15720   0.00000  Uiso   1.00
H254   H     0.92473   0.62670   0.67761   0.00000  Uiso   1.00
H255   H     0.85918   0.66570   0.83432   0.00000  Uiso   1.00
H256   H     0.01026   0.65300   0.71450   0.00000  Uiso   1.00
H257   H     0.90667   0.55307   0.51854   0.00000  Uiso   1.00
H258   H     0.78355   0.72210   0.95361   0.00000  Uiso   1.00
H259   H     0.10210   0.69530   0.70093   0.00000  Uiso   1.00
H260   H     0.88368   0.48459   0.28771   0.00000  Uiso   1.00
H261   H     0.90186   0.72806   0.25783   0.00000  Uiso   1.00
H262   H     0.83504   0.77262   0.39151   0.00000  Uiso   1.00
H263   H     0.98612   0.75991   0.27169   0.00000  Uiso   1.00
H264   H     0.88254   0.65999   0.07573   0.00000  Uiso   1.00
H265   H     0.76396   0.80888   0.59421   0.00000  Uiso   1.00
H266   H     0.08252   0.78208   0.34153   0.00000  Uiso   1.00
H267   H     0.86409   0.57137   0.92831   0.00000  Uiso   1.00
O268   O     0.73023   0.79299   0.86945   0.00000  Uiso   1.00
O269   O     0.14817   0.75782   0.53792   0.00000  Uiso   1.00
O270   O     0.86159   0.48137   0.99579   0.00000  Uiso   1.00
N271   N     0.78810   0.73640   0.85067   0.00000  Uiso   1.00
N272   N     0.08593   0.71136   0.61445   0.00000  Uiso   1.00
N273   N     0.88173   0.51435   0.22811   0.00000  Uiso   1.00
N274   N     0.77756   0.78310   0.65728   0.00000  Uiso   1.00
N275   N     0.07539   0.75805   0.42105   0.00000  Uiso   1.00
N276   N     0.87119   0.56105   0.03472   0.00000  Uiso   1.00
C277   C     0.14992   0.58051   0.58143   0.00000  Uiso   1.00
C278   C     0.18516   0.61930   0.60836   0.00000  Uiso   1.00
C279   C     0.18879   0.64604   0.73874   0.00000  Uiso   1.00
C280   C     0.22334   0.67980   0.74123   0.00000  Uiso   1.00
C281   C     0.27353   0.73899   0.80187   0.00000  Uiso   1.00
C282   C     0.17827   0.53722   0.54328   0.00000  Uiso   1.00
C283   C     0.17609   0.49494   0.61892   0.00000  Uiso   1.00
C284   C     0.20482   0.45960   0.56659   0.00000  Uiso   1.00
C285   C     0.24429   0.39134   0.52611   0.00000  Uiso   1.00
C286   C     0.12397   0.59350   0.43681   0.00000  Uiso   1.00
C287   C     0.07614   0.59854   0.42292   0.00000  Uiso   1.00
C288   C     0.05917   0.61057   0.28095   0.00000  Uiso   1.00
C289   C     0.01434   0.62971   0.07517   0.00000  Uiso   1.00
C290   C     0.20483   0.59290   0.35400   0.00000  Uiso   1.00
C291   C     0.21499   0.62603   0.48483   0.00000  Uiso   1.00
C292   C     0.24954   0.65975   0.48712   0.00000  Uiso   1.00
C293   C     0.25321   0.68654   0.61748   0.00000  Uiso   1.00
C294   C     0.20809   0.54395   0.41975   0.00000  Uiso   1.00
C295   C     0.23684   0.50865   0.36729   0.00000  Uiso   1.00
C296   C     0.23470   0.46634   0.44284   0.00000  Uiso   1.00
C297   C     0.15380   0.60024   0.31328   0.00000  Uiso   1.00
C298   C     0.13690   0.61225   0.17130   0.00000  Uiso   1.00
C299   C     0.08905   0.61731   0.15720   0.00000  Uiso   1.00
H300   H     0.12670   0.57527   0.67761   0.00000  Uiso   1.00
H301   H     0.16570   0.64082   0.83432   0.00000  Uiso   1.00
H302   H     0.15300   0.48974   0.71450   0.00000  Uiso   1.00
H303   H     0.05307   0.59333   0.51854   0.00000  Uiso   1.00
H304   H     0.22210   0.71645   0.95361   0.00000  Uiso   1.00
H305   H     0.19530   0.39790   0.70093   0.00000  Uiso   1.00
H306   H     0.98459   0.61632   0.28771   0.00000  Uiso   1.00
H307   H     0.22806   0.59814   0.25783   0.00000  Uiso   1.00
H308   H     0.27262   0.66496   0.39151   0.00000  Uiso   1.00
H309   H     0.25991   0.51388   0.27169   0.00000  Uiso   1.00
H310   H     0.15999   0.61746   0.07573   0.00000  Uiso   1.00
H311   H     0.30888   0.73604   0.59421   0.00000  Uiso   1.00
H312   H     0.28208   0.41748   0.34153   0.00000  Uiso   1.00
H313   H     0.07137   0.63591   0.92831   0.00000  Uiso   1.00
O314   O     0.29299   0.76977   0.86945   0.00000  Uiso   1.00
O315   O     0.25782   0.35183   0.53792   0.00000  Uiso   1.00
O316   O     0.98137   0.63841   0.99579   0.00000  Uiso   1.00
N317   N     0.23640   0.71190   0.85067   0.00000  Uiso   1.00
N318   N     0.21136   0.41407   0.61445   0.00000  Uiso   1.00
N319   N     0.01435   0.61827   0.22811   0.00000  Uiso   1.00
N320   N     0.28310   0.72244   0.65728   0.00000  Uiso   1.00
N321   N     0.25805   0.42461   0.42105   0.00000  Uiso   1.00
N322   N     0.06105   0.62881   0.03472   0.00000  Uiso   1.00
C323   C     0.85008   0.41949   0.58143   0.00000  Uiso   1.00
C324   C     0.81484   0.38070   0.60836   0.00000  Uiso   1.00
C325   C     0.81121   0.35396   0.73874   0.00000  Uiso   1.00
C326   C     0.77666   0.32020   0.74123   0.00000  Uiso   1.00
C327   C     0.72647   0.26101   0.80187   0.00000  Uiso   1.00
C328   C     0.82173   0.46278   0.54328   0.00000  Uiso   1.00
C329   C     0.82391   0.50506   0.61892   0.00000  Uiso   1.00
C330   C     0.79518   0.54040   0.56659   0.00000  Uiso   1.00
C331   C     0.75571   0.60866   0.52611   0.00000  Uiso   1.00
C332   C     0.87603   0.40650   0.43681   0.00000  Uiso   1.00
C333   C     0.92386   0.40146   0.42292   0.00000  Uiso   1.00
C334   C     0.94083   0.38943   0.28095   0.00000  Uiso   1.00
C335   C     0.98566   0.37029   0.07517   0.00000  Uiso   1.00
C336   C     0.79517   0.40710   0.35400   0.00000  Uiso   1.00
C337   C     0.78501   0.37397   0.48483   0.00000  Uiso   1.00
C338   C     0.75046   0.34025   0.48712   0.00000  Uiso   1.00
C339   C     0.74679   0.31346   0.61748   0.00000  Uiso   1.00
C340   C     0.79191   0.45605   0.41975   0.00000  Uiso   1.00
C341   C     0.76316   0.49135   0.36729   0.00000  Uiso   1.00
C342   C     0.76530   0.53366   0.44284   0.00000  Uiso   1.00
C343   C     0.84620   0.39976   0.31328   0.00000  Uiso   1.00
C344   C     0.86310   0.38775   0.17130   0.00000  Uiso   1.00
C345   C     0.91095   0.38269   0.15720   0.00000  Uiso   1.00
H346   H     0.87330   0.42473   0.67761   0.00000  Uiso   1.00
H347   H     0.83430   0.35918   0.83432   0.00000  Uiso   1.00
H348   H     0.84700   0.51026   0.71450   0.00000  Uiso   1.00
H349   H     0.94693   0.40667   0.51854   0.00000  Uiso   1.00
H350   H     0.77790   0.28355   0.95361   0.00000  Uiso   1.00
H351   H     0.80470   0.60210   0.70093   0.00000  Uiso   1.00
H352   H     0.01541   0.38368   0.28771   0.00000  Uiso   1.00
H353   H     0.77194   0.40186   0.25783   0.00000  Uiso   1.00
H354   H     0.72738   0.33504   0.39151   0.00000  Uiso   1.00
H355   H     0.74009   0.48612   0.27169   0.00000  Uiso   1.00
H356   H     0.84001   0.38254   0.07573   0.00000  Uiso   1.00
H357   H     0.69112   0.26396   0.59421   0.00000  Uiso   1.00
H358   H     0.71792   0.58252   0.34153   0.00000  Uiso   1.00
H359   H     0.92863   0.36409   0.92831   0.00000  Uiso   1.00
O360   O     0.70701   0.23023   0.86945   0.00000  Uiso   1.00
O361   O     0.74218   0.64817   0.53792   0.00000  Uiso   1.00
O362   O     0.01863   0.36159   0.99579   0.00000  Uiso   1.00
N363   N     0.76360   0.28810   0.85067   0.00000  Uiso   1.00
N364   N     0.78864   0.58593   0.61445   0.00000  Uiso   1.00
N365   N     0.98565   0.38173   0.22811   0.00000  Uiso   1.00
N366   N     0.71690   0.27756   0.65728   0.00000  Uiso   1.00
N367   N     0.74195   0.57539   0.42105   0.00000  Uiso   1.00
N368   N     0.93895   0.37119   0.03472   0.00000  Uiso   1.00
