data_job_01933
_audit_creation_date              2018-12-19
_audit_creation_method            'Materials Studio'
_symmetry_space_group_name_H-M    'P1'
_symmetry_Int_Tables_number       1
_symmetry_cell_setting            triclinic
loop_
_symmetry_equiv_pos_as_xyz
  x,y,z
_cell_length_a                    23.1181
_cell_length_b                    22.7051
_cell_length_c                    12.4659
_cell_angle_alpha                 90.0000
_cell_angle_beta                  90.0000
_cell_angle_gamma                 90.0000
loop_
_atom_site_label
_atom_site_type_symbol
_atom_site_fract_x
_atom_site_fract_y
_atom_site_fract_z
_atom_site_U_iso_or_equiv
_atom_site_adp_type
_atom_site_occupancy
C1     C     0.82661   0.63410   0.11555   0.00000  Uiso   1.00
C2     C     0.86516   0.68842   0.10740   0.00000  Uiso   1.00
C3     C     0.84810   0.74601   0.12715   0.00000  Uiso   1.00
C4     C     0.88983   0.78950   0.11529   0.00000  Uiso   1.00
C5     C     0.94105   0.87592   0.10723   0.00000  Uiso   1.00
C6     C     0.82974   0.60393   0.00641   0.00000  Uiso   1.00
C7     C     0.78288   0.59048   0.94126   0.00000  Uiso   1.00
C8     C     0.79479   0.56284   0.84439   0.00000  Uiso   1.00
C9     C     0.79101   0.51806   0.67958   0.00000  Uiso   1.00
C10    C     0.85651   0.59271   0.19432   0.00000  Uiso   1.00
C11    C     0.83217   0.56981   0.28715   0.00000  Uiso   1.00
C12    C     0.86662   0.53272   0.34847   0.00000  Uiso   1.00
C13    C     0.90441   0.47052   0.47542   0.00000  Uiso   1.00
C14    C     0.93106   0.60894   0.05937   0.00000  Uiso   1.00
C15    C     0.92190   0.67475   0.07689   0.00000  Uiso   1.00
C16    C     0.96366   0.71816   0.06500   0.00000  Uiso   1.00
C17    C     0.94666   0.77581   0.08472   0.00000  Uiso   1.00
C18    C     0.88647   0.59026   0.97590   0.00000  Uiso   1.00
C19    C     0.89845   0.56263   0.87911   0.00000  Uiso   1.00
C20    C     0.85163   0.54915   0.81382   0.00000  Uiso   1.00
C21    C     0.91325   0.57904   0.16381   0.00000  Uiso   1.00
C22    C     0.94774   0.54197   0.22500   0.00000  Uiso   1.00
C23    C     0.92345   0.51903   0.31790   0.00000  Uiso   1.00
H24    H     0.78244   0.64474   0.13930   0.00000  Uiso   1.00
H25    H     0.80419   0.75657   0.15075   0.00000  Uiso   1.00
H26    H     0.73899   0.60106   0.96490   0.00000  Uiso   1.00
H27    H     0.78827   0.58040   0.31074   0.00000  Uiso   1.00
H28    H     0.85332   0.87452   0.14995   0.00000  Uiso   1.00
H29    H     0.71583   0.54660   0.75809   0.00000  Uiso   1.00
H30    H     0.81975   0.50304   0.48735   0.00000  Uiso   1.00
H31    H     0.97523   0.59829   0.03562   0.00000  Uiso   1.00
H32    H     0.00756   0.70757   0.04138   0.00000  Uiso   1.00
H33    H     0.94236   0.55206   0.85552   0.00000  Uiso   1.00
H34    H     0.99164   0.53140   0.20136   0.00000  Uiso   1.00
H35    H     0.01838   0.83475   0.06118   0.00000  Uiso   1.00
H36    H     0.88089   0.50683   0.66931   0.00000  Uiso   1.00
H37    H     0.98481   0.46327   0.39858   0.00000  Uiso   1.00
O38    O     0.95363   0.92736   0.11119   0.00000  Uiso   1.00
O39    O     0.77325   0.49714   0.59710   0.00000  Uiso   1.00
O40    O     0.90959   0.43999   0.55387   0.00000  Uiso   1.00
N41    N     0.88773   0.85016   0.12829   0.00000  Uiso   1.00
N42    N     0.75919   0.54359   0.76191   0.00000  Uiso   1.00
N43    N     0.85634   0.50285   0.44370   0.00000  Uiso   1.00
N44    N     0.97655   0.82876   0.08052   0.00000  Uiso   1.00
N45    N     0.84801   0.52219   0.71414   0.00000  Uiso   1.00
N46    N     0.94516   0.48145   0.39593   0.00000  Uiso   1.00
C47    C     0.67339   0.36590   0.61555   0.00000  Uiso   1.00
C48    C     0.63484   0.31158   0.60740   0.00000  Uiso   1.00
C49    C     0.65190   0.25399   0.62715   0.00000  Uiso   1.00
C50    C     0.61017   0.21050   0.61529   0.00000  Uiso   1.00
C51    C     0.55895   0.12408   0.60723   0.00000  Uiso   1.00
C52    C     0.67026   0.39607   0.50641   0.00000  Uiso   1.00
C53    C     0.71712   0.40952   0.44126   0.00000  Uiso   1.00
C54    C     0.70521   0.43716   0.34439   0.00000  Uiso   1.00
C55    C     0.70899   0.48194   0.17958   0.00000  Uiso   1.00
C56    C     0.64349   0.40729   0.69432   0.00000  Uiso   1.00
C57    C     0.66783   0.43019   0.78715   0.00000  Uiso   1.00
C58    C     0.63338   0.46728   0.84847   0.00000  Uiso   1.00
C59    C     0.59559   0.52948   0.97542   0.00000  Uiso   1.00
C60    C     0.56894   0.39106   0.55937   0.00000  Uiso   1.00
C61    C     0.57810   0.32525   0.57689   0.00000  Uiso   1.00
C62    C     0.53634   0.28184   0.56500   0.00000  Uiso   1.00
C63    C     0.55334   0.22419   0.58472   0.00000  Uiso   1.00
C64    C     0.61353   0.40974   0.47590   0.00000  Uiso   1.00
C65    C     0.60155   0.43737   0.37911   0.00000  Uiso   1.00
C66    C     0.64837   0.45085   0.31382   0.00000  Uiso   1.00
C67    C     0.58675   0.42096   0.66381   0.00000  Uiso   1.00
C68    C     0.55226   0.45803   0.72500   0.00000  Uiso   1.00
C69    C     0.57655   0.48097   0.81790   0.00000  Uiso   1.00
H70    H     0.71756   0.35526   0.63930   0.00000  Uiso   1.00
H71    H     0.69581   0.24343   0.65075   0.00000  Uiso   1.00
H72    H     0.76101   0.39894   0.46490   0.00000  Uiso   1.00
H73    H     0.71173   0.41960   0.81074   0.00000  Uiso   1.00
H74    H     0.64668   0.12548   0.64995   0.00000  Uiso   1.00
H75    H     0.78417   0.45340   0.25809   0.00000  Uiso   1.00
H76    H     0.68025   0.49696   0.98735   0.00000  Uiso   1.00
H77    H     0.52477   0.40171   0.53562   0.00000  Uiso   1.00
H78    H     0.49244   0.29243   0.54138   0.00000  Uiso   1.00
H79    H     0.55764   0.44794   0.35552   0.00000  Uiso   1.00
H80    H     0.50836   0.46860   0.70136   0.00000  Uiso   1.00
H81    H     0.48162   0.16525   0.56118   0.00000  Uiso   1.00
H82    H     0.61911   0.49317   0.16931   0.00000  Uiso   1.00
H83    H     0.51519   0.53673   0.89858   0.00000  Uiso   1.00
O84    O     0.54637   0.07264   0.61119   0.00000  Uiso   1.00
O85    O     0.72675   0.50286   0.09710   0.00000  Uiso   1.00
O86    O     0.59041   0.56001   0.05387   0.00000  Uiso   1.00
N87    N     0.61227   0.14984   0.62829   0.00000  Uiso   1.00
N88    N     0.74081   0.45641   0.26191   0.00000  Uiso   1.00
N89    N     0.64366   0.49715   0.94370   0.00000  Uiso   1.00
N90    N     0.52345   0.17124   0.58052   0.00000  Uiso   1.00
N91    N     0.65199   0.47781   0.21414   0.00000  Uiso   1.00
N92    N     0.55484   0.51855   0.89593   0.00000  Uiso   1.00
C93    C     0.17339   0.13410   0.38445   0.00000  Uiso   1.00
C94    C     0.13484   0.18842   0.39260   0.00000  Uiso   1.00
C95    C     0.15190   0.24601   0.37285   0.00000  Uiso   1.00
C96    C     0.11017   0.28950   0.38471   0.00000  Uiso   1.00
C97    C     0.05895   0.37592   0.39277   0.00000  Uiso   1.00
C98    C     0.17026   0.10393   0.49359   0.00000  Uiso   1.00
C99    C     0.21712   0.09048   0.55874   0.00000  Uiso   1.00
C100   C     0.20521   0.06284   0.65561   0.00000  Uiso   1.00
C101   C     0.20899   0.01806   0.82042   0.00000  Uiso   1.00
C102   C     0.14349   0.09271   0.30568   0.00000  Uiso   1.00
C103   C     0.16783   0.06981   0.21285   0.00000  Uiso   1.00
C104   C     0.13338   0.03272   0.15153   0.00000  Uiso   1.00
C105   C     0.09559   0.97052   0.02458   0.00000  Uiso   1.00
C106   C     0.06894   0.10894   0.44063   0.00000  Uiso   1.00
C107   C     0.07810   0.17475   0.42311   0.00000  Uiso   1.00
C108   C     0.03634   0.21816   0.43500   0.00000  Uiso   1.00
C109   C     0.05334   0.27581   0.41528   0.00000  Uiso   1.00
C110   C     0.11353   0.09026   0.52410   0.00000  Uiso   1.00
C111   C     0.10155   0.06263   0.62089   0.00000  Uiso   1.00
C112   C     0.14837   0.04915   0.68618   0.00000  Uiso   1.00
C113   C     0.08675   0.07904   0.33619   0.00000  Uiso   1.00
C114   C     0.05226   0.04197   0.27500   0.00000  Uiso   1.00
C115   C     0.07655   0.01903   0.18210   0.00000  Uiso   1.00
H116   H     0.21756   0.14474   0.36070   0.00000  Uiso   1.00
H117   H     0.19581   0.25657   0.34925   0.00000  Uiso   1.00
H118   H     0.26101   0.10106   0.53510   0.00000  Uiso   1.00
H119   H     0.21173   0.08040   0.18926   0.00000  Uiso   1.00
H120   H     0.14668   0.37452   0.35005   0.00000  Uiso   1.00
H121   H     0.28417   0.04660   0.74191   0.00000  Uiso   1.00
H122   H     0.18025   0.00304   0.01265   0.00000  Uiso   1.00
H123   H     0.02477   0.09829   0.46438   0.00000  Uiso   1.00
H124   H     0.99244   0.20757   0.45862   0.00000  Uiso   1.00
H125   H     0.05764   0.05206   0.64448   0.00000  Uiso   1.00
H126   H     0.00836   0.03140   0.29864   0.00000  Uiso   1.00
H127   H     0.98162   0.33475   0.43882   0.00000  Uiso   1.00
H128   H     0.11911   0.00683   0.83069   0.00000  Uiso   1.00
H129   H     0.01519   0.96327   0.10142   0.00000  Uiso   1.00
O130   O     0.04637   0.42736   0.38881   0.00000  Uiso   1.00
O131   O     0.22675   0.99714   0.90290   0.00000  Uiso   1.00
O132   O     0.09041   0.93999   0.94613   0.00000  Uiso   1.00
N133   N     0.11227   0.35016   0.37171   0.00000  Uiso   1.00
N134   N     0.24081   0.04359   0.73809   0.00000  Uiso   1.00
N135   N     0.14366   0.00285   0.05630   0.00000  Uiso   1.00
N136   N     0.02345   0.32876   0.41948   0.00000  Uiso   1.00
N137   N     0.15199   0.02219   0.78586   0.00000  Uiso   1.00
N138   N     0.05484   0.98145   0.10407   0.00000  Uiso   1.00
C139   C     0.32661   0.86590   0.88445   0.00000  Uiso   1.00
C140   C     0.36516   0.81158   0.89260   0.00000  Uiso   1.00
C141   C     0.34810   0.75399   0.87285   0.00000  Uiso   1.00
C142   C     0.38983   0.71050   0.88471   0.00000  Uiso   1.00
C143   C     0.44105   0.62408   0.89277   0.00000  Uiso   1.00
C144   C     0.32974   0.89607   0.99359   0.00000  Uiso   1.00
C145   C     0.28288   0.90952   0.05874   0.00000  Uiso   1.00
C146   C     0.29479   0.93716   0.15561   0.00000  Uiso   1.00
C147   C     0.29101   0.98194   0.32042   0.00000  Uiso   1.00
C148   C     0.35651   0.90729   0.80568   0.00000  Uiso   1.00
C149   C     0.33217   0.93019   0.71285   0.00000  Uiso   1.00
C150   C     0.36662   0.96728   0.65153   0.00000  Uiso   1.00
C151   C     0.40441   0.02948   0.52458   0.00000  Uiso   1.00
C152   C     0.43106   0.89106   0.94063   0.00000  Uiso   1.00
C153   C     0.42190   0.82525   0.92311   0.00000  Uiso   1.00
C154   C     0.46366   0.78184   0.93500   0.00000  Uiso   1.00
C155   C     0.44666   0.72419   0.91528   0.00000  Uiso   1.00
C156   C     0.38647   0.90974   0.02410   0.00000  Uiso   1.00
C157   C     0.39845   0.93737   0.12089   0.00000  Uiso   1.00
C158   C     0.35163   0.95085   0.18618   0.00000  Uiso   1.00
C159   C     0.41325   0.92096   0.83619   0.00000  Uiso   1.00
C160   C     0.44774   0.95803   0.77500   0.00000  Uiso   1.00
C161   C     0.42345   0.98097   0.68210   0.00000  Uiso   1.00
H162   H     0.28244   0.85526   0.86070   0.00000  Uiso   1.00
H163   H     0.30419   0.74343   0.84925   0.00000  Uiso   1.00
H164   H     0.23899   0.89894   0.03510   0.00000  Uiso   1.00
H165   H     0.28827   0.91960   0.68926   0.00000  Uiso   1.00
H166   H     0.35332   0.62548   0.85005   0.00000  Uiso   1.00
H167   H     0.21583   0.95340   0.24191   0.00000  Uiso   1.00
H168   H     0.31975   0.99696   0.51265   0.00000  Uiso   1.00
H169   H     0.47523   0.90171   0.96438   0.00000  Uiso   1.00
H170   H     0.50756   0.79243   0.95862   0.00000  Uiso   1.00
H171   H     0.44236   0.94794   0.14448   0.00000  Uiso   1.00
H172   H     0.49164   0.96860   0.79864   0.00000  Uiso   1.00
H173   H     0.51838   0.66525   0.93882   0.00000  Uiso   1.00
H174   H     0.38089   0.99317   0.33069   0.00000  Uiso   1.00
H175   H     0.48481   0.03673   0.60142   0.00000  Uiso   1.00
O176   O     0.45363   0.57264   0.88881   0.00000  Uiso   1.00
O177   O     0.27325   0.00286   0.40290   0.00000  Uiso   1.00
O178   O     0.40959   0.06001   0.44613   0.00000  Uiso   1.00
N179   N     0.38773   0.64984   0.87171   0.00000  Uiso   1.00
N180   N     0.25919   0.95641   0.23809   0.00000  Uiso   1.00
N181   N     0.35634   0.99715   0.55630   0.00000  Uiso   1.00
N182   N     0.47655   0.67124   0.91948   0.00000  Uiso   1.00
N183   N     0.34801   0.97781   0.28586   0.00000  Uiso   1.00
N184   N     0.44516   0.01855   0.60407   0.00000  Uiso   1.00
C185   C     0.17339   0.36590   0.88445   0.00000  Uiso   1.00
C186   C     0.13484   0.31158   0.89260   0.00000  Uiso   1.00
C187   C     0.15190   0.25399   0.87285   0.00000  Uiso   1.00
C188   C     0.11017   0.21050   0.88471   0.00000  Uiso   1.00
C189   C     0.05895   0.12408   0.89277   0.00000  Uiso   1.00
C190   C     0.17026   0.39607   0.99359   0.00000  Uiso   1.00
C191   C     0.21712   0.40952   0.05874   0.00000  Uiso   1.00
C192   C     0.20521   0.43716   0.15561   0.00000  Uiso   1.00
C193   C     0.20899   0.48194   0.32042   0.00000  Uiso   1.00
C194   C     0.14349   0.40729   0.80568   0.00000  Uiso   1.00
C195   C     0.16783   0.43019   0.71285   0.00000  Uiso   1.00
C196   C     0.13338   0.46728   0.65153   0.00000  Uiso   1.00
C197   C     0.09559   0.52948   0.52458   0.00000  Uiso   1.00
C198   C     0.06894   0.39106   0.94063   0.00000  Uiso   1.00
C199   C     0.07810   0.32525   0.92311   0.00000  Uiso   1.00
C200   C     0.03634   0.28184   0.93500   0.00000  Uiso   1.00
C201   C     0.05334   0.22419   0.91528   0.00000  Uiso   1.00
C202   C     0.11353   0.40974   0.02410   0.00000  Uiso   1.00
C203   C     0.10155   0.43737   0.12089   0.00000  Uiso   1.00
C204   C     0.14837   0.45085   0.18618   0.00000  Uiso   1.00
C205   C     0.08675   0.42096   0.83619   0.00000  Uiso   1.00
C206   C     0.05226   0.45803   0.77500   0.00000  Uiso   1.00
C207   C     0.07655   0.48097   0.68210   0.00000  Uiso   1.00
H208   H     0.21756   0.35526   0.86070   0.00000  Uiso   1.00
H209   H     0.19581   0.24343   0.84925   0.00000  Uiso   1.00
H210   H     0.26101   0.39894   0.03510   0.00000  Uiso   1.00
H211   H     0.21173   0.41960   0.68926   0.00000  Uiso   1.00
H212   H     0.14668   0.12548   0.85005   0.00000  Uiso   1.00
H213   H     0.28417   0.45340   0.24191   0.00000  Uiso   1.00
H214   H     0.18025   0.49696   0.51265   0.00000  Uiso   1.00
H215   H     0.02477   0.40171   0.96438   0.00000  Uiso   1.00
H216   H     0.99244   0.29243   0.95862   0.00000  Uiso   1.00
H217   H     0.05764   0.44794   0.14448   0.00000  Uiso   1.00
H218   H     0.00836   0.46860   0.79864   0.00000  Uiso   1.00
H219   H     0.98162   0.16525   0.93882   0.00000  Uiso   1.00
H220   H     0.11911   0.49317   0.33069   0.00000  Uiso   1.00
H221   H     0.01519   0.53673   0.60142   0.00000  Uiso   1.00
O222   O     0.04637   0.07264   0.88881   0.00000  Uiso   1.00
O223   O     0.22675   0.50286   0.40290   0.00000  Uiso   1.00
O224   O     0.09041   0.56001   0.44613   0.00000  Uiso   1.00
N225   N     0.11227   0.14984   0.87171   0.00000  Uiso   1.00
N226   N     0.24081   0.45641   0.23809   0.00000  Uiso   1.00
N227   N     0.14366   0.49715   0.55630   0.00000  Uiso   1.00
N228   N     0.02345   0.17124   0.91948   0.00000  Uiso   1.00
N229   N     0.15199   0.47781   0.28586   0.00000  Uiso   1.00
N230   N     0.05484   0.51855   0.60407   0.00000  Uiso   1.00
C231   C     0.32661   0.63410   0.38445   0.00000  Uiso   1.00
C232   C     0.36516   0.68842   0.39260   0.00000  Uiso   1.00
C233   C     0.34810   0.74601   0.37285   0.00000  Uiso   1.00
C234   C     0.38983   0.78950   0.38471   0.00000  Uiso   1.00
C235   C     0.44105   0.87592   0.39277   0.00000  Uiso   1.00
C236   C     0.32974   0.60393   0.49359   0.00000  Uiso   1.00
C237   C     0.28288   0.59048   0.55874   0.00000  Uiso   1.00
C238   C     0.29479   0.56284   0.65561   0.00000  Uiso   1.00
C239   C     0.29101   0.51806   0.82042   0.00000  Uiso   1.00
C240   C     0.35651   0.59271   0.30568   0.00000  Uiso   1.00
C241   C     0.33217   0.56981   0.21285   0.00000  Uiso   1.00
C242   C     0.36662   0.53272   0.15153   0.00000  Uiso   1.00
C243   C     0.40441   0.47052   0.02458   0.00000  Uiso   1.00
C244   C     0.43106   0.60894   0.44063   0.00000  Uiso   1.00
C245   C     0.42190   0.67475   0.42311   0.00000  Uiso   1.00
C246   C     0.46366   0.71816   0.43500   0.00000  Uiso   1.00
C247   C     0.44666   0.77581   0.41528   0.00000  Uiso   1.00
C248   C     0.38647   0.59026   0.52410   0.00000  Uiso   1.00
C249   C     0.39845   0.56263   0.62089   0.00000  Uiso   1.00
C250   C     0.35163   0.54915   0.68618   0.00000  Uiso   1.00
C251   C     0.41325   0.57904   0.33619   0.00000  Uiso   1.00
C252   C     0.44774   0.54197   0.27500   0.00000  Uiso   1.00
C253   C     0.42345   0.51903   0.18210   0.00000  Uiso   1.00
H254   H     0.28244   0.64474   0.36070   0.00000  Uiso   1.00
H255   H     0.30419   0.75657   0.34925   0.00000  Uiso   1.00
H256   H     0.23899   0.60106   0.53510   0.00000  Uiso   1.00
H257   H     0.28827   0.58040   0.18926   0.00000  Uiso   1.00
H258   H     0.35332   0.87452   0.35005   0.00000  Uiso   1.00
H259   H     0.21583   0.54660   0.74191   0.00000  Uiso   1.00
H260   H     0.31975   0.50304   0.01265   0.00000  Uiso   1.00
H261   H     0.47523   0.59829   0.46438   0.00000  Uiso   1.00
H262   H     0.50756   0.70757   0.45862   0.00000  Uiso   1.00
H263   H     0.44236   0.55206   0.64448   0.00000  Uiso   1.00
H264   H     0.49164   0.53140   0.29864   0.00000  Uiso   1.00
H265   H     0.51838   0.83475   0.43882   0.00000  Uiso   1.00
H266   H     0.38089   0.50683   0.83069   0.00000  Uiso   1.00
H267   H     0.48481   0.46327   0.10142   0.00000  Uiso   1.00
O268   O     0.45363   0.92736   0.38881   0.00000  Uiso   1.00
O269   O     0.27325   0.49714   0.90290   0.00000  Uiso   1.00
O270   O     0.40959   0.43999   0.94613   0.00000  Uiso   1.00
N271   N     0.38773   0.85016   0.37171   0.00000  Uiso   1.00
N272   N     0.25919   0.54359   0.73809   0.00000  Uiso   1.00
N273   N     0.35634   0.50285   0.05630   0.00000  Uiso   1.00
N274   N     0.47655   0.82876   0.41948   0.00000  Uiso   1.00
N275   N     0.34801   0.52219   0.78586   0.00000  Uiso   1.00
N276   N     0.44516   0.48145   0.10407   0.00000  Uiso   1.00
C277   C     0.82661   0.86590   0.61555   0.00000  Uiso   1.00
C278   C     0.86516   0.81158   0.60740   0.00000  Uiso   1.00
C279   C     0.84810   0.75399   0.62715   0.00000  Uiso   1.00
C280   C     0.88983   0.71050   0.61529   0.00000  Uiso   1.00
C281   C     0.94105   0.62408   0.60723   0.00000  Uiso   1.00
C282   C     0.82974   0.89607   0.50641   0.00000  Uiso   1.00
C283   C     0.78288   0.90952   0.44126   0.00000  Uiso   1.00
C284   C     0.79479   0.93716   0.34439   0.00000  Uiso   1.00
C285   C     0.79101   0.98194   0.17958   0.00000  Uiso   1.00
C286   C     0.85651   0.90729   0.69432   0.00000  Uiso   1.00
C287   C     0.83217   0.93019   0.78715   0.00000  Uiso   1.00
C288   C     0.86662   0.96728   0.84847   0.00000  Uiso   1.00
C289   C     0.90441   0.02948   0.97542   0.00000  Uiso   1.00
C290   C     0.93106   0.89106   0.55937   0.00000  Uiso   1.00
C291   C     0.92190   0.82525   0.57689   0.00000  Uiso   1.00
C292   C     0.96366   0.78184   0.56500   0.00000  Uiso   1.00
C293   C     0.94666   0.72419   0.58472   0.00000  Uiso   1.00
C294   C     0.88647   0.90974   0.47590   0.00000  Uiso   1.00
C295   C     0.89845   0.93737   0.37911   0.00000  Uiso   1.00
C296   C     0.85163   0.95085   0.31382   0.00000  Uiso   1.00
C297   C     0.91325   0.92096   0.66381   0.00000  Uiso   1.00
C298   C     0.94774   0.95803   0.72500   0.00000  Uiso   1.00
C299   C     0.92345   0.98097   0.81790   0.00000  Uiso   1.00
H300   H     0.78244   0.85526   0.63930   0.00000  Uiso   1.00
H301   H     0.80419   0.74343   0.65075   0.00000  Uiso   1.00
H302   H     0.73899   0.89894   0.46490   0.00000  Uiso   1.00
H303   H     0.78827   0.91960   0.81074   0.00000  Uiso   1.00
H304   H     0.85332   0.62548   0.64995   0.00000  Uiso   1.00
H305   H     0.71583   0.95340   0.25809   0.00000  Uiso   1.00
H306   H     0.81975   0.99696   0.98735   0.00000  Uiso   1.00
H307   H     0.97523   0.90171   0.53562   0.00000  Uiso   1.00
H308   H     0.00756   0.79243   0.54138   0.00000  Uiso   1.00
H309   H     0.94236   0.94794   0.35552   0.00000  Uiso   1.00
H310   H     0.99164   0.96860   0.70136   0.00000  Uiso   1.00
H311   H     0.01838   0.66525   0.56118   0.00000  Uiso   1.00
H312   H     0.88089   0.99317   0.16931   0.00000  Uiso   1.00
H313   H     0.98481   0.03673   0.89858   0.00000  Uiso   1.00
O314   O     0.95363   0.57264   0.61119   0.00000  Uiso   1.00
O315   O     0.77325   0.00286   0.09710   0.00000  Uiso   1.00
O316   O     0.90959   0.06001   0.05387   0.00000  Uiso   1.00
N317   N     0.88773   0.64984   0.62829   0.00000  Uiso   1.00
N318   N     0.75919   0.95641   0.26191   0.00000  Uiso   1.00
N319   N     0.85634   0.99715   0.94370   0.00000  Uiso   1.00
N320   N     0.97655   0.67124   0.58052   0.00000  Uiso   1.00
N321   N     0.84801   0.97781   0.21414   0.00000  Uiso   1.00
N322   N     0.94516   0.01855   0.89593   0.00000  Uiso   1.00
C323   C     0.67339   0.13410   0.11555   0.00000  Uiso   1.00
C324   C     0.63484   0.18842   0.10740   0.00000  Uiso   1.00
C325   C     0.65190   0.24601   0.12715   0.00000  Uiso   1.00
C326   C     0.61017   0.28950   0.11529   0.00000  Uiso   1.00
C327   C     0.55895   0.37592   0.10723   0.00000  Uiso   1.00
C328   C     0.67026   0.10393   0.00641   0.00000  Uiso   1.00
C329   C     0.71712   0.09048   0.94126   0.00000  Uiso   1.00
C330   C     0.70521   0.06284   0.84439   0.00000  Uiso   1.00
C331   C     0.70899   0.01806   0.67958   0.00000  Uiso   1.00
C332   C     0.64349   0.09271   0.19432   0.00000  Uiso   1.00
C333   C     0.66783   0.06981   0.28715   0.00000  Uiso   1.00
C334   C     0.63338   0.03272   0.34847   0.00000  Uiso   1.00
C335   C     0.59559   0.97052   0.47542   0.00000  Uiso   1.00
C336   C     0.56894   0.10894   0.05937   0.00000  Uiso   1.00
C337   C     0.57810   0.17475   0.07689   0.00000  Uiso   1.00
C338   C     0.53634   0.21816   0.06500   0.00000  Uiso   1.00
C339   C     0.55334   0.27581   0.08472   0.00000  Uiso   1.00
C340   C     0.61353   0.09026   0.97590   0.00000  Uiso   1.00
C341   C     0.60155   0.06263   0.87911   0.00000  Uiso   1.00
C342   C     0.64837   0.04915   0.81382   0.00000  Uiso   1.00
C343   C     0.58675   0.07904   0.16381   0.00000  Uiso   1.00
C344   C     0.55226   0.04197   0.22500   0.00000  Uiso   1.00
C345   C     0.57655   0.01903   0.31790   0.00000  Uiso   1.00
H346   H     0.71756   0.14474   0.13930   0.00000  Uiso   1.00
H347   H     0.69581   0.25657   0.15075   0.00000  Uiso   1.00
H348   H     0.76101   0.10106   0.96490   0.00000  Uiso   1.00
H349   H     0.71173   0.08040   0.31074   0.00000  Uiso   1.00
H350   H     0.64668   0.37452   0.14995   0.00000  Uiso   1.00
H351   H     0.78417   0.04660   0.75809   0.00000  Uiso   1.00
H352   H     0.68025   0.00304   0.48735   0.00000  Uiso   1.00
H353   H     0.52477   0.09829   0.03562   0.00000  Uiso   1.00
H354   H     0.49244   0.20757   0.04138   0.00000  Uiso   1.00
H355   H     0.55764   0.05206   0.85552   0.00000  Uiso   1.00
H356   H     0.50836   0.03140   0.20136   0.00000  Uiso   1.00
H357   H     0.48162   0.33475   0.06118   0.00000  Uiso   1.00
H358   H     0.61911   0.00683   0.66931   0.00000  Uiso   1.00
H359   H     0.51519   0.96327   0.39858   0.00000  Uiso   1.00
O360   O     0.54637   0.42736   0.11119   0.00000  Uiso   1.00
O361   O     0.72675   0.99714   0.59710   0.00000  Uiso   1.00
O362   O     0.59041   0.93999   0.55387   0.00000  Uiso   1.00
N363   N     0.61227   0.35016   0.12829   0.00000  Uiso   1.00
N364   N     0.74081   0.04359   0.76191   0.00000  Uiso   1.00
N365   N     0.64366   0.00285   0.44370   0.00000  Uiso   1.00
N366   N     0.52345   0.32876   0.08052   0.00000  Uiso   1.00
N367   N     0.65199   0.02219   0.71414   0.00000  Uiso   1.00
N368   N     0.55484   0.98145   0.39593   0.00000  Uiso   1.00
