data_job_06456
_audit_creation_date              2018-12-19
_audit_creation_method            'Materials Studio'
_symmetry_space_group_name_H-M    'P1'
_symmetry_Int_Tables_number       1
_symmetry_cell_setting            triclinic
loop_
_symmetry_equiv_pos_as_xyz
  x,y,z
_cell_length_a                    21.3788
_cell_length_b                    22.7684
_cell_length_c                    23.4538
_cell_angle_alpha                 117.8762
_cell_angle_beta                  89.1117
_cell_angle_gamma                 62.4774
loop_
_atom_site_label
_atom_site_type_symbol
_atom_site_fract_x
_atom_site_fract_y
_atom_site_fract_z
_atom_site_U_iso_or_equiv
_atom_site_adp_type
_atom_site_occupancy
C1     C     0.61658   0.17387   0.40075   0.00000  Uiso   1.00
C2     C     0.64823   0.18927   0.35423   0.00000  Uiso   1.00
C3     C     0.60745   0.23864   0.33253   0.00000  Uiso   1.00
C4     C     0.64673   0.24476   0.29008   0.00000  Uiso   1.00
C5     C     0.68413   0.27499   0.22086   0.00000  Uiso   1.00
C6     C     0.65110   0.08535   0.36251   0.00000  Uiso   1.00
C7     C     0.61272   0.04736   0.34778   0.00000  Uiso   1.00
C8     C     0.65442   0.96600   0.31232   0.00000  Uiso   1.00
C9     C     0.69626   0.83491   0.25600   0.00000  Uiso   1.00
C10    C     0.64791   0.19427   0.46030   0.00000  Uiso   1.00
C11    C     0.60686   0.24784   0.52780   0.00000  Uiso   1.00
C12    C     0.64589   0.25817   0.57467   0.00000  Uiso   1.00
C13    C     0.68279   0.29618   0.67018   0.00000  Uiso   1.00
C14    C     0.75887   0.09694   0.36397   0.00000  Uiso   1.00
C15    C     0.72552   0.14748   0.33425   0.00000  Uiso   1.00
C16    C     0.76488   0.15353   0.29183   0.00000  Uiso   1.00
C17    C     0.72416   0.20291   0.27007   0.00000  Uiso   1.00
C18    C     0.72838   0.04357   0.34253   0.00000  Uiso   1.00
C19    C     0.77015   0.96225   0.30709   0.00000  Uiso   1.00
C20    C     0.73184   0.92415   0.29231   0.00000  Uiso   1.00
C21    C     0.72520   0.15249   0.44032   0.00000  Uiso   1.00
C22    C     0.76430   0.16273   0.48710   0.00000  Uiso   1.00
C23    C     0.72332   0.21631   0.55465   0.00000  Uiso   1.00
H24    H     0.55640   0.20639   0.41630   0.00000  Uiso   1.00
H25    H     0.54763   0.27096   0.34799   0.00000  Uiso   1.00
H26    H     0.55291   0.07971   0.36326   0.00000  Uiso   1.00
H27    H     0.54706   0.28016   0.54324   0.00000  Uiso   1.00
H28    H     0.57199   0.32409   0.26343   0.00000  Uiso   1.00
H29    H     0.58311   0.92083   0.29563   0.00000  Uiso   1.00
H30    H     0.57077   0.34352   0.67516   0.00000  Uiso   1.00
H31    H     0.81905   0.06441   0.34841   0.00000  Uiso   1.00
H32    H     0.82469   0.12119   0.27638   0.00000  Uiso   1.00
H33    H     0.82996   0.92994   0.29164   0.00000  Uiso   1.00
H34    H     0.82411   0.13039   0.47162   0.00000  Uiso   1.00
H35    H     0.79686   0.20253   0.20530   0.00000  Uiso   1.00
H36    H     0.80798   0.79927   0.23751   0.00000  Uiso   1.00
H37    H     0.79564   0.22196   0.61703   0.00000  Uiso   1.00
O38    O     0.68340   0.30320   0.18819   0.00000  Uiso   1.00
O39    O     0.69798   0.77415   0.23045   0.00000  Uiso   1.00
O40    O     0.68180   0.32870   0.72837   0.00000  Uiso   1.00
N41    N     0.62414   0.28770   0.25965   0.00000  Uiso   1.00
N42    N     0.63453   0.91068   0.28974   0.00000  Uiso   1.00
N43    N     0.62300   0.30584   0.64457   0.00000  Uiso   1.00
N44    N     0.74514   0.22229   0.22837   0.00000  Uiso   1.00
N45    N     0.75553   0.84527   0.25847   0.00000  Uiso   1.00
N46    N     0.74400   0.24043   0.61329   0.00000  Uiso   1.00
C47    C     0.15494   0.07669   0.50529   0.00000  Uiso   1.00
C48    C     0.10500   0.05779   0.46411   0.00000  Uiso   1.00
C49    C     0.08953   0.00112   0.45303   0.00000  Uiso   1.00
C50    C     0.04254   0.99284   0.41394   0.00000  Uiso   1.00
C51    C     0.96965   0.95636   0.35407   0.00000  Uiso   1.00
C52    C     0.21354   0.06735   0.45821   0.00000  Uiso   1.00
C53    C     0.28933   0.01871   0.44218   0.00000  Uiso   1.00
C54    C     0.33370   0.01849   0.39812   0.00000  Uiso   1.00
C55    C     0.42932   0.99688   0.32914   0.00000  Uiso   1.00
C56    C     0.10793   0.16393   0.55947   0.00000  Uiso   1.00
C57    C     0.09493   0.19651   0.62858   0.00000  Uiso   1.00
C58    C     0.05040   0.27760   0.66978   0.00000  Uiso   1.00
C59    C     0.98205   0.40595   0.75801   0.00000  Uiso   1.00
C60    C     0.09899   0.16279   0.45556   0.00000  Uiso   1.00
C61    C     0.07462   0.10456   0.43710   0.00000  Uiso   1.00
C62    C     0.02763   0.09637   0.39801   0.00000  Uiso   1.00
C63    C     0.01209   0.03969   0.38688   0.00000  Uiso   1.00
C64    C     0.18316   0.11411   0.43120   0.00000  Uiso   1.00
C65    C     0.22743   0.11396   0.38716   0.00000  Uiso   1.00
C66    C     0.30326   0.06533   0.37106   0.00000  Uiso   1.00
C67    C     0.07754   0.21069   0.53246   0.00000  Uiso   1.00
C68    C     0.03303   0.29176   0.57356   0.00000  Uiso   1.00
C69    C     0.01996   0.32445   0.64272   0.00000  Uiso   1.00
H70    H     0.17860   0.04029   0.52632   0.00000  Uiso   1.00
H71    H     0.11306   0.96493   0.47394   0.00000  Uiso   1.00
H72    H     0.31282   0.98253   0.46309   0.00000  Uiso   1.00
H73    H     0.11846   0.16030   0.64946   0.00000  Uiso   1.00
H74    H     0.02702   0.90200   0.40393   0.00000  Uiso   1.00
H75    H     0.44823   0.93913   0.38109   0.00000  Uiso   1.00
H76    H     0.03837   0.31399   0.77408   0.00000  Uiso   1.00
H77    H     0.07534   0.19919   0.43453   0.00000  Uiso   1.00
H78    H     0.00413   0.13256   0.37711   0.00000  Uiso   1.00
H79    H     0.20389   0.15016   0.36627   0.00000  Uiso   1.00
H80    H     0.00952   0.32793   0.55264   0.00000  Uiso   1.00
H81    H     0.93861   0.03805   0.32535   0.00000  Uiso   1.00
H82    H     0.35982   0.07518   0.30250   0.00000  Uiso   1.00
H83    H     0.94996   0.45003   0.69550   0.00000  Uiso   1.00
O84    O     0.93786   0.92331   0.32851   0.00000  Uiso   1.00
O85    O     0.49047   0.97203   0.29854   0.00000  Uiso   1.00
O86    O     0.95274   0.46383   0.81415   0.00000  Uiso   1.00
N87    N     0.01598   0.94317   0.39333   0.00000  Uiso   1.00
N88    N     0.40978   0.97787   0.37196   0.00000  Uiso   1.00
N89    N     0.02661   0.32834   0.73938   0.00000  Uiso   1.00
N90    N     0.96840   0.01638   0.35104   0.00000  Uiso   1.00
N91    N     0.36221   0.05108   0.32967   0.00000  Uiso   1.00
N92    N     0.97904   0.40155   0.69709   0.00000  Uiso   1.00
C93    C     0.78499   0.67471   0.52174   0.00000  Uiso   1.00
C94    C     0.84252   0.58743   0.47504   0.00000  Uiso   1.00
C95    C     0.91819   0.55412   0.45429   0.00000  Uiso   1.00
C96    C     0.96151   0.47313   0.41149   0.00000  Uiso   1.00
C97    C     0.05560   0.34461   0.34218   0.00000  Uiso   1.00
C98    C     0.73077   0.69575   0.48300   0.00000  Uiso   1.00
C99    C     0.71248   0.75353   0.46895   0.00000  Uiso   1.00
C100   C     0.66172   0.76373   0.43285   0.00000  Uiso   1.00
C101   C     0.58228   0.80342   0.37594   0.00000  Uiso   1.00
C102   C     0.74217   0.68296   0.58039   0.00000  Uiso   1.00
C103   C     0.73345   0.73000   0.64823   0.00000  Uiso   1.00
C104   C     0.69226   0.72945   0.69413   0.00000  Uiso   1.00
C105   C     0.63052   0.74927   0.78842   0.00000  Uiso   1.00
C106   C     0.72735   0.59010   0.48264   0.00000  Uiso   1.00
C107   C     0.81121   0.54147   0.45380   0.00000  Uiso   1.00
C108   C     0.85442   0.46051   0.41102   0.00000  Uiso   1.00
C109   C     0.93015   0.42709   0.39021   0.00000  Uiso   1.00
C110   C     0.69946   0.64980   0.46176   0.00000  Uiso   1.00
C111   C     0.64871   0.65992   0.42568   0.00000  Uiso   1.00
C112   C     0.63035   0.71769   0.41157   0.00000  Uiso   1.00
C113   C     0.71086   0.63700   0.55915   0.00000  Uiso   1.00
C114   C     0.66968   0.63638   0.60495   0.00000  Uiso   1.00
C115   C     0.66090   0.68341   0.67285   0.00000  Uiso   1.00
H116   H     0.80936   0.71049   0.53828   0.00000  Uiso   1.00
H117   H     0.94240   0.58971   0.47074   0.00000  Uiso   1.00
H118   H     0.73671   0.78909   0.48540   0.00000  Uiso   1.00
H119   H     0.75768   0.76556   0.66464   0.00000  Uiso   1.00
H120   H     0.07610   0.43554   0.38646   0.00000  Uiso   1.00
H121   H     0.64238   0.85596   0.41740   0.00000  Uiso   1.00
H122   H     0.68658   0.80634   0.79538   0.00000  Uiso   1.00
H123   H     0.70297   0.55432   0.46610   0.00000  Uiso   1.00
H124   H     0.83018   0.42496   0.39459   0.00000  Uiso   1.00
H125   H     0.62449   0.62435   0.40925   0.00000  Uiso   1.00
H126   H     0.64546   0.60081   0.58850   0.00000  Uiso   1.00
H127   H     0.98501   0.30183   0.32465   0.00000  Uiso   1.00
H128   H     0.55129   0.72225   0.35560   0.00000  Uiso   1.00
H129   H     0.59550   0.67263   0.73357   0.00000  Uiso   1.00
O130   O     0.11615   0.28641   0.30980   0.00000  Uiso   1.00
O131   O     0.54712   0.83800   0.35041   0.00000  Uiso   1.00
O132   O     0.60512   0.77289   0.84630   0.00000  Uiso   1.00
N133   N     0.03720   0.42182   0.38174   0.00000  Uiso   1.00
N134   N     0.63171   0.81488   0.41066   0.00000  Uiso   1.00
N135   N     0.67302   0.76851   0.76403   0.00000  Uiso   1.00
N136   N     0.98819   0.34987   0.34848   0.00000  Uiso   1.00
N137   N     0.58270   0.74293   0.37740   0.00000  Uiso   1.00
N138   N     0.62401   0.69656   0.73078   0.00000  Uiso   1.00
C139   C     0.25716   0.07595   0.97986   0.00000  Uiso   1.00
C140   C     0.32416   0.05635   0.93387   0.00000  Uiso   1.00
C141   C     0.39670   0.99773   0.91771   0.00000  Uiso   1.00
C142   C     0.45007   0.98911   0.87476   0.00000  Uiso   1.00
C143   C     0.55692   0.95130   0.80725   0.00000  Uiso   1.00
C144   C     0.20397   0.06997   0.93806   0.00000  Uiso   1.00
C145   C     0.17545   0.02280   0.92544   0.00000  Uiso   1.00
C146   C     0.12764   0.02566   0.88603   0.00000  Uiso   1.00
C147   C     0.04785   0.00904   0.82507   0.00000  Uiso   1.00
C148   C     0.21990   0.16250   0.03506   0.00000  Uiso   1.00
C149   C     0.20475   0.19314   0.10400   0.00000  Uiso   1.00
C150   C     0.17033   0.27390   0.14626   0.00000  Uiso   1.00
C151   C     0.11528   0.40094   0.23592   0.00000  Uiso   1.00
C152   C     0.22294   0.16491   0.93232   0.00000  Uiso   1.00
C153   C     0.30557   0.10467   0.90805   0.00000  Uiso   1.00
C154   C     0.35884   0.09614   0.86511   0.00000  Uiso   1.00
C155   C     0.43145   0.03752   0.84889   0.00000  Uiso   1.00
C156   C     0.18539   0.11828   0.91224   0.00000  Uiso   1.00
C157   C     0.13760   0.12122   0.87285   0.00000  Uiso   1.00
C158   C     0.10901   0.07407   0.86016   0.00000  Uiso   1.00
C159   C     0.20132   0.21082   0.00925   0.00000  Uiso   1.00
C160   C     0.16690   0.29155   0.05141   0.00000  Uiso   1.00
C161   C     0.15171   0.32231   0.12040   0.00000  Uiso   1.00
H162   H     0.27163   0.03834   0.99996   0.00000  Uiso   1.00
H163   H     0.41106   0.96034   0.93769   0.00000  Uiso   1.00
H164   H     0.18984   0.98543   0.94543   0.00000  Uiso   1.00
H165   H     0.21914   0.15573   0.12396   0.00000  Uiso   1.00
H166   H     0.55745   0.89516   0.85726   0.00000  Uiso   1.00
H167   H     0.09097   0.94807   0.87359   0.00000  Uiso   1.00
H168   H     0.15276   0.30718   0.25006   0.00000  Uiso   1.00
H169   H     0.20847   0.20253   0.91222   0.00000  Uiso   1.00
H170   H     0.34444   0.13354   0.84514   0.00000  Uiso   1.00
H171   H     0.12322   0.15862   0.85288   0.00000  Uiso   1.00
H172   H     0.15253   0.32892   0.03141   0.00000  Uiso   1.00
H173   H     0.50338   0.03573   0.78213   0.00000  Uiso   1.00
H174   H     0.03690   0.08864   0.79847   0.00000  Uiso   1.00
H175   H     0.09869   0.44776   0.17494   0.00000  Uiso   1.00
O176   O     0.62100   0.91708   0.77713   0.00000  Uiso   1.00
O177   O     0.00899   0.98651   0.79858   0.00000  Uiso   1.00
O178   O     0.09006   0.45766   0.29250   0.00000  Uiso   1.00
N179   N     0.52607   0.93772   0.84879   0.00000  Uiso   1.00
N180   N     0.08995   0.98717   0.86405   0.00000  Uiso   1.00
N181   N     0.14770   0.32292   0.21603   0.00000  Uiso   1.00
N182   N     0.49697   0.01336   0.80837   0.00000  Uiso   1.00
N183   N     0.06085   0.06282   0.82363   0.00000  Uiso   1.00
N184   N     0.11860   0.39856   0.17561   0.00000  Uiso   1.00
C185   C     0.04802   0.68105   0.03227   0.00000  Uiso   1.00
C186   C     0.07885   0.59360   0.98537   0.00000  Uiso   1.00
C187   C     0.03737   0.55930   0.96551   0.00000  Uiso   1.00
C188   C     0.07596   0.47833   0.92235   0.00000  Uiso   1.00
C189   C     0.11207   0.34939   0.85292   0.00000  Uiso   1.00
C190   C     0.08045   0.70336   0.99308   0.00000  Uiso   1.00
C191   C     0.04032   0.76135   0.97972   0.00000  Uiso   1.00
C192   C     0.08026   0.77277   0.94306   0.00000  Uiso   1.00
C193   C     0.11885   0.81427   0.88564   0.00000  Uiso   1.00
C194   C     0.08228   0.68944   0.09001   0.00000  Uiso   1.00
C195   C     0.04368   0.73575   0.15815   0.00000  Uiso   1.00
C196   C     0.08517   0.73547   0.20310   0.00000  Uiso   1.00
C197   C     0.12660   0.75536   0.29618   0.00000  Uiso   1.00
C198   C     0.19032   0.59823   0.99092   0.00000  Uiso   1.00
C199   C     0.15614   0.54862   0.96291   0.00000  Uiso   1.00
C200   C     0.19480   0.46767   0.91977   0.00000  Uiso   1.00
C201   C     0.15339   0.43326   0.89986   0.00000  Uiso   1.00
C202   C     0.15774   0.65838   0.97062   0.00000  Uiso   1.00
C203   C     0.19775   0.66972   0.93398   0.00000  Uiso   1.00
C204   C     0.15769   0.72771   0.92056   0.00000  Uiso   1.00
C205   C     0.15957   0.64446   0.06756   0.00000  Uiso   1.00
C206   C     0.20112   0.64411   0.11241   0.00000  Uiso   1.00
C207   C     0.16259   0.69041   0.18060   0.00000  Uiso   1.00
H208   H     0.98785   0.71608   0.04975   0.00000  Uiso   1.00
H209   H     0.97756   0.59414   0.98290   0.00000  Uiso   1.00
H210   H     0.98051   0.79616   0.99711   0.00000  Uiso   1.00
H211   H     0.98387   0.77055   0.17551   0.00000  Uiso   1.00
H212   H     0.00023   0.43911   0.89886   0.00000  Uiso   1.00
H213   H     0.00644   0.86510   0.92884   0.00000  Uiso   1.00
H214   H     0.01355   0.81111   0.30504   0.00000  Uiso   1.00
H215   H     0.25050   0.56321   0.97344   0.00000  Uiso   1.00
H216   H     0.25462   0.43288   0.90240   0.00000  Uiso   1.00
H217   H     0.25756   0.63490   0.91661   0.00000  Uiso   1.00
H218   H     0.26093   0.60930   0.09501   0.00000  Uiso   1.00
H219   H     0.22510   0.30823   0.83352   0.00000  Uiso   1.00
H220   H     0.23131   0.73422   0.86351   0.00000  Uiso   1.00
H221   H     0.23842   0.68023   0.23971   0.00000  Uiso   1.00
O222   O     0.11063   0.29070   0.82082   0.00000  Uiso   1.00
O223   O     0.11879   0.84958   0.86017   0.00000  Uiso   1.00
O224   O     0.12811   0.77875   0.35373   0.00000  Uiso   1.00
N225   N     0.05259   0.42619   0.89324   0.00000  Uiso   1.00
N226   N     0.05840   0.82446   0.92127   0.00000  Uiso   1.00
N227   N     0.06504   0.77400   0.27298   0.00000  Uiso   1.00
N228   N     0.17359   0.35577   0.85809   0.00000  Uiso   1.00
N229   N     0.17940   0.75403   0.88611   0.00000  Uiso   1.00
N230   N     0.18604   0.70357   0.23783   0.00000  Uiso   1.00
C231   C     0.69142   0.18350   0.90267   0.00000  Uiso   1.00
C232   C     0.64373   0.20033   0.85811   0.00000  Uiso   1.00
C233   C     0.63551   0.24998   0.83639   0.00000  Uiso   1.00
C234   C     0.58940   0.25749   0.79591   0.00000  Uiso   1.00
C235   C     0.52094   0.28980   0.72943   0.00000  Uiso   1.00
C236   C     0.74445   0.09478   0.86345   0.00000  Uiso   1.00
C237   C     0.82092   0.05568   0.84623   0.00000  Uiso   1.00
C238   C     0.85959   0.97433   0.81025   0.00000  Uiso   1.00
C239   C     0.94749   0.84276   0.75211   0.00000  Uiso   1.00
C240   C     0.63998   0.20401   0.96366   0.00000  Uiso   1.00
C241   C     0.62862   0.25674   0.03070   0.00000  Uiso   1.00
C242   C     0.57934   0.26734   0.07909   0.00000  Uiso   1.00
C243   C     0.50504   0.30536   0.17654   0.00000  Uiso   1.00
C244   C     0.62415   0.10854   0.86940   0.00000  Uiso   1.00
C245   C     0.60720   0.15962   0.84004   0.00000  Uiso   1.00
C246   C     0.56108   0.16706   0.79958   0.00000  Uiso   1.00
C247   C     0.55279   0.21671   0.77780   0.00000  Uiso   1.00
C248   C     0.70792   0.05407   0.84538   0.00000  Uiso   1.00
C249   C     0.74648   0.97276   0.80942   0.00000  Uiso   1.00
C250   C     0.82298   0.93355   0.79215   0.00000  Uiso   1.00
C251   C     0.60344   0.16330   0.94559   0.00000  Uiso   1.00
C252   C     0.55418   0.17381   0.99389   0.00000  Uiso   1.00
C253   C     0.54274   0.22655   0.06099   0.00000  Uiso   1.00
H254   H     0.71988   0.21518   0.91674   0.00000  Uiso   1.00
H255   H     0.66381   0.28147   0.85038   0.00000  Uiso   1.00
H256   H     0.84918   0.08720   0.86023   0.00000  Uiso   1.00
H257   H     0.65690   0.28823   0.04467   0.00000  Uiso   1.00
H258   H     0.58555   0.33699   0.76882   0.00000  Uiso   1.00
H259   H     0.97641   0.92735   0.78960   0.00000  Uiso   1.00
H260   H     0.57097   0.35126   0.17853   0.00000  Uiso   1.00
H261   H     0.59570   0.07685   0.85533   0.00000  Uiso   1.00
H262   H     0.53281   0.13555   0.78560   0.00000  Uiso   1.00
H263   H     0.71819   0.94127   0.79545   0.00000  Uiso   1.00
H264   H     0.52591   0.14230   0.97988   0.00000  Uiso   1.00
H265   H     0.47923   0.21855   0.71624   0.00000  Uiso   1.00
H266   H     0.87010   0.80891   0.73702   0.00000  Uiso   1.00
H267   H     0.46465   0.23282   0.12594   0.00000  Uiso   1.00
O268   O     0.49329   0.31886   0.69775   0.00000  Uiso   1.00
O269   O     0.00608   0.78144   0.72502   0.00000  Uiso   1.00
O270   O     0.47415   0.33759   0.23528   0.00000  Uiso   1.00
N271   N     0.56915   0.30107   0.76602   0.00000  Uiso   1.00
N272   N     0.93458   0.91809   0.78544   0.00000  Uiso   1.00
N273   N     0.55554   0.31439   0.14906   0.00000  Uiso   1.00
N274   N     0.51194   0.23734   0.73773   0.00000  Uiso   1.00
N275   N     0.87737   0.85435   0.75715   0.00000  Uiso   1.00
N276   N     0.49833   0.25066   0.12077   0.00000  Uiso   1.00
C277   C     0.38342   0.82613   0.59925   0.00000  Uiso   1.00
C278   C     0.35177   0.81073   0.64577   0.00000  Uiso   1.00
C279   C     0.39255   0.76136   0.66747   0.00000  Uiso   1.00
C280   C     0.35327   0.75524   0.70992   0.00000  Uiso   1.00
C281   C     0.31587   0.72501   0.77914   0.00000  Uiso   1.00
C282   C     0.34890   0.91465   0.63749   0.00000  Uiso   1.00
C283   C     0.38728   0.95264   0.65222   0.00000  Uiso   1.00
C284   C     0.34558   0.03400   0.68768   0.00000  Uiso   1.00
C285   C     0.30374   0.16509   0.74400   0.00000  Uiso   1.00
C286   C     0.35209   0.80573   0.53970   0.00000  Uiso   1.00
C287   C     0.39314   0.75216   0.47220   0.00000  Uiso   1.00
C288   C     0.35411   0.74183   0.42533   0.00000  Uiso   1.00
C289   C     0.31721   0.70382   0.32982   0.00000  Uiso   1.00
C290   C     0.24113   0.90306   0.63603   0.00000  Uiso   1.00
C291   C     0.27448   0.85252   0.66575   0.00000  Uiso   1.00
C292   C     0.23512   0.84647   0.70817   0.00000  Uiso   1.00
C293   C     0.27584   0.79709   0.72993   0.00000  Uiso   1.00
C294   C     0.27162   0.95643   0.65747   0.00000  Uiso   1.00
C295   C     0.22985   0.03775   0.69291   0.00000  Uiso   1.00
C296   C     0.26816   0.07585   0.70769   0.00000  Uiso   1.00
C297   C     0.27480   0.84751   0.55968   0.00000  Uiso   1.00
C298   C     0.23570   0.83727   0.51290   0.00000  Uiso   1.00
C299   C     0.27668   0.78369   0.44535   0.00000  Uiso   1.00
H300   H     0.44360   0.79361   0.58370   0.00000  Uiso   1.00
H301   H     0.45237   0.72904   0.65201   0.00000  Uiso   1.00
H302   H     0.44709   0.92029   0.63674   0.00000  Uiso   1.00
H303   H     0.45294   0.71984   0.45676   0.00000  Uiso   1.00
H304   H     0.42801   0.67591   0.73657   0.00000  Uiso   1.00
H305   H     0.41689   0.07917   0.70437   0.00000  Uiso   1.00
H306   H     0.42923   0.65648   0.32484   0.00000  Uiso   1.00
H307   H     0.18095   0.93559   0.65159   0.00000  Uiso   1.00
H308   H     0.17531   0.87881   0.72362   0.00000  Uiso   1.00
H309   H     0.17004   0.07006   0.70836   0.00000  Uiso   1.00
H310   H     0.17589   0.86961   0.52838   0.00000  Uiso   1.00
H311   H     0.20314   0.79747   0.79470   0.00000  Uiso   1.00
H312   H     0.19202   0.20073   0.76249   0.00000  Uiso   1.00
H313   H     0.20436   0.77804   0.38297   0.00000  Uiso   1.00
O314   O     0.31660   0.69680   0.81181   0.00000  Uiso   1.00
O315   O     0.30202   0.22585   0.76955   0.00000  Uiso   1.00
O316   O     0.31820   0.67130   0.27163   0.00000  Uiso   1.00
N317   N     0.37586   0.71230   0.74035   0.00000  Uiso   1.00
N318   N     0.36547   0.08932   0.71026   0.00000  Uiso   1.00
N319   N     0.37700   0.69416   0.35543   0.00000  Uiso   1.00
N320   N     0.25486   0.77771   0.77163   0.00000  Uiso   1.00
N321   N     0.24447   0.15473   0.74153   0.00000  Uiso   1.00
N322   N     0.25600   0.75957   0.38671   0.00000  Uiso   1.00
C323   C     0.84506   0.92331   0.49471   0.00000  Uiso   1.00
C324   C     0.89500   0.94221   0.53589   0.00000  Uiso   1.00
C325   C     0.91047   0.99888   0.54697   0.00000  Uiso   1.00
C326   C     0.95746   0.00716   0.58606   0.00000  Uiso   1.00
C327   C     0.03035   0.04364   0.64593   0.00000  Uiso   1.00
C328   C     0.78646   0.93265   0.54179   0.00000  Uiso   1.00
C329   C     0.71067   0.98129   0.55782   0.00000  Uiso   1.00
C330   C     0.66630   0.98151   0.60188   0.00000  Uiso   1.00
C331   C     0.57068   0.00312   0.67086   0.00000  Uiso   1.00
C332   C     0.89207   0.83607   0.44053   0.00000  Uiso   1.00
C333   C     0.90507   0.80349   0.37142   0.00000  Uiso   1.00
C334   C     0.94960   0.72240   0.33022   0.00000  Uiso   1.00
C335   C     0.01795   0.59405   0.24199   0.00000  Uiso   1.00
C336   C     0.90101   0.83721   0.54444   0.00000  Uiso   1.00
C337   C     0.92538   0.89544   0.56290   0.00000  Uiso   1.00
C338   C     0.97237   0.90363   0.60199   0.00000  Uiso   1.00
C339   C     0.98791   0.96031   0.61312   0.00000  Uiso   1.00
C340   C     0.81684   0.88589   0.56880   0.00000  Uiso   1.00
C341   C     0.77257   0.88604   0.61284   0.00000  Uiso   1.00
C342   C     0.69674   0.93467   0.62894   0.00000  Uiso   1.00
C343   C     0.92246   0.78931   0.46754   0.00000  Uiso   1.00
C344   C     0.96697   0.70824   0.42644   0.00000  Uiso   1.00
C345   C     0.98004   0.67555   0.35728   0.00000  Uiso   1.00
H346   H     0.82140   0.95971   0.47368   0.00000  Uiso   1.00
H347   H     0.88694   0.03507   0.52606   0.00000  Uiso   1.00
H348   H     0.68718   0.01747   0.53691   0.00000  Uiso   1.00
H349   H     0.88154   0.83970   0.35054   0.00000  Uiso   1.00
H350   H     0.97298   0.09800   0.59607   0.00000  Uiso   1.00
H351   H     0.55177   0.06087   0.61891   0.00000  Uiso   1.00
H352   H     0.96163   0.68601   0.22592   0.00000  Uiso   1.00
H353   H     0.92466   0.80081   0.56547   0.00000  Uiso   1.00
H354   H     0.99587   0.86744   0.62289   0.00000  Uiso   1.00
H355   H     0.79611   0.84984   0.63373   0.00000  Uiso   1.00
H356   H     0.99048   0.67207   0.44736   0.00000  Uiso   1.00
H357   H     0.06139   0.96195   0.67465   0.00000  Uiso   1.00
H358   H     0.64018   0.92482   0.69750   0.00000  Uiso   1.00
H359   H     0.05004   0.54997   0.30450   0.00000  Uiso   1.00
O360   O     0.06214   0.07669   0.67149   0.00000  Uiso   1.00
O361   O     0.50953   0.02797   0.70146   0.00000  Uiso   1.00
O362   O     0.04726   0.53617   0.18585   0.00000  Uiso   1.00
N363   N     0.98402   0.05683   0.60667   0.00000  Uiso   1.00
N364   N     0.59022   0.02213   0.62804   0.00000  Uiso   1.00
N365   N     0.97339   0.67166   0.26062   0.00000  Uiso   1.00
N366   N     0.03160   0.98362   0.64896   0.00000  Uiso   1.00
N367   N     0.63779   0.94892   0.67033   0.00000  Uiso   1.00
N368   N     0.02096   0.59845   0.30291   0.00000  Uiso   1.00
C369   C     0.21501   0.32529   0.47826   0.00000  Uiso   1.00
C370   C     0.15748   0.41257   0.52496   0.00000  Uiso   1.00
C371   C     0.08181   0.44588   0.54571   0.00000  Uiso   1.00
C372   C     0.03849   0.52687   0.58851   0.00000  Uiso   1.00
C373   C     0.94440   0.65539   0.65782   0.00000  Uiso   1.00
C374   C     0.26923   0.30425   0.51700   0.00000  Uiso   1.00
C375   C     0.28752   0.24647   0.53105   0.00000  Uiso   1.00
C376   C     0.33828   0.23627   0.56715   0.00000  Uiso   1.00
C377   C     0.41772   0.19658   0.62406   0.00000  Uiso   1.00
C378   C     0.25783   0.31704   0.41961   0.00000  Uiso   1.00
C379   C     0.26655   0.27000   0.35177   0.00000  Uiso   1.00
C380   C     0.30774   0.27055   0.30587   0.00000  Uiso   1.00
C381   C     0.36948   0.25073   0.21158   0.00000  Uiso   1.00
C382   C     0.27265   0.40990   0.51736   0.00000  Uiso   1.00
C383   C     0.18879   0.45853   0.54620   0.00000  Uiso   1.00
C384   C     0.14558   0.53949   0.58898   0.00000  Uiso   1.00
C385   C     0.06985   0.57291   0.60979   0.00000  Uiso   1.00
C386   C     0.30054   0.35020   0.53824   0.00000  Uiso   1.00
C387   C     0.35129   0.34008   0.57432   0.00000  Uiso   1.00
C388   C     0.36965   0.28231   0.58843   0.00000  Uiso   1.00
C389   C     0.28914   0.36300   0.44085   0.00000  Uiso   1.00
C390   C     0.33032   0.36362   0.39505   0.00000  Uiso   1.00
C391   C     0.33910   0.31659   0.32715   0.00000  Uiso   1.00
H392   H     0.19064   0.28951   0.46172   0.00000  Uiso   1.00
H393   H     0.05760   0.41029   0.52926   0.00000  Uiso   1.00
H394   H     0.26329   0.21091   0.51460   0.00000  Uiso   1.00
H395   H     0.24232   0.23444   0.33536   0.00000  Uiso   1.00
H396   H     0.92390   0.56446   0.61354   0.00000  Uiso   1.00
H397   H     0.35762   0.14404   0.58260   0.00000  Uiso   1.00
H398   H     0.31342   0.19366   0.20462   0.00000  Uiso   1.00
H399   H     0.29703   0.44568   0.53390   0.00000  Uiso   1.00
H400   H     0.16982   0.57504   0.60541   0.00000  Uiso   1.00
H401   H     0.37551   0.37565   0.59075   0.00000  Uiso   1.00
H402   H     0.35454   0.39919   0.41150   0.00000  Uiso   1.00
H403   H     0.01499   0.69817   0.67535   0.00000  Uiso   1.00
H404   H     0.44871   0.27775   0.64440   0.00000  Uiso   1.00
H405   H     0.40450   0.32737   0.26643   0.00000  Uiso   1.00
O406   O     0.88385   0.71359   0.69020   0.00000  Uiso   1.00
O407   O     0.45288   0.16200   0.64959   0.00000  Uiso   1.00
O408   O     0.39488   0.22711   0.15370   0.00000  Uiso   1.00
N409   N     0.96280   0.57818   0.61826   0.00000  Uiso   1.00
N410   N     0.36829   0.18512   0.58934   0.00000  Uiso   1.00
N411   N     0.32698   0.23149   0.23597   0.00000  Uiso   1.00
N412   N     0.01181   0.65013   0.65152   0.00000  Uiso   1.00
N413   N     0.41730   0.25707   0.62260   0.00000  Uiso   1.00
N414   N     0.37599   0.30344   0.26922   0.00000  Uiso   1.00
C415   C     0.74284   0.92405   0.02014   0.00000  Uiso   1.00
C416   C     0.67584   0.94365   0.06613   0.00000  Uiso   1.00
C417   C     0.60330   0.00227   0.08229   0.00000  Uiso   1.00
C418   C     0.54993   0.01089   0.12524   0.00000  Uiso   1.00
C419   C     0.44308   0.04870   0.19275   0.00000  Uiso   1.00
C420   C     0.79603   0.93003   0.06194   0.00000  Uiso   1.00
C421   C     0.82455   0.97720   0.07456   0.00000  Uiso   1.00
C422   C     0.87236   0.97434   0.11397   0.00000  Uiso   1.00
C423   C     0.95215   0.99096   0.17493   0.00000  Uiso   1.00
C424   C     0.78010   0.83750   0.96494   0.00000  Uiso   1.00
C425   C     0.79525   0.80686   0.89600   0.00000  Uiso   1.00
C426   C     0.82967   0.72610   0.85374   0.00000  Uiso   1.00
C427   C     0.88472   0.59906   0.76408   0.00000  Uiso   1.00
C428   C     0.77706   0.83509   0.06768   0.00000  Uiso   1.00
C429   C     0.69443   0.89533   0.09195   0.00000  Uiso   1.00
C430   C     0.64116   0.90386   0.13489   0.00000  Uiso   1.00
C431   C     0.56855   0.96248   0.15111   0.00000  Uiso   1.00
C432   C     0.81461   0.88172   0.08776   0.00000  Uiso   1.00
C433   C     0.86240   0.87878   0.12715   0.00000  Uiso   1.00
C434   C     0.89099   0.92593   0.13984   0.00000  Uiso   1.00
C435   C     0.79868   0.78918   0.99075   0.00000  Uiso   1.00
C436   C     0.83310   0.70845   0.94859   0.00000  Uiso   1.00
C437   C     0.84829   0.67769   0.87960   0.00000  Uiso   1.00
H438   H     0.72837   0.96166   0.00004   0.00000  Uiso   1.00
H439   H     0.58894   0.03966   0.06231   0.00000  Uiso   1.00
H440   H     0.81016   0.01457   0.05457   0.00000  Uiso   1.00
H441   H     0.78086   0.84427   0.87604   0.00000  Uiso   1.00
H442   H     0.44255   0.10484   0.14274   0.00000  Uiso   1.00
H443   H     0.90903   0.05193   0.12641   0.00000  Uiso   1.00
H444   H     0.84724   0.69282   0.74994   0.00000  Uiso   1.00
H445   H     0.79153   0.79747   0.08778   0.00000  Uiso   1.00
H446   H     0.65556   0.86646   0.15486   0.00000  Uiso   1.00
H447   H     0.87678   0.84138   0.14712   0.00000  Uiso   1.00
H448   H     0.84747   0.67108   0.96859   0.00000  Uiso   1.00
H449   H     0.49662   0.96427   0.21787   0.00000  Uiso   1.00
H450   H     0.96310   0.91136   0.20153   0.00000  Uiso   1.00
H451   H     0.90131   0.55224   0.82506   0.00000  Uiso   1.00
O452   O     0.37900   0.08292   0.22287   0.00000  Uiso   1.00
O453   O     0.99101   0.01349   0.20142   0.00000  Uiso   1.00
O454   O     0.90994   0.54234   0.70750   0.00000  Uiso   1.00
N455   N     0.47393   0.06228   0.15121   0.00000  Uiso   1.00
N456   N     0.91005   0.01283   0.13595   0.00000  Uiso   1.00
N457   N     0.85230   0.67708   0.78397   0.00000  Uiso   1.00
N458   N     0.50303   0.98664   0.19163   0.00000  Uiso   1.00
N459   N     0.93915   0.93718   0.17637   0.00000  Uiso   1.00
N460   N     0.88140   0.60144   0.82439   0.00000  Uiso   1.00
C461   C     0.95198   0.31895   0.96773   0.00000  Uiso   1.00
C462   C     0.92115   0.40640   0.01463   0.00000  Uiso   1.00
C463   C     0.96263   0.44070   0.03449   0.00000  Uiso   1.00
C464   C     0.92404   0.52167   0.07765   0.00000  Uiso   1.00
C465   C     0.88793   0.65061   0.14708   0.00000  Uiso   1.00
C466   C     0.91955   0.29664   0.00692   0.00000  Uiso   1.00
C467   C     0.95968   0.23865   0.02028   0.00000  Uiso   1.00
C468   C     0.91974   0.22723   0.05694   0.00000  Uiso   1.00
C469   C     0.88115   0.18573   0.11436   0.00000  Uiso   1.00
C470   C     0.91772   0.31056   0.90999   0.00000  Uiso   1.00
C471   C     0.95632   0.26425   0.84185   0.00000  Uiso   1.00
C472   C     0.91483   0.26453   0.79690   0.00000  Uiso   1.00
C473   C     0.87340   0.24464   0.70382   0.00000  Uiso   1.00
C474   C     0.80968   0.40177   0.00908   0.00000  Uiso   1.00
C475   C     0.84386   0.45138   0.03709   0.00000  Uiso   1.00
C476   C     0.80520   0.53233   0.08023   0.00000  Uiso   1.00
C477   C     0.84661   0.56674   0.10014   0.00000  Uiso   1.00
C478   C     0.84226   0.34162   0.02938   0.00000  Uiso   1.00
C479   C     0.80225   0.33028   0.06602   0.00000  Uiso   1.00
C480   C     0.84231   0.27229   0.07944   0.00000  Uiso   1.00
C481   C     0.84043   0.35554   0.93244   0.00000  Uiso   1.00
C482   C     0.79888   0.35589   0.88759   0.00000  Uiso   1.00
C483   C     0.83741   0.30959   0.81940   0.00000  Uiso   1.00
H484   H     0.01215   0.28392   0.95025   0.00000  Uiso   1.00
H485   H     0.02244   0.40586   0.01710   0.00000  Uiso   1.00
H486   H     0.01949   0.20384   0.00289   0.00000  Uiso   1.00
H487   H     0.01613   0.22945   0.82449   0.00000  Uiso   1.00
H488   H     0.99977   0.56089   0.10114   0.00000  Uiso   1.00
H489   H     0.99356   0.13490   0.07116   0.00000  Uiso   1.00
H490   H     0.98645   0.18889   0.69496   0.00000  Uiso   1.00
H491   H     0.74950   0.43679   0.02656   0.00000  Uiso   1.00
H492   H     0.74538   0.56712   0.09760   0.00000  Uiso   1.00
H493   H     0.74244   0.36510   0.08339   0.00000  Uiso   1.00
H494   H     0.73907   0.39070   0.90499   0.00000  Uiso   1.00
H495   H     0.77490   0.69177   0.16648   0.00000  Uiso   1.00
H496   H     0.76869   0.26578   0.13649   0.00000  Uiso   1.00
H497   H     0.76158   0.31977   0.76029   0.00000  Uiso   1.00
O498   O     0.88937   0.70930   0.17918   0.00000  Uiso   1.00
O499   O     0.88121   0.15042   0.13983   0.00000  Uiso   1.00
O500   O     0.87189   0.22125   0.64627   0.00000  Uiso   1.00
N501   N     0.94741   0.57381   0.10676   0.00000  Uiso   1.00
N502   N     0.94160   0.17554   0.07873   0.00000  Uiso   1.00
N503   N     0.93496   0.22600   0.72702   0.00000  Uiso   1.00
N504   N     0.82641   0.64423   0.14191   0.00000  Uiso   1.00
N505   N     0.82060   0.24597   0.11389   0.00000  Uiso   1.00
N506   N     0.81396   0.29643   0.76217   0.00000  Uiso   1.00
C507   C     0.30858   0.81650   0.09733   0.00000  Uiso   1.00
C508   C     0.35627   0.79967   0.14189   0.00000  Uiso   1.00
C509   C     0.36449   0.75002   0.16361   0.00000  Uiso   1.00
C510   C     0.41060   0.74251   0.20409   0.00000  Uiso   1.00
C511   C     0.47906   0.71020   0.27057   0.00000  Uiso   1.00
C512   C     0.25555   0.90522   0.13655   0.00000  Uiso   1.00
C513   C     0.17908   0.94432   0.15377   0.00000  Uiso   1.00
C514   C     0.14041   0.02567   0.18975   0.00000  Uiso   1.00
C515   C     0.05251   0.15724   0.24789   0.00000  Uiso   1.00
C516   C     0.36002   0.79599   0.03634   0.00000  Uiso   1.00
C517   C     0.37138   0.74326   0.96930   0.00000  Uiso   1.00
C518   C     0.42066   0.73266   0.92091   0.00000  Uiso   1.00
C519   C     0.49496   0.69464   0.82346   0.00000  Uiso   1.00
C520   C     0.37585   0.89146   0.13060   0.00000  Uiso   1.00
C521   C     0.39280   0.84038   0.15996   0.00000  Uiso   1.00
C522   C     0.43892   0.83294   0.20042   0.00000  Uiso   1.00
C523   C     0.44721   0.78329   0.22220   0.00000  Uiso   1.00
C524   C     0.29208   0.94593   0.15462   0.00000  Uiso   1.00
C525   C     0.25352   0.02724   0.19058   0.00000  Uiso   1.00
C526   C     0.17702   0.06645   0.20785   0.00000  Uiso   1.00
C527   C     0.39656   0.83670   0.05441   0.00000  Uiso   1.00
C528   C     0.44582   0.82619   0.00611   0.00000  Uiso   1.00
C529   C     0.45726   0.77345   0.93901   0.00000  Uiso   1.00
H530   H     0.28012   0.78482   0.08326   0.00000  Uiso   1.00
H531   H     0.33619   0.71853   0.14962   0.00000  Uiso   1.00
H532   H     0.15082   0.91280   0.13977   0.00000  Uiso   1.00
H533   H     0.34310   0.71177   0.95533   0.00000  Uiso   1.00
H534   H     0.41445   0.66301   0.23118   0.00000  Uiso   1.00
H535   H     0.02359   0.07265   0.21040   0.00000  Uiso   1.00
H536   H     0.42903   0.64874   0.82147   0.00000  Uiso   1.00
H537   H     0.40430   0.92315   0.14467   0.00000  Uiso   1.00
H538   H     0.46719   0.86445   0.21440   0.00000  Uiso   1.00
H539   H     0.28181   0.05873   0.20455   0.00000  Uiso   1.00
H540   H     0.47409   0.85770   0.02012   0.00000  Uiso   1.00
H541   H     0.52077   0.78145   0.28376   0.00000  Uiso   1.00
H542   H     0.12990   0.19109   0.26298   0.00000  Uiso   1.00
H543   H     0.53535   0.76718   0.87406   0.00000  Uiso   1.00
O544   O     0.50671   0.68114   0.30225   0.00000  Uiso   1.00
O545   O     0.99392   0.21856   0.27498   0.00000  Uiso   1.00
O546   O     0.52585   0.66241   0.76472   0.00000  Uiso   1.00
N547   N     0.43085   0.69893   0.23398   0.00000  Uiso   1.00
N548   N     0.06542   0.08191   0.21456   0.00000  Uiso   1.00
N549   N     0.44446   0.68561   0.85094   0.00000  Uiso   1.00
N550   N     0.48806   0.76266   0.26227   0.00000  Uiso   1.00
N551   N     0.12263   0.14565   0.24285   0.00000  Uiso   1.00
N552   N     0.50167   0.74934   0.87923   0.00000  Uiso   1.00
