data_job_01680
_audit_creation_date              2018-12-19
_audit_creation_method            'Materials Studio'
_symmetry_space_group_name_H-M    'P1'
_symmetry_Int_Tables_number       1
_symmetry_cell_setting            triclinic
loop_
_symmetry_equiv_pos_as_xyz
  x,y,z
_cell_length_a                    14.0141
_cell_length_b                    20.5748
_cell_length_c                    34.3202
_cell_angle_alpha                 90.0000
_cell_angle_beta                  127.2908
_cell_angle_gamma                 90.0000
loop_
_atom_site_label
_atom_site_type_symbol
_atom_site_fract_x
_atom_site_fract_y
_atom_site_fract_z
_atom_site_U_iso_or_equiv
_atom_site_adp_type
_atom_site_occupancy
C1     C     0.02123   0.79761   0.95405   0.00000  Uiso   1.00
C2     C     0.97006   0.86578   0.93612   0.00000  Uiso   1.00
C3     C     0.02743   0.92336   0.96011   0.00000  Uiso   1.00
C4     C     0.96551   0.98070   0.93770   0.00000  Uiso   1.00
C5     C     0.90354   0.08659   0.91669   0.00000  Uiso   1.00
C6     C     0.93058   0.76071   0.95648   0.00000  Uiso   1.00
C7     C     0.95478   0.72995   0.99758   0.00000  Uiso   1.00
C8     C     0.85963   0.69884   0.99230   0.00000  Uiso   1.00
C9     C     0.73640   0.64157   0.00289   0.00000  Uiso   1.00
C10    C     0.01778   0.76595   0.91304   0.00000  Uiso   1.00
C11    C     0.11529   0.73957   0.91762   0.00000  Uiso   1.00
C12    C     0.09355   0.71285   0.87577   0.00000  Uiso   1.00
C13    C     0.10571   0.66372   0.81891   0.00000  Uiso   1.00
C14    C     0.80925   0.79704   0.87158   0.00000  Uiso   1.00
C15    C     0.85491   0.86547   0.89133   0.00000  Uiso   1.00
C16    C     0.79289   0.92274   0.86887   0.00000  Uiso   1.00
C17    C     0.85017   0.98039   0.89283   0.00000  Uiso   1.00
C18    C     0.81544   0.76040   0.91169   0.00000  Uiso   1.00
C19    C     0.72024   0.72932   0.90635   0.00000  Uiso   1.00
C20    C     0.74428   0.69853   0.94743   0.00000  Uiso   1.00
C21    C     0.90264   0.76564   0.86825   0.00000  Uiso   1.00
C22    C     0.88075   0.73895   0.82638   0.00000  Uiso   1.00
C23    C     0.97821   0.71254   0.83090   0.00000  Uiso   1.00
H24    H     0.11087   0.79785   0.98892   0.00000  Uiso   1.00
H25    H     0.11653   0.92358   0.99478   0.00000  Uiso   1.00
H26    H     0.04389   0.73019   0.03224   0.00000  Uiso   1.00
H27    H     0.20438   0.73982   0.95229   0.00000  Uiso   1.00
H28    H     0.07201   0.06284   0.98152   0.00000  Uiso   1.00
H29    H     0.91886   0.65506   0.06051   0.00000  Uiso   1.00
H30    H     0.25727   0.67535   0.89192   0.00000  Uiso   1.00
H31    H     0.71960   0.79680   0.83671   0.00000  Uiso   1.00
H32    H     0.70379   0.92248   0.83421   0.00000  Uiso   1.00
H33    H     0.63115   0.72909   0.87168   0.00000  Uiso   1.00
H34    H     0.79164   0.73872   0.79173   0.00000  Uiso   1.00
H35    H     0.73701   0.06195   0.85121   0.00000  Uiso   1.00
H36    H     0.58386   0.65416   0.93019   0.00000  Uiso   1.00
H37    H     0.92228   0.67446   0.76160   0.00000  Uiso   1.00
O38    O     0.90115   0.14509   0.91748   0.00000  Uiso   1.00
O39    O     0.70023   0.61008   0.02110   0.00000  Uiso   1.00
O40    O     0.14423   0.63671   0.79991   0.00000  Uiso   1.00
N41    N     0.99535   0.04538   0.95119   0.00000  Uiso   1.00
N42    N     0.85216   0.66414   0.02504   0.00000  Uiso   1.00
N43    N     0.16854   0.68310   0.86743   0.00000  Uiso   1.00
N44    N     0.81509   0.04490   0.88107   0.00000  Uiso   1.00
N45    N     0.67190   0.66366   0.95492   0.00000  Uiso   1.00
N46    N     0.98828   0.68262   0.79730   0.00000  Uiso   1.00
C47    C     0.52123   0.29761   0.95405   0.00000  Uiso   1.00
C48    C     0.47006   0.36578   0.93612   0.00000  Uiso   1.00
C49    C     0.52743   0.42336   0.96011   0.00000  Uiso   1.00
C50    C     0.46551   0.48070   0.93770   0.00000  Uiso   1.00
C51    C     0.40354   0.58659   0.91669   0.00000  Uiso   1.00
C52    C     0.43058   0.26071   0.95648   0.00000  Uiso   1.00
C53    C     0.45478   0.22995   0.99758   0.00000  Uiso   1.00
C54    C     0.35963   0.19884   0.99230   0.00000  Uiso   1.00
C55    C     0.23640   0.14157   0.00289   0.00000  Uiso   1.00
C56    C     0.51778   0.26595   0.91304   0.00000  Uiso   1.00
C57    C     0.61529   0.23957   0.91762   0.00000  Uiso   1.00
C58    C     0.59355   0.21285   0.87577   0.00000  Uiso   1.00
C59    C     0.60571   0.16372   0.81891   0.00000  Uiso   1.00
C60    C     0.30925   0.29704   0.87158   0.00000  Uiso   1.00
C61    C     0.35491   0.36547   0.89133   0.00000  Uiso   1.00
C62    C     0.29289   0.42274   0.86887   0.00000  Uiso   1.00
C63    C     0.35017   0.48039   0.89283   0.00000  Uiso   1.00
C64    C     0.31544   0.26040   0.91169   0.00000  Uiso   1.00
C65    C     0.22024   0.22932   0.90635   0.00000  Uiso   1.00
C66    C     0.24428   0.19853   0.94743   0.00000  Uiso   1.00
C67    C     0.40264   0.26564   0.86825   0.00000  Uiso   1.00
C68    C     0.38075   0.23895   0.82638   0.00000  Uiso   1.00
C69    C     0.47821   0.21254   0.83090   0.00000  Uiso   1.00
H70    H     0.61087   0.29785   0.98892   0.00000  Uiso   1.00
H71    H     0.61653   0.42358   0.99478   0.00000  Uiso   1.00
H72    H     0.54389   0.23019   0.03224   0.00000  Uiso   1.00
H73    H     0.70438   0.23982   0.95229   0.00000  Uiso   1.00
H74    H     0.57201   0.56284   0.98152   0.00000  Uiso   1.00
H75    H     0.41886   0.15506   0.06051   0.00000  Uiso   1.00
H76    H     0.75727   0.17535   0.89192   0.00000  Uiso   1.00
H77    H     0.21960   0.29680   0.83671   0.00000  Uiso   1.00
H78    H     0.20379   0.42248   0.83421   0.00000  Uiso   1.00
H79    H     0.13115   0.22909   0.87168   0.00000  Uiso   1.00
H80    H     0.29164   0.23872   0.79173   0.00000  Uiso   1.00
H81    H     0.23701   0.56195   0.85121   0.00000  Uiso   1.00
H82    H     0.08386   0.15416   0.93019   0.00000  Uiso   1.00
H83    H     0.42228   0.17446   0.76160   0.00000  Uiso   1.00
O84    O     0.40115   0.64509   0.91748   0.00000  Uiso   1.00
O85    O     0.20023   0.11008   0.02110   0.00000  Uiso   1.00
O86    O     0.64423   0.13671   0.79991   0.00000  Uiso   1.00
N87    N     0.49535   0.54538   0.95119   0.00000  Uiso   1.00
N88    N     0.35216   0.16414   0.02504   0.00000  Uiso   1.00
N89    N     0.66854   0.18310   0.86743   0.00000  Uiso   1.00
N90    N     0.31509   0.54490   0.88107   0.00000  Uiso   1.00
N91    N     0.17190   0.16366   0.95492   0.00000  Uiso   1.00
N92    N     0.48828   0.18262   0.79730   0.00000  Uiso   1.00
C93    C     0.97877   0.79761   0.54595   0.00000  Uiso   1.00
C94    C     0.02994   0.86578   0.56388   0.00000  Uiso   1.00
C95    C     0.97257   0.92336   0.53989   0.00000  Uiso   1.00
C96    C     0.03449   0.98070   0.56230   0.00000  Uiso   1.00
C97    C     0.09646   0.08659   0.58331   0.00000  Uiso   1.00
C98    C     0.06942   0.76071   0.54352   0.00000  Uiso   1.00
C99    C     0.04522   0.72995   0.50242   0.00000  Uiso   1.00
C100   C     0.14037   0.69884   0.50770   0.00000  Uiso   1.00
C101   C     0.26360   0.64157   0.49711   0.00000  Uiso   1.00
C102   C     0.98222   0.76595   0.58696   0.00000  Uiso   1.00
C103   C     0.88471   0.73957   0.58238   0.00000  Uiso   1.00
C104   C     0.90645   0.71285   0.62423   0.00000  Uiso   1.00
C105   C     0.89429   0.66372   0.68109   0.00000  Uiso   1.00
C106   C     0.19075   0.79704   0.62842   0.00000  Uiso   1.00
C107   C     0.14509   0.86547   0.60867   0.00000  Uiso   1.00
C108   C     0.20711   0.92274   0.63113   0.00000  Uiso   1.00
C109   C     0.14983   0.98039   0.60717   0.00000  Uiso   1.00
C110   C     0.18456   0.76040   0.58831   0.00000  Uiso   1.00
C111   C     0.27976   0.72932   0.59365   0.00000  Uiso   1.00
C112   C     0.25572   0.69853   0.55257   0.00000  Uiso   1.00
C113   C     0.09736   0.76564   0.63175   0.00000  Uiso   1.00
C114   C     0.11925   0.73895   0.67362   0.00000  Uiso   1.00
C115   C     0.02179   0.71254   0.66910   0.00000  Uiso   1.00
H116   H     0.88913   0.79785   0.51108   0.00000  Uiso   1.00
H117   H     0.88347   0.92358   0.50522   0.00000  Uiso   1.00
H118   H     0.95611   0.73019   0.46776   0.00000  Uiso   1.00
H119   H     0.79562   0.73982   0.54771   0.00000  Uiso   1.00
H120   H     0.92799   0.06284   0.51848   0.00000  Uiso   1.00
H121   H     0.08114   0.65506   0.43949   0.00000  Uiso   1.00
H122   H     0.74273   0.67535   0.60808   0.00000  Uiso   1.00
H123   H     0.28040   0.79680   0.66329   0.00000  Uiso   1.00
H124   H     0.29621   0.92248   0.66579   0.00000  Uiso   1.00
H125   H     0.36885   0.72909   0.62832   0.00000  Uiso   1.00
H126   H     0.20836   0.73872   0.70827   0.00000  Uiso   1.00
H127   H     0.26299   0.06195   0.64879   0.00000  Uiso   1.00
H128   H     0.41614   0.65416   0.56981   0.00000  Uiso   1.00
H129   H     0.07772   0.67446   0.73840   0.00000  Uiso   1.00
O130   O     0.09885   0.14509   0.58252   0.00000  Uiso   1.00
O131   O     0.29977   0.61008   0.47890   0.00000  Uiso   1.00
O132   O     0.85577   0.63671   0.70009   0.00000  Uiso   1.00
N133   N     0.00465   0.04538   0.54881   0.00000  Uiso   1.00
N134   N     0.14784   0.66414   0.47496   0.00000  Uiso   1.00
N135   N     0.83146   0.68310   0.63257   0.00000  Uiso   1.00
N136   N     0.18491   0.04490   0.61893   0.00000  Uiso   1.00
N137   N     0.32810   0.66366   0.54508   0.00000  Uiso   1.00
N138   N     0.01172   0.68262   0.70270   0.00000  Uiso   1.00
C139   C     0.47877   0.29761   0.54595   0.00000  Uiso   1.00
C140   C     0.52994   0.36578   0.56388   0.00000  Uiso   1.00
C141   C     0.47257   0.42336   0.53989   0.00000  Uiso   1.00
C142   C     0.53449   0.48070   0.56230   0.00000  Uiso   1.00
C143   C     0.59646   0.58659   0.58331   0.00000  Uiso   1.00
C144   C     0.56942   0.26071   0.54352   0.00000  Uiso   1.00
C145   C     0.54522   0.22995   0.50242   0.00000  Uiso   1.00
C146   C     0.64037   0.19884   0.50770   0.00000  Uiso   1.00
C147   C     0.76360   0.14157   0.49711   0.00000  Uiso   1.00
C148   C     0.48222   0.26595   0.58696   0.00000  Uiso   1.00
C149   C     0.38471   0.23957   0.58238   0.00000  Uiso   1.00
C150   C     0.40645   0.21285   0.62423   0.00000  Uiso   1.00
C151   C     0.39429   0.16372   0.68109   0.00000  Uiso   1.00
C152   C     0.69075   0.29704   0.62842   0.00000  Uiso   1.00
C153   C     0.64509   0.36547   0.60867   0.00000  Uiso   1.00
C154   C     0.70711   0.42274   0.63113   0.00000  Uiso   1.00
C155   C     0.64983   0.48039   0.60717   0.00000  Uiso   1.00
C156   C     0.68456   0.26040   0.58831   0.00000  Uiso   1.00
C157   C     0.77976   0.22932   0.59365   0.00000  Uiso   1.00
C158   C     0.75572   0.19853   0.55257   0.00000  Uiso   1.00
C159   C     0.59736   0.26564   0.63175   0.00000  Uiso   1.00
C160   C     0.61925   0.23895   0.67362   0.00000  Uiso   1.00
C161   C     0.52179   0.21254   0.66910   0.00000  Uiso   1.00
H162   H     0.38913   0.29785   0.51108   0.00000  Uiso   1.00
H163   H     0.38347   0.42358   0.50522   0.00000  Uiso   1.00
H164   H     0.45611   0.23019   0.46776   0.00000  Uiso   1.00
H165   H     0.29562   0.23982   0.54771   0.00000  Uiso   1.00
H166   H     0.42799   0.56284   0.51848   0.00000  Uiso   1.00
H167   H     0.58114   0.15506   0.43949   0.00000  Uiso   1.00
H168   H     0.24273   0.17535   0.60808   0.00000  Uiso   1.00
H169   H     0.78040   0.29680   0.66329   0.00000  Uiso   1.00
H170   H     0.79621   0.42248   0.66579   0.00000  Uiso   1.00
H171   H     0.86885   0.22909   0.62832   0.00000  Uiso   1.00
H172   H     0.70836   0.23872   0.70827   0.00000  Uiso   1.00
H173   H     0.76299   0.56195   0.64879   0.00000  Uiso   1.00
H174   H     0.91614   0.15416   0.56981   0.00000  Uiso   1.00
H175   H     0.57772   0.17446   0.73840   0.00000  Uiso   1.00
O176   O     0.59885   0.64509   0.58252   0.00000  Uiso   1.00
O177   O     0.79977   0.11008   0.47890   0.00000  Uiso   1.00
O178   O     0.35577   0.13671   0.70009   0.00000  Uiso   1.00
N179   N     0.50465   0.54538   0.54881   0.00000  Uiso   1.00
N180   N     0.64784   0.16414   0.47496   0.00000  Uiso   1.00
N181   N     0.33146   0.18310   0.63257   0.00000  Uiso   1.00
N182   N     0.68491   0.54490   0.61893   0.00000  Uiso   1.00
N183   N     0.82810   0.16366   0.54508   0.00000  Uiso   1.00
N184   N     0.51172   0.18262   0.70270   0.00000  Uiso   1.00
C185   C     0.97877   0.20239   0.04595   0.00000  Uiso   1.00
C186   C     0.02994   0.13422   0.06388   0.00000  Uiso   1.00
C187   C     0.97257   0.07664   0.03989   0.00000  Uiso   1.00
C188   C     0.03449   0.01930   0.06230   0.00000  Uiso   1.00
C189   C     0.09646   0.91341   0.08331   0.00000  Uiso   1.00
C190   C     0.06942   0.23929   0.04352   0.00000  Uiso   1.00
C191   C     0.04522   0.27005   0.00242   0.00000  Uiso   1.00
C192   C     0.14037   0.30116   0.00770   0.00000  Uiso   1.00
C193   C     0.26360   0.35843   0.99711   0.00000  Uiso   1.00
C194   C     0.98222   0.23405   0.08696   0.00000  Uiso   1.00
C195   C     0.88471   0.26043   0.08238   0.00000  Uiso   1.00
C196   C     0.90645   0.28715   0.12423   0.00000  Uiso   1.00
C197   C     0.89429   0.33628   0.18109   0.00000  Uiso   1.00
C198   C     0.19075   0.20296   0.12842   0.00000  Uiso   1.00
C199   C     0.14509   0.13453   0.10867   0.00000  Uiso   1.00
C200   C     0.20711   0.07726   0.13113   0.00000  Uiso   1.00
C201   C     0.14983   0.01961   0.10717   0.00000  Uiso   1.00
C202   C     0.18456   0.23960   0.08831   0.00000  Uiso   1.00
C203   C     0.27976   0.27068   0.09365   0.00000  Uiso   1.00
C204   C     0.25572   0.30147   0.05257   0.00000  Uiso   1.00
C205   C     0.09736   0.23436   0.13175   0.00000  Uiso   1.00
C206   C     0.11925   0.26105   0.17362   0.00000  Uiso   1.00
C207   C     0.02179   0.28746   0.16910   0.00000  Uiso   1.00
H208   H     0.88913   0.20215   0.01108   0.00000  Uiso   1.00
H209   H     0.88347   0.07642   0.00522   0.00000  Uiso   1.00
H210   H     0.95611   0.26981   0.96776   0.00000  Uiso   1.00
H211   H     0.79562   0.26018   0.04771   0.00000  Uiso   1.00
H212   H     0.92799   0.93716   0.01848   0.00000  Uiso   1.00
H213   H     0.08114   0.34494   0.93949   0.00000  Uiso   1.00
H214   H     0.74273   0.32465   0.10808   0.00000  Uiso   1.00
H215   H     0.28040   0.20320   0.16329   0.00000  Uiso   1.00
H216   H     0.29621   0.07752   0.16579   0.00000  Uiso   1.00
H217   H     0.36885   0.27091   0.12832   0.00000  Uiso   1.00
H218   H     0.20836   0.26128   0.20827   0.00000  Uiso   1.00
H219   H     0.26299   0.93805   0.14879   0.00000  Uiso   1.00
H220   H     0.41614   0.34584   0.06981   0.00000  Uiso   1.00
H221   H     0.07772   0.32554   0.23840   0.00000  Uiso   1.00
O222   O     0.09885   0.85491   0.08252   0.00000  Uiso   1.00
O223   O     0.29977   0.38992   0.97890   0.00000  Uiso   1.00
O224   O     0.85577   0.36329   0.20009   0.00000  Uiso   1.00
N225   N     0.00465   0.95462   0.04881   0.00000  Uiso   1.00
N226   N     0.14784   0.33586   0.97496   0.00000  Uiso   1.00
N227   N     0.83146   0.31690   0.13257   0.00000  Uiso   1.00
N228   N     0.18491   0.95510   0.11893   0.00000  Uiso   1.00
N229   N     0.32810   0.33634   0.04508   0.00000  Uiso   1.00
N230   N     0.01172   0.31738   0.20270   0.00000  Uiso   1.00
C231   C     0.47877   0.70239   0.04595   0.00000  Uiso   1.00
C232   C     0.52994   0.63422   0.06388   0.00000  Uiso   1.00
C233   C     0.47257   0.57664   0.03989   0.00000  Uiso   1.00
C234   C     0.53449   0.51930   0.06230   0.00000  Uiso   1.00
C235   C     0.59646   0.41341   0.08331   0.00000  Uiso   1.00
C236   C     0.56942   0.73929   0.04352   0.00000  Uiso   1.00
C237   C     0.54522   0.77005   0.00242   0.00000  Uiso   1.00
C238   C     0.64037   0.80116   0.00770   0.00000  Uiso   1.00
C239   C     0.76360   0.85843   0.99711   0.00000  Uiso   1.00
C240   C     0.48222   0.73405   0.08696   0.00000  Uiso   1.00
C241   C     0.38471   0.76043   0.08238   0.00000  Uiso   1.00
C242   C     0.40645   0.78715   0.12423   0.00000  Uiso   1.00
C243   C     0.39429   0.83628   0.18109   0.00000  Uiso   1.00
C244   C     0.69075   0.70296   0.12842   0.00000  Uiso   1.00
C245   C     0.64509   0.63453   0.10867   0.00000  Uiso   1.00
C246   C     0.70711   0.57726   0.13113   0.00000  Uiso   1.00
C247   C     0.64983   0.51961   0.10717   0.00000  Uiso   1.00
C248   C     0.68456   0.73960   0.08831   0.00000  Uiso   1.00
C249   C     0.77976   0.77068   0.09365   0.00000  Uiso   1.00
C250   C     0.75572   0.80147   0.05257   0.00000  Uiso   1.00
C251   C     0.59736   0.73436   0.13175   0.00000  Uiso   1.00
C252   C     0.61925   0.76105   0.17362   0.00000  Uiso   1.00
C253   C     0.52179   0.78746   0.16910   0.00000  Uiso   1.00
H254   H     0.38913   0.70215   0.01108   0.00000  Uiso   1.00
H255   H     0.38347   0.57642   0.00522   0.00000  Uiso   1.00
H256   H     0.45611   0.76981   0.96776   0.00000  Uiso   1.00
H257   H     0.29562   0.76018   0.04771   0.00000  Uiso   1.00
H258   H     0.42799   0.43716   0.01848   0.00000  Uiso   1.00
H259   H     0.58114   0.84494   0.93949   0.00000  Uiso   1.00
H260   H     0.24273   0.82465   0.10808   0.00000  Uiso   1.00
H261   H     0.78040   0.70320   0.16329   0.00000  Uiso   1.00
H262   H     0.79621   0.57752   0.16579   0.00000  Uiso   1.00
H263   H     0.86885   0.77091   0.12832   0.00000  Uiso   1.00
H264   H     0.70836   0.76128   0.20827   0.00000  Uiso   1.00
H265   H     0.76299   0.43805   0.14879   0.00000  Uiso   1.00
H266   H     0.91614   0.84584   0.06981   0.00000  Uiso   1.00
H267   H     0.57772   0.82554   0.23840   0.00000  Uiso   1.00
O268   O     0.59885   0.35491   0.08252   0.00000  Uiso   1.00
O269   O     0.79977   0.88992   0.97890   0.00000  Uiso   1.00
O270   O     0.35577   0.86329   0.20009   0.00000  Uiso   1.00
N271   N     0.50465   0.45462   0.04881   0.00000  Uiso   1.00
N272   N     0.64784   0.83586   0.97496   0.00000  Uiso   1.00
N273   N     0.33146   0.81690   0.13257   0.00000  Uiso   1.00
N274   N     0.68491   0.45510   0.11893   0.00000  Uiso   1.00
N275   N     0.82810   0.83634   0.04508   0.00000  Uiso   1.00
N276   N     0.51172   0.81738   0.20270   0.00000  Uiso   1.00
C277   C     0.02123   0.20239   0.45405   0.00000  Uiso   1.00
C278   C     0.97006   0.13422   0.43612   0.00000  Uiso   1.00
C279   C     0.02743   0.07664   0.46011   0.00000  Uiso   1.00
C280   C     0.96551   0.01930   0.43770   0.00000  Uiso   1.00
C281   C     0.90354   0.91341   0.41669   0.00000  Uiso   1.00
C282   C     0.93058   0.23929   0.45648   0.00000  Uiso   1.00
C283   C     0.95478   0.27005   0.49758   0.00000  Uiso   1.00
C284   C     0.85963   0.30116   0.49230   0.00000  Uiso   1.00
C285   C     0.73640   0.35843   0.50289   0.00000  Uiso   1.00
C286   C     0.01778   0.23405   0.41304   0.00000  Uiso   1.00
C287   C     0.11529   0.26043   0.41762   0.00000  Uiso   1.00
C288   C     0.09355   0.28715   0.37577   0.00000  Uiso   1.00
C289   C     0.10571   0.33628   0.31891   0.00000  Uiso   1.00
C290   C     0.80925   0.20296   0.37158   0.00000  Uiso   1.00
C291   C     0.85491   0.13453   0.39133   0.00000  Uiso   1.00
C292   C     0.79289   0.07726   0.36887   0.00000  Uiso   1.00
C293   C     0.85017   0.01961   0.39283   0.00000  Uiso   1.00
C294   C     0.81544   0.23960   0.41169   0.00000  Uiso   1.00
C295   C     0.72024   0.27068   0.40635   0.00000  Uiso   1.00
C296   C     0.74428   0.30147   0.44743   0.00000  Uiso   1.00
C297   C     0.90264   0.23436   0.36825   0.00000  Uiso   1.00
C298   C     0.88075   0.26105   0.32638   0.00000  Uiso   1.00
C299   C     0.97821   0.28746   0.33090   0.00000  Uiso   1.00
H300   H     0.11087   0.20215   0.48892   0.00000  Uiso   1.00
H301   H     0.11653   0.07642   0.49478   0.00000  Uiso   1.00
H302   H     0.04389   0.26981   0.53224   0.00000  Uiso   1.00
H303   H     0.20438   0.26018   0.45229   0.00000  Uiso   1.00
H304   H     0.07201   0.93716   0.48152   0.00000  Uiso   1.00
H305   H     0.91886   0.34494   0.56051   0.00000  Uiso   1.00
H306   H     0.25727   0.32465   0.39192   0.00000  Uiso   1.00
H307   H     0.71960   0.20320   0.33671   0.00000  Uiso   1.00
H308   H     0.70379   0.07752   0.33421   0.00000  Uiso   1.00
H309   H     0.63115   0.27091   0.37168   0.00000  Uiso   1.00
H310   H     0.79164   0.26128   0.29173   0.00000  Uiso   1.00
H311   H     0.73701   0.93805   0.35121   0.00000  Uiso   1.00
H312   H     0.58386   0.34584   0.43019   0.00000  Uiso   1.00
H313   H     0.92228   0.32554   0.26160   0.00000  Uiso   1.00
O314   O     0.90115   0.85491   0.41748   0.00000  Uiso   1.00
O315   O     0.70023   0.38992   0.52110   0.00000  Uiso   1.00
O316   O     0.14423   0.36329   0.29991   0.00000  Uiso   1.00
N317   N     0.99535   0.95462   0.45119   0.00000  Uiso   1.00
N318   N     0.85216   0.33586   0.52504   0.00000  Uiso   1.00
N319   N     0.16854   0.31690   0.36743   0.00000  Uiso   1.00
N320   N     0.81509   0.95510   0.38107   0.00000  Uiso   1.00
N321   N     0.67190   0.33634   0.45492   0.00000  Uiso   1.00
N322   N     0.98828   0.31738   0.29730   0.00000  Uiso   1.00
C323   C     0.52123   0.70239   0.45405   0.00000  Uiso   1.00
C324   C     0.47006   0.63422   0.43612   0.00000  Uiso   1.00
C325   C     0.52743   0.57664   0.46011   0.00000  Uiso   1.00
C326   C     0.46551   0.51930   0.43770   0.00000  Uiso   1.00
C327   C     0.40354   0.41341   0.41669   0.00000  Uiso   1.00
C328   C     0.43058   0.73929   0.45648   0.00000  Uiso   1.00
C329   C     0.45478   0.77005   0.49758   0.00000  Uiso   1.00
C330   C     0.35963   0.80116   0.49230   0.00000  Uiso   1.00
C331   C     0.23640   0.85843   0.50289   0.00000  Uiso   1.00
C332   C     0.51778   0.73405   0.41304   0.00000  Uiso   1.00
C333   C     0.61529   0.76043   0.41762   0.00000  Uiso   1.00
C334   C     0.59355   0.78715   0.37577   0.00000  Uiso   1.00
C335   C     0.60571   0.83628   0.31891   0.00000  Uiso   1.00
C336   C     0.30925   0.70296   0.37158   0.00000  Uiso   1.00
C337   C     0.35491   0.63453   0.39133   0.00000  Uiso   1.00
C338   C     0.29289   0.57726   0.36887   0.00000  Uiso   1.00
C339   C     0.35017   0.51961   0.39283   0.00000  Uiso   1.00
C340   C     0.31544   0.73960   0.41169   0.00000  Uiso   1.00
C341   C     0.22024   0.77068   0.40635   0.00000  Uiso   1.00
C342   C     0.24428   0.80147   0.44743   0.00000  Uiso   1.00
C343   C     0.40264   0.73436   0.36825   0.00000  Uiso   1.00
C344   C     0.38075   0.76105   0.32638   0.00000  Uiso   1.00
C345   C     0.47821   0.78746   0.33090   0.00000  Uiso   1.00
H346   H     0.61087   0.70215   0.48892   0.00000  Uiso   1.00
H347   H     0.61653   0.57642   0.49478   0.00000  Uiso   1.00
H348   H     0.54389   0.76981   0.53224   0.00000  Uiso   1.00
H349   H     0.70438   0.76018   0.45229   0.00000  Uiso   1.00
H350   H     0.57201   0.43716   0.48152   0.00000  Uiso   1.00
H351   H     0.41886   0.84494   0.56051   0.00000  Uiso   1.00
H352   H     0.75727   0.82465   0.39192   0.00000  Uiso   1.00
H353   H     0.21960   0.70320   0.33671   0.00000  Uiso   1.00
H354   H     0.20379   0.57752   0.33421   0.00000  Uiso   1.00
H355   H     0.13115   0.77091   0.37168   0.00000  Uiso   1.00
H356   H     0.29164   0.76128   0.29173   0.00000  Uiso   1.00
H357   H     0.23701   0.43805   0.35121   0.00000  Uiso   1.00
H358   H     0.08386   0.84584   0.43019   0.00000  Uiso   1.00
H359   H     0.42228   0.82554   0.26160   0.00000  Uiso   1.00
O360   O     0.40115   0.35491   0.41748   0.00000  Uiso   1.00
O361   O     0.20023   0.88992   0.52110   0.00000  Uiso   1.00
O362   O     0.64423   0.86329   0.29991   0.00000  Uiso   1.00
N363   N     0.49535   0.45462   0.45119   0.00000  Uiso   1.00
N364   N     0.35216   0.83586   0.52504   0.00000  Uiso   1.00
N365   N     0.66854   0.81690   0.36743   0.00000  Uiso   1.00
N366   N     0.31509   0.45510   0.38107   0.00000  Uiso   1.00
N367   N     0.17190   0.83634   0.45492   0.00000  Uiso   1.00
N368   N     0.48828   0.81738   0.29730   0.00000  Uiso   1.00
