data_job_01326
_audit_creation_date              2018-12-19
_audit_creation_method            'Materials Studio'
_symmetry_space_group_name_H-M    'P1'
_symmetry_Int_Tables_number       1
_symmetry_cell_setting            triclinic
loop_
_symmetry_equiv_pos_as_xyz
  x,y,z
_cell_length_a                    9.2944
_cell_length_b                    11.5875
_cell_length_c                    22.7203
_cell_angle_alpha                 90.0000
_cell_angle_beta                  111.0384
_cell_angle_gamma                 90.0000
loop_
_atom_site_label
_atom_site_type_symbol
_atom_site_fract_x
_atom_site_fract_y
_atom_site_fract_z
_atom_site_U_iso_or_equiv
_atom_site_adp_type
_atom_site_occupancy
C1     C     0.36160   0.14929   0.58683   0.00000  Uiso   1.00
C2     C     0.21713   0.20433   0.53965   0.00000  Uiso   1.00
C3     C     0.14556   0.17187   0.47708   0.00000  Uiso   1.00
C4     C     0.01459   0.23297   0.44165   0.00000  Uiso   1.00
C5     C     0.79900   0.30473   0.36438   0.00000  Uiso   1.00
C6     C     0.47754   0.24703   0.61162   0.00000  Uiso   1.00
C7     C     0.62493   0.25047   0.60957   0.00000  Uiso   1.00
C8     C     0.71318   0.34753   0.63474   0.00000  Uiso   1.00
C9     C     0.90193   0.48555   0.66926   0.00000  Uiso   1.00
C10    C     0.31797   0.11045   0.64234   0.00000  Uiso   1.00
C11    C     0.33123   0.99904   0.66614   0.00000  Uiso   1.00
C12    C     0.28516   0.98111   0.71718   0.00000  Uiso   1.00
C13    C     0.22615   0.90705   0.79940   0.00000  Uiso   1.00
C14    C     0.25627   0.31553   0.63517   0.00000  Uiso   1.00
C15    C     0.15992   0.29463   0.56590   0.00000  Uiso   1.00
C16    C     0.02902   0.35579   0.53056   0.00000  Uiso   1.00
C17    C     0.95727   0.32343   0.46795   0.00000  Uiso   1.00
C18    C     0.42033   0.33733   0.63788   0.00000  Uiso   1.00
C19    C     0.50839   0.43440   0.66306   0.00000  Uiso   1.00
C20    C     0.65587   0.43799   0.66104   0.00000  Uiso   1.00
C21    C     0.26075   0.20074   0.66860   0.00000  Uiso   1.00
C22    C     0.21467   0.18297   0.71962   0.00000  Uiso   1.00
C23    C     0.22785   0.07157   0.74348   0.00000  Uiso   1.00
H24    H     0.40615   0.07900   0.56639   0.00000  Uiso   1.00
H25    H     0.18988   0.10199   0.45677   0.00000  Uiso   1.00
H26    H     0.66918   0.18058   0.58925   0.00000  Uiso   1.00
H27    H     0.37551   0.92919   0.64581   0.00000  Uiso   1.00
H28    H     0.92490   0.16733   0.34682   0.00000  Uiso   1.00
H29    H     0.93554   0.33302   0.62618   0.00000  Uiso   1.00
H30    H     0.31629   0.80292   0.74544   0.00000  Uiso   1.00
H31    H     0.21173   0.38584   0.65561   0.00000  Uiso   1.00
H32    H     0.98477   0.42567   0.55089   0.00000  Uiso   1.00
H33    H     0.46408   0.50426   0.68337   0.00000  Uiso   1.00
H34    H     0.17041   0.25287   0.73993   0.00000  Uiso   1.00
H35    H     0.75843   0.43004   0.42321   0.00000  Uiso   1.00
H36    H     0.76909   0.59573   0.70258   0.00000  Uiso   1.00
H37    H     0.14982   0.06563   0.82183   0.00000  Uiso   1.00
O38    O     0.69591   0.31938   0.31451   0.00000  Uiso   1.00
O39    O     0.02184   0.53674   0.68104   0.00000  Uiso   1.00
O40    O     0.20939   0.84126   0.83749   0.00000  Uiso   1.00
N41    N     0.91685   0.22368   0.37917   0.00000  Uiso   1.00
N42    N     0.86173   0.37859   0.64035   0.00000  Uiso   1.00
N43    N     0.28282   0.88300   0.75185   0.00000  Uiso   1.00
N44    N     0.82727   0.36504   0.42028   0.00000  Uiso   1.00
N45    N     0.77216   0.51996   0.68146   0.00000  Uiso   1.00
N46    N     0.19325   0.02437   0.79296   0.00000  Uiso   1.00
C47    C     0.63840   0.14929   0.91317   0.00000  Uiso   1.00
C48    C     0.78287   0.20433   0.96035   0.00000  Uiso   1.00
C49    C     0.85444   0.17187   0.02292   0.00000  Uiso   1.00
C50    C     0.98541   0.23297   0.05835   0.00000  Uiso   1.00
C51    C     0.20100   0.30473   0.13562   0.00000  Uiso   1.00
C52    C     0.52246   0.24703   0.88838   0.00000  Uiso   1.00
C53    C     0.37507   0.25047   0.89043   0.00000  Uiso   1.00
C54    C     0.28682   0.34753   0.86526   0.00000  Uiso   1.00
C55    C     0.09807   0.48555   0.83074   0.00000  Uiso   1.00
C56    C     0.68203   0.11045   0.85766   0.00000  Uiso   1.00
C57    C     0.66877   0.99904   0.83386   0.00000  Uiso   1.00
C58    C     0.71484   0.98111   0.78282   0.00000  Uiso   1.00
C59    C     0.77385   0.90705   0.70060   0.00000  Uiso   1.00
C60    C     0.74373   0.31553   0.86483   0.00000  Uiso   1.00
C61    C     0.84008   0.29463   0.93410   0.00000  Uiso   1.00
C62    C     0.97098   0.35579   0.96944   0.00000  Uiso   1.00
C63    C     0.04273   0.32343   0.03205   0.00000  Uiso   1.00
C64    C     0.57967   0.33733   0.86212   0.00000  Uiso   1.00
C65    C     0.49161   0.43440   0.83694   0.00000  Uiso   1.00
C66    C     0.34413   0.43799   0.83896   0.00000  Uiso   1.00
C67    C     0.73925   0.20074   0.83140   0.00000  Uiso   1.00
C68    C     0.78533   0.18297   0.78038   0.00000  Uiso   1.00
C69    C     0.77215   0.07157   0.75652   0.00000  Uiso   1.00
H70    H     0.59385   0.07900   0.93361   0.00000  Uiso   1.00
H71    H     0.81012   0.10199   0.04323   0.00000  Uiso   1.00
H72    H     0.33082   0.18058   0.91075   0.00000  Uiso   1.00
H73    H     0.62449   0.92919   0.85419   0.00000  Uiso   1.00
H74    H     0.07510   0.16733   0.15318   0.00000  Uiso   1.00
H75    H     0.06446   0.33302   0.87382   0.00000  Uiso   1.00
H76    H     0.68371   0.80292   0.75456   0.00000  Uiso   1.00
H77    H     0.78827   0.38584   0.84439   0.00000  Uiso   1.00
H78    H     0.01523   0.42567   0.94911   0.00000  Uiso   1.00
H79    H     0.53592   0.50426   0.81663   0.00000  Uiso   1.00
H80    H     0.82959   0.25287   0.76007   0.00000  Uiso   1.00
H81    H     0.24157   0.43004   0.07679   0.00000  Uiso   1.00
H82    H     0.23091   0.59573   0.79742   0.00000  Uiso   1.00
H83    H     0.85018   0.06563   0.67817   0.00000  Uiso   1.00
O84    O     0.30409   0.31938   0.18549   0.00000  Uiso   1.00
O85    O     0.97816   0.53674   0.81896   0.00000  Uiso   1.00
O86    O     0.79061   0.84126   0.66251   0.00000  Uiso   1.00
N87    N     0.08315   0.22368   0.12083   0.00000  Uiso   1.00
N88    N     0.13827   0.37859   0.85965   0.00000  Uiso   1.00
N89    N     0.71718   0.88300   0.74815   0.00000  Uiso   1.00
N90    N     0.17273   0.36504   0.07972   0.00000  Uiso   1.00
N91    N     0.22784   0.51996   0.81854   0.00000  Uiso   1.00
N92    N     0.80675   0.02437   0.70704   0.00000  Uiso   1.00
C93    C     0.63840   0.85071   0.41317   0.00000  Uiso   1.00
C94    C     0.78287   0.79567   0.46035   0.00000  Uiso   1.00
C95    C     0.85444   0.82813   0.52292   0.00000  Uiso   1.00
C96    C     0.98541   0.76703   0.55835   0.00000  Uiso   1.00
C97    C     0.20100   0.69527   0.63562   0.00000  Uiso   1.00
C98    C     0.52246   0.75297   0.38838   0.00000  Uiso   1.00
C99    C     0.37507   0.74953   0.39043   0.00000  Uiso   1.00
C100   C     0.28682   0.65247   0.36526   0.00000  Uiso   1.00
C101   C     0.09807   0.51445   0.33074   0.00000  Uiso   1.00
C102   C     0.68203   0.88955   0.35766   0.00000  Uiso   1.00
C103   C     0.66877   0.00096   0.33386   0.00000  Uiso   1.00
C104   C     0.71484   0.01889   0.28282   0.00000  Uiso   1.00
C105   C     0.77385   0.09295   0.20060   0.00000  Uiso   1.00
C106   C     0.74373   0.68447   0.36483   0.00000  Uiso   1.00
C107   C     0.84008   0.70537   0.43410   0.00000  Uiso   1.00
C108   C     0.97098   0.64421   0.46944   0.00000  Uiso   1.00
C109   C     0.04273   0.67657   0.53205   0.00000  Uiso   1.00
C110   C     0.57967   0.66267   0.36212   0.00000  Uiso   1.00
C111   C     0.49161   0.56560   0.33694   0.00000  Uiso   1.00
C112   C     0.34413   0.56201   0.33896   0.00000  Uiso   1.00
C113   C     0.73925   0.79926   0.33140   0.00000  Uiso   1.00
C114   C     0.78533   0.81703   0.28038   0.00000  Uiso   1.00
C115   C     0.77215   0.92843   0.25652   0.00000  Uiso   1.00
H116   H     0.59385   0.92100   0.43361   0.00000  Uiso   1.00
H117   H     0.81012   0.89801   0.54323   0.00000  Uiso   1.00
H118   H     0.33082   0.81942   0.41075   0.00000  Uiso   1.00
H119   H     0.62449   0.07081   0.35419   0.00000  Uiso   1.00
H120   H     0.07510   0.83267   0.65318   0.00000  Uiso   1.00
H121   H     0.06446   0.66698   0.37382   0.00000  Uiso   1.00
H122   H     0.68371   0.19708   0.25456   0.00000  Uiso   1.00
H123   H     0.78827   0.61416   0.34439   0.00000  Uiso   1.00
H124   H     0.01523   0.57433   0.44911   0.00000  Uiso   1.00
H125   H     0.53592   0.49574   0.31663   0.00000  Uiso   1.00
H126   H     0.82959   0.74713   0.26007   0.00000  Uiso   1.00
H127   H     0.24157   0.56996   0.57679   0.00000  Uiso   1.00
H128   H     0.23091   0.40427   0.29742   0.00000  Uiso   1.00
H129   H     0.85018   0.93437   0.17817   0.00000  Uiso   1.00
O130   O     0.30409   0.68062   0.68549   0.00000  Uiso   1.00
O131   O     0.97816   0.46326   0.31896   0.00000  Uiso   1.00
O132   O     0.79061   0.15874   0.16251   0.00000  Uiso   1.00
N133   N     0.08315   0.77632   0.62083   0.00000  Uiso   1.00
N134   N     0.13827   0.62141   0.35965   0.00000  Uiso   1.00
N135   N     0.71718   0.11700   0.24815   0.00000  Uiso   1.00
N136   N     0.17273   0.63496   0.57972   0.00000  Uiso   1.00
N137   N     0.22784   0.48004   0.31854   0.00000  Uiso   1.00
N138   N     0.80675   0.97563   0.20704   0.00000  Uiso   1.00
C139   C     0.36160   0.85071   0.08683   0.00000  Uiso   1.00
C140   C     0.21713   0.79567   0.03965   0.00000  Uiso   1.00
C141   C     0.14556   0.82813   0.97708   0.00000  Uiso   1.00
C142   C     0.01459   0.76703   0.94165   0.00000  Uiso   1.00
C143   C     0.79900   0.69527   0.86438   0.00000  Uiso   1.00
C144   C     0.47754   0.75297   0.11162   0.00000  Uiso   1.00
C145   C     0.62493   0.74953   0.10957   0.00000  Uiso   1.00
C146   C     0.71318   0.65247   0.13474   0.00000  Uiso   1.00
C147   C     0.90193   0.51445   0.16926   0.00000  Uiso   1.00
C148   C     0.31797   0.88955   0.14234   0.00000  Uiso   1.00
C149   C     0.33123   0.00096   0.16614   0.00000  Uiso   1.00
C150   C     0.28516   0.01889   0.21718   0.00000  Uiso   1.00
C151   C     0.22615   0.09295   0.29940   0.00000  Uiso   1.00
C152   C     0.25627   0.68447   0.13517   0.00000  Uiso   1.00
C153   C     0.15992   0.70537   0.06590   0.00000  Uiso   1.00
C154   C     0.02902   0.64421   0.03056   0.00000  Uiso   1.00
C155   C     0.95727   0.67657   0.96795   0.00000  Uiso   1.00
C156   C     0.42033   0.66267   0.13788   0.00000  Uiso   1.00
C157   C     0.50839   0.56560   0.16306   0.00000  Uiso   1.00
C158   C     0.65587   0.56201   0.16104   0.00000  Uiso   1.00
C159   C     0.26075   0.79926   0.16860   0.00000  Uiso   1.00
C160   C     0.21467   0.81703   0.21962   0.00000  Uiso   1.00
C161   C     0.22785   0.92843   0.24348   0.00000  Uiso   1.00
H162   H     0.40615   0.92100   0.06639   0.00000  Uiso   1.00
H163   H     0.18988   0.89801   0.95677   0.00000  Uiso   1.00
H164   H     0.66918   0.81942   0.08925   0.00000  Uiso   1.00
H165   H     0.37551   0.07081   0.14581   0.00000  Uiso   1.00
H166   H     0.92490   0.83267   0.84682   0.00000  Uiso   1.00
H167   H     0.93554   0.66698   0.12618   0.00000  Uiso   1.00
H168   H     0.31629   0.19708   0.24544   0.00000  Uiso   1.00
H169   H     0.21173   0.61416   0.15561   0.00000  Uiso   1.00
H170   H     0.98477   0.57433   0.05089   0.00000  Uiso   1.00
H171   H     0.46408   0.49574   0.18337   0.00000  Uiso   1.00
H172   H     0.17041   0.74713   0.23993   0.00000  Uiso   1.00
H173   H     0.75843   0.56996   0.92321   0.00000  Uiso   1.00
H174   H     0.76909   0.40427   0.20258   0.00000  Uiso   1.00
H175   H     0.14982   0.93437   0.32183   0.00000  Uiso   1.00
O176   O     0.69591   0.68062   0.81451   0.00000  Uiso   1.00
O177   O     0.02184   0.46326   0.18104   0.00000  Uiso   1.00
O178   O     0.20939   0.15874   0.33749   0.00000  Uiso   1.00
N179   N     0.91685   0.77632   0.87917   0.00000  Uiso   1.00
N180   N     0.86173   0.62141   0.14035   0.00000  Uiso   1.00
N181   N     0.28282   0.11700   0.25185   0.00000  Uiso   1.00
N182   N     0.82727   0.63496   0.92028   0.00000  Uiso   1.00
N183   N     0.77216   0.48004   0.18146   0.00000  Uiso   1.00
N184   N     0.19325   0.97563   0.29296   0.00000  Uiso   1.00
