data_job_06861
_audit_creation_date              2018-12-19
_audit_creation_method            'Materials Studio'
_symmetry_space_group_name_H-M    'P1'
_symmetry_Int_Tables_number       1
_symmetry_cell_setting            triclinic
loop_
_symmetry_equiv_pos_as_xyz
  x,y,z
_cell_length_a                    23.6734
_cell_length_b                    24.9538
_cell_length_c                    17.5841
_cell_angle_alpha                 78.2726
_cell_angle_beta                  80.9014
_cell_angle_gamma                 63.3734
loop_
_atom_site_label
_atom_site_type_symbol
_atom_site_fract_x
_atom_site_fract_y
_atom_site_fract_z
_atom_site_U_iso_or_equiv
_atom_site_adp_type
_atom_site_occupancy
C1     C     0.23965   0.55776   0.08114   0.00000  Uiso   1.00
C2     C     0.19202   0.54797   0.14495   0.00000  Uiso   1.00
C3     C     0.15512   0.51862   0.14039   0.00000  Uiso   1.00
C4     C     0.11442   0.51434   0.20502   0.00000  Uiso   1.00
C5     C     0.04100   0.49548   0.29394   0.00000  Uiso   1.00
C6     C     0.21961   0.62597   0.06479   0.00000  Uiso   1.00
C7     C     0.20591   0.66221   0.99282   0.00000  Uiso   1.00
C8     C     0.18844   0.72359   0.98997   0.00000  Uiso   1.00
C9     C     0.15789   0.82583   0.95442   0.00000  Uiso   1.00
C10    C     0.30276   0.52991   0.11790   0.00000  Uiso   1.00
C11    C     0.35898   0.48538   0.09057   0.00000  Uiso   1.00
C12    C     0.41153   0.46590   0.13243   0.00000  Uiso   1.00
C13    C     0.51009   0.41898   0.17934   0.00000  Uiso   1.00
C14    C     0.23301   0.60236   0.20405   0.00000  Uiso   1.00
C15    C     0.18842   0.57219   0.21171   0.00000  Uiso   1.00
C16    C     0.14778   0.56796   0.27637   0.00000  Uiso   1.00
C17    C     0.11082   0.53860   0.27190   0.00000  Uiso   1.00
C18    C     0.21601   0.65020   0.13155   0.00000  Uiso   1.00
C19    C     0.19857   0.71154   0.12880   0.00000  Uiso   1.00
C20    C     0.18483   0.74786   0.05685   0.00000  Uiso   1.00
C21    C     0.29916   0.55413   0.18466   0.00000  Uiso   1.00
C22    C     0.35164   0.53472   0.22656   0.00000  Uiso   1.00
C23    C     0.40792   0.49017   0.19931   0.00000  Uiso   1.00
H24    H     0.24245   0.53891   0.02916   0.00000  Uiso   1.00
H25    H     0.15791   0.49988   0.08871   0.00000  Uiso   1.00
H26    H     0.20870   0.64345   0.94116   0.00000  Uiso   1.00
H27    H     0.36175   0.46665   0.03891   0.00000  Uiso   1.00
H28    H     0.06258   0.46732   0.18416   0.00000  Uiso   1.00
H29    H     0.16969   0.77003   0.87305   0.00000  Uiso   1.00
H30    H     0.49243   0.39722   0.07915   0.00000  Uiso   1.00
H31    H     0.23021   0.62122   0.25602   0.00000  Uiso   1.00
H32    H     0.14500   0.58670   0.32803   0.00000  Uiso   1.00
H33    H     0.19579   0.73027   0.18048   0.00000  Uiso   1.00
H34    H     0.34883   0.55347   0.27822   0.00000  Uiso   1.00
H35    H     0.05210   0.53779   0.37840   0.00000  Uiso   1.00
H36    H     0.15921   0.84050   0.06728   0.00000  Uiso   1.00
H37    H     0.48194   0.46769   0.27339   0.00000  Uiso   1.00
O38    O     0.00149   0.47839   0.32454   0.00000  Uiso   1.00
O39    O     0.14203   0.87552   0.91637   0.00000  Uiso   1.00
O40    O     0.56544   0.38640   0.18678   0.00000  Uiso   1.00
N41    N     0.07182   0.48863   0.22000   0.00000  Uiso   1.00
N42    N     0.17195   0.77165   0.92913   0.00000  Uiso   1.00
N43    N     0.47368   0.42311   0.12181   0.00000  Uiso   1.00
N44    N     0.06618   0.52655   0.32452   0.00000  Uiso   1.00
N45    N     0.16631   0.80957   0.03364   0.00000  Uiso   1.00
N46    N     0.46804   0.46103   0.22632   0.00000  Uiso   1.00
C47    C     0.03592   0.24502   0.63285   0.00000  Uiso   1.00
C48    C     0.09235   0.18438   0.62303   0.00000  Uiso   1.00
C49    C     0.09654   0.14431   0.57570   0.00000  Uiso   1.00
C50    C     0.15214   0.09120   0.57477   0.00000  Uiso   1.00
C51    C     0.23220   0.99893   0.55274   0.00000  Uiso   1.00
C52    C     0.01613   0.24229   0.71988   0.00000  Uiso   1.00
C53    C     0.95624   0.25093   0.75396   0.00000  Uiso   1.00
C54    C     0.94768   0.24658   0.83456   0.00000  Uiso   1.00
C55    C     0.90940   0.24427   0.96287   0.00000  Uiso   1.00
C56    C     0.06186   0.29259   0.61221   0.00000  Uiso   1.00
C57    C     0.04040   0.34352   0.55577   0.00000  Uiso   1.00
C58    C     0.07034   0.38152   0.54573   0.00000  Uiso   1.00
C59    C     0.10306   0.45730   0.50687   0.00000  Uiso   1.00
C60    C     0.12723   0.22196   0.71538   0.00000  Uiso   1.00
C61    C     0.14194   0.17186   0.66787   0.00000  Uiso   1.00
C62    C     0.19756   0.11880   0.66701   0.00000  Uiso   1.00
C63    C     0.20183   0.07866   0.61968   0.00000  Uiso   1.00
C64    C     0.06573   0.22977   0.76471   0.00000  Uiso   1.00
C65    C     0.05726   0.22542   0.84527   0.00000  Uiso   1.00
C66    C     0.99737   0.23404   0.87947   0.00000  Uiso   1.00
C67    C     0.11146   0.28006   0.65703   0.00000  Uiso   1.00
C68    C     0.14143   0.31800   0.64708   0.00000  Uiso   1.00
C69    C     0.12002   0.36898   0.59064   0.00000  Uiso   1.00
H70    H     0.99731   0.25477   0.59796   0.00000  Uiso   1.00
H71    H     0.05814   0.15401   0.54102   0.00000  Uiso   1.00
H72    H     0.91786   0.26062   0.71926   0.00000  Uiso   1.00
H73    H     0.00202   0.35319   0.52110   0.00000  Uiso   1.00
H74    H     0.14745   0.03677   0.49769   0.00000  Uiso   1.00
H75    H     0.85166   0.26158   0.87350   0.00000  Uiso   1.00
H76    H     0.02912   0.45679   0.45565   0.00000  Uiso   1.00
H77    H     0.16585   0.21221   0.75029   0.00000  Uiso   1.00
H78    H     0.23593   0.10912   0.70170   0.00000  Uiso   1.00
H79    H     0.09565   0.21573   0.87994   0.00000  Uiso   1.00
H80    H     0.17981   0.30830   0.68178   0.00000  Uiso   1.00
H81    H     0.29175   0.00033   0.62811   0.00000  Uiso   1.00
H82    H     0.99595   0.22515   0.00393   0.00000  Uiso   1.00
H83    H     0.17342   0.42035   0.58607   0.00000  Uiso   1.00
O84    O     0.26265   0.95149   0.52821   0.00000  Uiso   1.00
O85    O     0.87458   0.24645   0.02127   0.00000  Uiso   1.00
O86    O     0.10741   0.50255   0.47304   0.00000  Uiso   1.00
N87    N     0.17180   0.04235   0.53503   0.00000  Uiso   1.00
N88    N     0.89525   0.25253   0.88641   0.00000  Uiso   1.00
N89    N     0.06115   0.43503   0.49576   0.00000  Uiso   1.00
N90    N     0.24944   0.02274   0.60521   0.00000  Uiso   1.00
N91    N     0.97290   0.23292   0.95658   0.00000  Uiso   1.00
N92    N     0.13880   0.41543   0.56593   0.00000  Uiso   1.00
C93    C     0.68982   0.02707   0.22815   0.00000  Uiso   1.00
C94    C     0.66225   0.09514   0.19973   0.00000  Uiso   1.00
C95    C     0.62454   0.12528   0.13767   0.00000  Uiso   1.00
C96    C     0.60406   0.18766   0.12089   0.00000  Uiso   1.00
C97    C     0.55875   0.28863   0.07008   0.00000  Uiso   1.00
C98    C     0.76130   0.00548   0.22587   0.00000  Uiso   1.00
C99    C     0.80686   0.96023   0.18580   0.00000  Uiso   1.00
C100   C     0.86977   0.94714   0.19103   0.00000  Uiso   1.00
C101   C     0.97822   0.90888   0.18085   0.00000  Uiso   1.00
C102   C     0.66695   0.01978   0.31404   0.00000  Uiso   1.00
C103   C     0.63320   0.98653   0.34812   0.00000  Uiso   1.00
C104   C     0.61668   0.98546   0.42759   0.00000  Uiso   1.00
C105   C     0.57865   0.96940   0.55431   0.00000  Uiso   1.00
C106   C     0.72051   0.08426   0.30869   0.00000  Uiso   1.00
C107   C     0.67893   0.12620   0.24348   0.00000  Uiso   1.00
C108   C     0.65850   0.18856   0.22678   0.00000  Uiso   1.00
C109   C     0.62076   0.21879   0.16472   0.00000  Uiso   1.00
C110   C     0.77797   0.03654   0.26961   0.00000  Uiso   1.00
C111   C     0.84082   0.02351   0.27491   0.00000  Uiso   1.00
C112   C     0.88647   0.97826   0.23486   0.00000  Uiso   1.00
C113   C     0.68362   0.05084   0.35779   0.00000  Uiso   1.00
C114   C     0.66716   0.04982   0.43722   0.00000  Uiso   1.00
C115   C     0.63339   0.01659   0.47142   0.00000  Uiso   1.00
H116   H     0.67684   0.00288   0.19409   0.00000  Uiso   1.00
H117   H     0.61165   0.10122   0.10383   0.00000  Uiso   1.00
H118   H     0.79395   0.93619   0.15196   0.00000  Uiso   1.00
H119   H     0.62031   0.96250   0.31424   0.00000  Uiso   1.00
H120   H     0.54675   0.22395   0.02303   0.00000  Uiso   1.00
H121   H     0.93112   0.87597   0.12453   0.00000  Uiso   1.00
H122   H     0.56498   0.93143   0.46675   0.00000  Uiso   1.00
H123   H     0.73350   0.10845   0.34275   0.00000  Uiso   1.00
H124   H     0.67141   0.21259   0.26065   0.00000  Uiso   1.00
H125   H     0.85371   0.04756   0.30877   0.00000  Uiso   1.00
H126   H     0.68007   0.07386   0.47106   0.00000  Uiso   1.00
H127   H     0.59525   0.31434   0.15031   0.00000  Uiso   1.00
H128   H     0.97963   0.96635   0.25181   0.00000  Uiso   1.00
H129   H     0.61348   0.02182   0.59403   0.00000  Uiso   1.00
O130   O     0.52915   0.33574   0.02996   0.00000  Uiso   1.00
O131   O     0.03344   0.87919   0.16314   0.00000  Uiso   1.00
O132   O     0.55306   0.95197   0.61212   0.00000  Uiso   1.00
N133   N     0.56667   0.23093   0.06427   0.00000  Uiso   1.00
N134   N     0.92604   0.90560   0.15915   0.00000  Uiso   1.00
N135   N     0.58374   0.95744   0.47910   0.00000  Uiso   1.00
N136   N     0.59277   0.27957   0.13275   0.00000  Uiso   1.00
N137   N     0.95214   0.95423   0.22764   0.00000  Uiso   1.00
N138   N     0.60984   0.00608   0.54759   0.00000  Uiso   1.00
C139   C     0.98627   0.51339   0.88407   0.00000  Uiso   1.00
C140   C     0.93154   0.57609   0.86794   0.00000  Uiso   1.00
C141   C     0.88663   0.59327   0.81492   0.00000  Uiso   1.00
C142   C     0.84034   0.65271   0.80875   0.00000  Uiso   1.00
C143   C     0.75554   0.74384   0.77685   0.00000  Uiso   1.00
C144   C     0.97924   0.49231   0.97127   0.00000  Uiso   1.00
C145   C     0.97443   0.43905   0.00512   0.00000  Uiso   1.00
C146   C     0.96830   0.42796   0.08594   0.00000  Uiso   1.00
C147   C     0.95758   0.38901   0.21445   0.00000  Uiso   1.00
C148   C     0.04644   0.52318   0.87010   0.00000  Uiso   1.00
C149   C     0.09814   0.49586   0.81891   0.00000  Uiso   1.00
C150   C     0.14859   0.51075   0.81456   0.00000  Uiso   1.00
C151   C     0.24222   0.51974   0.78599   0.00000  Uiso   1.00
C152   C     0.98394   0.58839   0.96738   0.00000  Uiso   1.00
C153   C     0.93028   0.61682   0.91319   0.00000  Uiso   1.00
C154   C     0.88405   0.67624   0.90709   0.00000  Uiso   1.00
C155   C     0.83907   0.69351   0.85408   0.00000  Uiso   1.00
C156   C     0.97797   0.53304   0.01652   0.00000  Uiso   1.00
C157   C     0.97185   0.52202   0.09730   0.00000  Uiso   1.00
C158   C     0.96703   0.46877   0.13127   0.00000  Uiso   1.00
C159   C     0.04517   0.56391   0.91535   0.00000  Uiso   1.00
C160   C     0.09556   0.57884   0.91108   0.00000  Uiso   1.00
C161   C     0.14733   0.55156   0.85989   0.00000  Uiso   1.00
H162   H     0.98726   0.48168   0.84884   0.00000  Uiso   1.00
H163   H     0.88762   0.56173   0.77992   0.00000  Uiso   1.00
H164   H     0.97541   0.40754   0.97009   0.00000  Uiso   1.00
H165   H     0.09910   0.46435   0.78390   0.00000  Uiso   1.00
H166   H     0.77658   0.66844   0.72348   0.00000  Uiso   1.00
H167   H     0.96172   0.34330   0.12447   0.00000  Uiso   1.00
H168   H     0.22254   0.46309   0.73185   0.00000  Uiso   1.00
H169   H     0.98296   0.62010   0.00261   0.00000  Uiso   1.00
H170   H     0.88309   0.70776   0.94212   0.00000  Uiso   1.00
H171   H     0.97088   0.55356   0.13229   0.00000  Uiso   1.00
H172   H     0.09457   0.61037   0.94610   0.00000  Uiso   1.00
H173   H     0.77290   0.78696   0.85513   0.00000  Uiso   1.00
H174   H     0.95804   0.46181   0.25612   0.00000  Uiso   1.00
H175   H     0.21886   0.58161   0.86350   0.00000  Uiso   1.00
O176   O     0.70910   0.78286   0.74676   0.00000  Uiso   1.00
O177   O     0.95202   0.35628   0.27284   0.00000  Uiso   1.00
O178   O     0.29420   0.51344   0.75773   0.00000  Uiso   1.00
N179   N     0.78943   0.68431   0.76275   0.00000  Uiso   1.00
N180   N     0.96251   0.38033   0.13766   0.00000  Uiso   1.00
N181   N     0.20637   0.49231   0.77061   0.00000  Uiso   1.00
N182   N     0.78745   0.74808   0.83359   0.00000  Uiso   1.00
N183   N     0.96053   0.44410   0.20850   0.00000  Uiso   1.00
N184   N     0.20439   0.55608   0.84145   0.00000  Uiso   1.00
C185   C     0.79845   0.04439   0.64804   0.00000  Uiso   1.00
C186   C     0.85463   0.03253   0.58724   0.00000  Uiso   1.00
C187   C     0.86639   0.00202   0.52457   0.00000  Uiso   1.00
C188   C     0.92033   0.99589   0.47554   0.00000  Uiso   1.00
C189   C     0.00136   0.97392   0.37910   0.00000  Uiso   1.00
C190   C     0.76543   0.11288   0.64680   0.00000  Uiso   1.00
C191   C     0.70218   0.14993   0.63421   0.00000  Uiso   1.00
C192   C     0.68103   0.21144   0.63532   0.00000  Uiso   1.00
C193   C     0.62356   0.31421   0.63140   0.00000  Uiso   1.00
C194   C     0.82661   0.01749   0.72679   0.00000  Uiso   1.00
C195   C     0.81479   0.97434   0.78147   0.00000  Uiso   1.00
C196   C     0.84514   0.95556   0.84994   0.00000  Uiso   1.00
C197   C     0.88266   0.91022   0.97021   0.00000  Uiso   1.00
C198   C     0.87333   0.08777   0.67243   0.00000  Uiso   1.00
C199   C     0.89530   0.05610   0.60049   0.00000  Uiso   1.00
C200   C     0.94924   0.05001   0.55155   0.00000  Uiso   1.00
C201   C     0.96108   0.01949   0.48881   0.00000  Uiso   1.00
C202   C     0.80610   0.13645   0.66004   0.00000  Uiso   1.00
C203   C     0.78503   0.19792   0.66119   0.00000  Uiso   1.00
C204   C     0.72178   0.23505   0.64859   0.00000  Uiso   1.00
C205   C     0.86728   0.04106   0.74003   0.00000  Uiso   1.00
C206   C     0.89765   0.02234   0.80844   0.00000  Uiso   1.00
C207   C     0.88588   0.97917   0.86321   0.00000  Uiso   1.00
H208   H     0.76678   0.02605   0.63773   0.00000  Uiso   1.00
H209   H     0.83490   0.98379   0.51434   0.00000  Uiso   1.00
H210   H     0.67072   0.13168   0.62397   0.00000  Uiso   1.00
H211   H     0.78331   0.95612   0.77120   0.00000  Uiso   1.00
H212   H     0.92835   0.94735   0.38336   0.00000  Uiso   1.00
H213   H     0.58216   0.25918   0.61454   0.00000  Uiso   1.00
H214   H     0.81958   0.88898   0.92501   0.00000  Uiso   1.00
H215   H     0.90500   0.10612   0.68274   0.00000  Uiso   1.00
H216   H     0.98071   0.06825   0.56181   0.00000  Uiso   1.00
H217   H     0.81652   0.21614   0.67144   0.00000  Uiso   1.00
H218   H     0.92912   0.04058   0.81867   0.00000  Uiso   1.00
H219   H     0.04669   0.01591   0.42189   0.00000  Uiso   1.00
H220   H     0.70049   0.32773   0.65308   0.00000  Uiso   1.00
H221   H     0.93792   0.95753   0.96354   0.00000  Uiso   1.00
O222   O     0.03481   0.95529   0.32225   0.00000  Uiso   1.00
O223   O     0.58062   0.36439   0.62557   0.00000  Uiso   1.00
O224   O     0.89212   0.87870   0.03289   0.00000  Uiso   1.00
N225   N     0.94581   0.96867   0.40903   0.00000  Uiso   1.00
N226   N     0.62215   0.26021   0.62516   0.00000  Uiso   1.00
N227   N     0.84411   0.91412   0.91543   0.00000  Uiso   1.00
N228   N     0.00949   0.00556   0.42976   0.00000  Uiso   1.00
N229   N     0.68583   0.29710   0.64589   0.00000  Uiso   1.00
N230   N     0.90779   0.95101   0.93617   0.00000  Uiso   1.00
C231   C     0.27340   0.68676   0.34180   0.00000  Uiso   1.00
C232   C     0.27158   0.63982   0.41163   0.00000  Uiso   1.00
C233   C     0.23655   0.60658   0.42004   0.00000  Uiso   1.00
C234   C     0.24130   0.56589   0.48825   0.00000  Uiso   1.00
C235   C     0.23265   0.49407   0.58790   0.00000  Uiso   1.00
C236   C     0.34297   0.66617   0.31230   0.00000  Uiso   1.00
C237   C     0.36797   0.65508   0.23718   0.00000  Uiso   1.00
C238   C     0.43282   0.63658   0.22178   0.00000  Uiso   1.00
C239   C     0.53501   0.60571   0.16719   0.00000  Uiso   1.00
C240   C     0.25412   0.74528   0.37424   0.00000  Uiso   1.00
C241   C     0.20443   0.80071   0.35119   0.00000  Uiso   1.00
C242   C     0.19449   0.84882   0.38793   0.00000  Uiso   1.00
C243   C     0.15873   0.94078   0.42952   0.00000  Uiso   1.00
C244   C     0.34413   0.67363   0.44801   0.00000  Uiso   1.00
C245   C     0.31000   0.63269   0.46932   0.00000  Uiso   1.00
C246   C     0.31480   0.59205   0.53755   0.00000  Uiso   1.00
C247   C     0.27979   0.55874   0.54605   0.00000  Uiso   1.00
C248   C     0.38139   0.65904   0.36999   0.00000  Uiso   1.00
C249   C     0.44622   0.64055   0.35469   0.00000  Uiso   1.00
C250   C     0.47131   0.62944   0.27957   0.00000  Uiso   1.00
C251   C     0.29254   0.73815   0.43194   0.00000  Uiso   1.00
C252   C     0.28268   0.78618   0.46871   0.00000  Uiso   1.00
C253   C     0.23298   0.84168   0.44573   0.00000  Uiso   1.00
H254   H     0.24349   0.69231   0.29688   0.00000  Uiso   1.00
H255   H     0.20683   0.61211   0.37537   0.00000  Uiso   1.00
H256   H     0.33823   0.66061   0.19255   0.00000  Uiso   1.00
H257   H     0.17471   0.80622   0.30655   0.00000  Uiso   1.00
H258   H     0.18314   0.52002   0.48783   0.00000  Uiso   1.00
H259   H     0.46019   0.62232   0.10232   0.00000  Uiso   1.00
H260   H     0.11539   0.92935   0.34271   0.00000  Uiso   1.00
H261   H     0.37404   0.66807   0.49292   0.00000  Uiso   1.00
H262   H     0.34454   0.58654   0.58218   0.00000  Uiso   1.00
H263   H     0.47594   0.63504   0.39935   0.00000  Uiso   1.00
H264   H     0.31242   0.78065   0.51335   0.00000  Uiso   1.00
H265   H     0.29491   0.49926   0.65568   0.00000  Uiso   1.00
H266   H     0.57197   0.60157   0.27016   0.00000  Uiso   1.00
H267   H     0.22716   0.90860   0.51056   0.00000  Uiso   1.00
O268   O     0.21728   0.45643   0.62692   0.00000  Uiso   1.00
O269   O     0.58076   0.59065   0.12114   0.00000  Uiso   1.00
O270   O     0.12838   0.99347   0.43653   0.00000  Uiso   1.00
N271   N     0.21348   0.52633   0.51509   0.00000  Uiso   1.00
N272   N     0.47252   0.62197   0.15466   0.00000  Uiso   1.00
N273   N     0.15016   0.90902   0.37939   0.00000  Uiso   1.00
N274   N     0.27363   0.51517   0.60541   0.00000  Uiso   1.00
N275   N     0.53266   0.61080   0.24498   0.00000  Uiso   1.00
N276   N     0.21030   0.89786   0.46971   0.00000  Uiso   1.00
C277   C     0.69750   0.35722   0.95484   0.00000  Uiso   1.00
C278   C     0.74263   0.37256   0.89217   0.00000  Uiso   1.00
C279   C     0.78449   0.39469   0.90361   0.00000  Uiso   1.00
C280   C     0.82176   0.40585   0.83883   0.00000  Uiso   1.00
C281   C     0.89255   0.43125   0.75271   0.00000  Uiso   1.00
C282   C     0.71286   0.29117   0.95345   0.00000  Uiso   1.00
C283   C     0.72966   0.24489   0.01643   0.00000  Uiso   1.00
C284   C     0.74187   0.18755   0.00323   0.00000  Uiso   1.00
C285   C     0.76638   0.08661   0.01227   0.00000  Uiso   1.00
C286   C     0.63137   0.39454   0.92612   0.00000  Uiso   1.00
C287   C     0.57965   0.43516   0.96612   0.00000  Uiso   1.00
C288   C     0.52324   0.46484   0.92991   0.00000  Uiso   1.00
C289   C     0.42124   0.52440   0.89650   0.00000  Uiso   1.00
C290   C     0.68927   0.33770   0.81944   0.00000  Uiso   1.00
C291   C     0.73817   0.36195   0.81862   0.00000  Uiso   1.00
C292   C     0.77539   0.37309   0.75380   0.00000  Uiso   1.00
C293   C     0.81729   0.39523   0.76515   0.00000  Uiso   1.00
C294   C     0.70839   0.28057   0.87991   0.00000  Uiso   1.00
C295   C     0.72057   0.22329   0.86662   0.00000  Uiso   1.00
C296   C     0.73739   0.17692   0.92955   0.00000  Uiso   1.00
C297   C     0.62690   0.38394   0.85257   0.00000  Uiso   1.00
C298   C     0.57056   0.41356   0.81630   0.00000  Uiso   1.00
C299   C     0.51877   0.45422   0.85623   0.00000  Uiso   1.00
H300   H     0.70097   0.36547   0.01211   0.00000  Uiso   1.00
H301   H     0.78793   0.40288   0.96054   0.00000  Uiso   1.00
H302   H     0.73311   0.25311   0.07334   0.00000  Uiso   1.00
H303   H     0.58313   0.44336   0.02303   0.00000  Uiso   1.00
H304   H     0.88239   0.43966   0.87095   0.00000  Uiso   1.00
H305   H     0.76677   0.12386   0.10879   0.00000  Uiso   1.00
H306   H     0.45050   0.52503   0.00271   0.00000  Uiso   1.00
H307   H     0.68580   0.32944   0.76218   0.00000  Uiso   1.00
H308   H     0.77192   0.36487   0.69689   0.00000  Uiso   1.00
H309   H     0.71710   0.21510   0.80970   0.00000  Uiso   1.00
H310   H     0.56712   0.40534   0.75938   0.00000  Uiso   1.00
H311   H     0.86940   0.40881   0.65696   0.00000  Uiso   1.00
H312   H     0.75378   0.09301   0.89481   0.00000  Uiso   1.00
H313   H     0.43751   0.49418   0.78872   0.00000  Uiso   1.00
O314   O     0.93284   0.44818   0.72553   0.00000  Uiso   1.00
O315   O     0.78114   0.03386   0.03758   0.00000  Uiso   1.00
O316   O     0.36621   0.56019   0.89839   0.00000  Uiso   1.00
N317   N     0.86750   0.42755   0.82954   0.00000  Uiso   1.00
N318   N     0.75942   0.13229   0.05191   0.00000  Uiso   1.00
N319   N     0.46373   0.50734   0.95274   0.00000  Uiso   1.00
N320   N     0.86051   0.41095   0.71440   0.00000  Uiso   1.00
N321   N     0.75243   0.11569   0.93677   0.00000  Uiso   1.00
N322   N     0.45674   0.49074   0.83759   0.00000  Uiso   1.00
C323   C     0.93726   0.68328   0.45853   0.00000  Uiso   1.00
C324   C     0.88667   0.73917   0.49141   0.00000  Uiso   1.00
C325   C     0.89409   0.76520   0.54952   0.00000  Uiso   1.00
C326   C     0.84213   0.81619   0.57149   0.00000  Uiso   1.00
C327   C     0.77230   0.89933   0.62783   0.00000  Uiso   1.00
C328   C     0.94438   0.70278   0.37091   0.00000  Uiso   1.00
C329   C     0.00033   0.69821   0.32771   0.00000  Uiso   1.00
C330   C     0.99696   0.71856   0.24823   0.00000  Uiso   1.00
C331   C     0.01673   0.74516   0.11749   0.00000  Uiso   1.00
C332   C     0.90846   0.63823   0.46917   0.00000  Uiso   1.00
C333   C     0.93422   0.57937   0.50857   0.00000  Uiso   1.00
C334   C     0.90061   0.54536   0.51181   0.00000  Uiso   1.00
C335   C     0.86461   0.47174   0.53363   0.00000  Uiso   1.00
C336   C     0.83179   0.72754   0.39420   0.00000  Uiso   1.00
C337   C     0.82938   0.76321   0.45647   0.00000  Uiso   1.00
C338   C     0.77739   0.81417   0.47835   0.00000  Uiso   1.00
C339   C     0.78474   0.84027   0.53649   0.00000  Uiso   1.00
C340   C     0.88709   0.72682   0.33597   0.00000  Uiso   1.00
C341   C     0.88364   0.74717   0.25654   0.00000  Uiso   1.00
C342   C     0.93957   0.74264   0.21323   0.00000  Uiso   1.00
C343   C     0.85117   0.66227   0.43424   0.00000  Uiso   1.00
C344   C     0.81752   0.62834   0.43740   0.00000  Uiso   1.00
C345   C     0.84321   0.56944   0.47680   0.00000  Uiso   1.00
H346   H     0.98187   0.66457   0.48573   0.00000  Uiso   1.00
H347   H     0.93844   0.74659   0.57654   0.00000  Uiso   1.00
H348   H     0.04466   0.67960   0.35476   0.00000  Uiso   1.00
H349   H     0.97855   0.56079   0.53560   0.00000  Uiso   1.00
H350   H     0.86503   0.84814   0.66180   0.00000  Uiso   1.00
H351   H     0.08901   0.70687   0.19416   0.00000  Uiso   1.00
H352   H     0.94961   0.45632   0.57549   0.00000  Uiso   1.00
H353   H     0.78718   0.74625   0.36700   0.00000  Uiso   1.00
H354   H     0.73307   0.83276   0.45130   0.00000  Uiso   1.00
H355   H     0.83929   0.76577   0.22952   0.00000  Uiso   1.00
H356   H     0.77318   0.64695   0.41036   0.00000  Uiso   1.00
H357   H     0.69834   0.91808   0.56015   0.00000  Uiso   1.00
H358   H     0.92233   0.77681   0.09251   0.00000  Uiso   1.00
H359   H     0.78292   0.52626   0.47384   0.00000  Uiso   1.00
O360   O     0.74960   0.93856   0.66856   0.00000  Uiso   1.00
O361   O     0.04347   0.75320   0.05503   0.00000  Uiso   1.00
O362   O     0.86057   0.42449   0.55533   0.00000  Uiso   1.00
N363   N     0.83322   0.85272   0.62632   0.00000  Uiso   1.00
N364   N     0.04263   0.72065   0.18911   0.00000  Uiso   1.00
N365   N     0.91231   0.48640   0.54560   0.00000  Uiso   1.00
N366   N     0.74353   0.89036   0.57162   0.00000  Uiso   1.00
N367   N     0.95294   0.75829   0.13441   0.00000  Uiso   1.00
N368   N     0.82262   0.52404   0.49090   0.00000  Uiso   1.00
C369   C     0.31946   0.89796   0.79719   0.00000  Uiso   1.00
C370   C     0.32937   0.83485   0.83881   0.00000  Uiso   1.00
C371   C     0.35313   0.80864   0.91128   0.00000  Uiso   1.00
C372   C     0.35856   0.75048   0.93930   0.00000  Uiso   1.00
C373   C     0.37661   0.65718   0.01048   0.00000  Uiso   1.00
C374   C     0.24977   0.93121   0.78038   0.00000  Uiso   1.00
C375   C     0.20661   0.98603   0.80371   0.00000  Uiso   1.00
C376   C     0.14504   0.00899   0.78253   0.00000  Uiso   1.00
C377   C     0.03951   0.06533   0.76295   0.00000  Uiso   1.00
C378   C     0.35690   0.88897   0.71818   0.00000  Uiso   1.00
C379   C     0.40381   0.90828   0.68920   0.00000  Uiso   1.00
C380   C     0.43244   0.89569   0.61564   0.00000  Uiso   1.00
C381   C     0.49326   0.88644   0.49948   0.00000  Uiso   1.00
C382   C     0.28687   0.84128   0.71810   0.00000  Uiso   1.00
C383   C     0.31166   0.80406   0.79585   0.00000  Uiso   1.00
C384   C     0.31706   0.74593   0.82377   0.00000  Uiso   1.00
C385   C     0.34083   0.71963   0.89626   0.00000  Uiso   1.00
C386   C     0.23206   0.90043   0.73742   0.00000  Uiso   1.00
C387   C     0.17054   0.92332   0.71620   0.00000  Uiso   1.00
C388   C     0.12730   0.97815   0.73949   0.00000  Uiso   1.00
C389   C     0.33920   0.85818   0.67522   0.00000  Uiso   1.00
C390   C     0.36775   0.84557   0.60169   0.00000  Uiso   1.00
C391   C     0.41470   0.86485   0.57260   0.00000  Uiso   1.00
H392   H     0.33324   0.92193   0.83064   0.00000  Uiso   1.00
H393   H     0.36682   0.83248   0.94451   0.00000  Uiso   1.00
H394   H     0.22032   0.00985   0.83695   0.00000  Uiso   1.00
H395   H     0.41750   0.93211   0.72246   0.00000  Uiso   1.00
H396   H     0.39621   0.71974   0.05182   0.00000  Uiso   1.00
H397   H     0.08732   0.09374   0.82500   0.00000  Uiso   1.00
H398   H     0.50311   0.92981   0.58358   0.00000  Uiso   1.00
H399   H     0.27308   0.81731   0.68465   0.00000  Uiso   1.00
H400   H     0.30336   0.72211   0.79051   0.00000  Uiso   1.00
H401   H     0.15686   0.89948   0.68295   0.00000  Uiso   1.00
H402   H     0.35404   0.82174   0.56846   0.00000  Uiso   1.00
H403   H     0.34471   0.63016   0.92684   0.00000  Uiso   1.00
H404   H     0.03582   0.00416   0.70001   0.00000  Uiso   1.00
H405   H     0.45161   0.84023   0.45859   0.00000  Uiso   1.00
O406   O     0.39144   0.61423   0.06162   0.00000  Uiso   1.00
O407   O     0.98620   0.10490   0.76402   0.00000  Uiso   1.00
O408   O     0.53171   0.88983   0.44728   0.00000  Uiso   1.00
N409   N     0.37995   0.71172   0.00787   0.00000  Uiso   1.00
N410   N     0.09115   0.06138   0.79582   0.00000  Uiso   1.00
N411   N     0.47987   0.90814   0.57010   0.00000  Uiso   1.00
N412   N     0.35223   0.66352   0.94062   0.00000  Uiso   1.00
N413   N     0.06344   0.01318   0.72856   0.00000  Uiso   1.00
N414   N     0.45215   0.85993   0.50284   0.00000  Uiso   1.00
C415   C     0.42527   0.33886   0.75757   0.00000  Uiso   1.00
C416   C     0.47806   0.27453   0.76709   0.00000  Uiso   1.00
C417   C     0.52769   0.25276   0.81456   0.00000  Uiso   1.00
C418   C     0.57116   0.19255   0.81517   0.00000  Uiso   1.00
C419   C     0.65408   0.09832   0.83680   0.00000  Uiso   1.00
C420   C     0.42688   0.36281   0.67065   0.00000  Uiso   1.00
C421   C     0.43346   0.41527   0.63704   0.00000  Uiso   1.00
C422   C     0.43384   0.42938   0.55646   0.00000  Uiso   1.00
C423   C     0.43724   0.47222   0.42838   0.00000  Uiso   1.00
C424   C     0.36330   0.33249   0.77784   0.00000  Uiso   1.00
C425   C     0.31640   0.35946   0.83435   0.00000  Uiso   1.00
C426   C     0.26324   0.34804   0.84401   0.00000  Uiso   1.00
C427   C     0.16792   0.34380   0.88236   0.00000  Uiso   1.00
C428   C     0.41423   0.27065   0.67421   0.00000  Uiso   1.00
C429   C     0.47207   0.23748   0.72181   0.00000  Uiso   1.00
C430   C     0.51548   0.17729   0.72234   0.00000  Uiso   1.00
C431   C     0.56516   0.15543   0.76981   0.00000  Uiso   1.00
C432   C     0.42089   0.32577   0.62537   0.00000  Uiso   1.00
C433   C     0.42125   0.33980   0.54482   0.00000  Uiso   1.00
C434   C     0.42783   0.39226   0.51111   0.00000  Uiso   1.00
C435   C     0.35730   0.29543   0.73257   0.00000  Uiso   1.00
C436   C     0.30420   0.28398   0.74213   0.00000  Uiso   1.00
C437   C     0.25724   0.31093   0.79865   0.00000  Uiso   1.00
H438   H     0.42993   0.36771   0.79281   0.00000  Uiso   1.00
H439   H     0.53231   0.28145   0.84959   0.00000  Uiso   1.00
H440   H     0.43809   0.44393   0.67210   0.00000  Uiso   1.00
H441   H     0.32106   0.38812   0.86938   0.00000  Uiso   1.00
H442   H     0.64319   0.16949   0.89255   0.00000  Uiso   1.00
H443   H     0.44450   0.51211   0.51830   0.00000  Uiso   1.00
H444   H     0.19771   0.39443   0.93430   0.00000  Uiso   1.00
H445   H     0.40957   0.24180   0.63896   0.00000  Uiso   1.00
H446   H     0.51083   0.14863   0.68730   0.00000  Uiso   1.00
H447   H     0.41661   0.31112   0.50981   0.00000  Uiso   1.00
H448   H     0.29958   0.25531   0.70708   0.00000  Uiso   1.00
H449   H     0.62576   0.06169   0.76082   0.00000  Uiso   1.00
H450   H     0.42706   0.40431   0.38658   0.00000  Uiso   1.00
H451   H     0.18027   0.28663   0.80258   0.00000  Uiso   1.00
O452   O     0.70147   0.05658   0.86124   0.00000  Uiso   1.00
O453   O     0.44078   0.50609   0.37025   0.00000  Uiso   1.00
O454   O     0.11700   0.35169   0.91603   0.00000  Uiso   1.00
N455   N     0.62518   0.15690   0.85492   0.00000  Uiso   1.00
N456   N     0.43943   0.47722   0.50502   0.00000  Uiso   1.00
N457   N     0.20869   0.36721   0.89394   0.00000  Uiso   1.00
N458   N     0.61580   0.09889   0.78404   0.00000  Uiso   1.00
N459   N     0.43005   0.41922   0.43415   0.00000  Uiso   1.00
N460   N     0.19931   0.30921   0.82306   0.00000  Uiso   1.00
C461   C     0.67232   0.77805   0.04846   0.00000  Uiso   1.00
C462   C     0.61319   0.78778   0.10376   0.00000  Uiso   1.00
C463   C     0.60408   0.80148   0.17868   0.00000  Uiso   1.00
C464   C     0.54668   0.80862   0.21992   0.00000  Uiso   1.00
C465   C     0.46195   0.82466   0.31077   0.00000  Uiso   1.00
C466   C     0.69529   0.71528   0.02596   0.00000  Uiso   1.00
C467   C     0.75522   0.66804   0.03545   0.00000  Uiso   1.00
C468   C     0.76694   0.61416   0.01119   0.00000  Uiso   1.00
C469   C     0.80970   0.51767   0.98120   0.00000  Uiso   1.00
C470   C     0.64974   0.82308   0.97454   0.00000  Uiso   1.00
C471   C     0.67139   0.86645   0.94078   0.00000  Uiso   1.00
C472   C     0.64477   0.90332   0.87321   0.00000  Uiso   1.00
C473   C     0.61681   0.97419   0.76339   0.00000  Uiso   1.00
C474   C     0.58659   0.76638   0.98848   0.00000  Uiso   1.00
C475   C     0.56662   0.78144   0.07118   0.00000  Uiso   1.00
C476   C     0.50922   0.78857   0.11232   0.00000  Uiso   1.00
C477   C     0.50003   0.80228   0.18729   0.00000  Uiso   1.00
C478   C     0.64873   0.70895   0.99338   0.00000  Uiso   1.00
C479   C     0.66037   0.65513   0.96909   0.00000  Uiso   1.00
C480   C     0.72029   0.60781   0.97855   0.00000  Uiso   1.00
C481   C     0.60318   0.81674   0.94196   0.00000  Uiso   1.00
C482   C     0.57653   0.85354   0.87443   0.00000  Uiso   1.00
C483   C     0.59812   0.89697   0.84058   0.00000  Uiso   1.00
H484   H     0.70858   0.78298   0.07382   0.00000  Uiso   1.00
H485   H     0.64013   0.80637   0.20388   0.00000  Uiso   1.00
H486   H     0.79125   0.67296   0.06066   0.00000  Uiso   1.00
H487   H     0.70742   0.87134   0.96601   0.00000  Uiso   1.00
H488   H     0.54371   0.82949   0.33371   0.00000  Uiso   1.00
H489   H     0.86236   0.54819   0.03171   0.00000  Uiso   1.00
H490   H     0.68560   0.96652   0.83212   0.00000  Uiso   1.00
H491   H     0.55034   0.76144   0.96311   0.00000  Uiso   1.00
H492   H     0.47320   0.78366   0.08710   0.00000  Uiso   1.00
H493   H     0.62432   0.65024   0.94388   0.00000  Uiso   1.00
H494   H     0.54050   0.84863   0.84923   0.00000  Uiso   1.00
H495   H     0.40822   0.81105   0.23893   0.00000  Uiso   1.00
H496   H     0.72688   0.52975   0.93693   0.00000  Uiso   1.00
H497   H     0.55012   0.94808   0.73734   0.00000  Uiso   1.00
O498   O     0.42809   0.83526   0.36989   0.00000  Uiso   1.00
O499   O     0.84615   0.46620   0.97366   0.00000  Uiso   1.00
O500   O     0.61424   0.01504   0.71181   0.00000  Uiso   1.00
N501   N     0.52240   0.82212   0.29438   0.00000  Uiso   1.00
N502   N     0.82032   0.55911   0.01204   0.00000  Uiso   1.00
N503   N     0.65508   0.95020   0.82543   0.00000  Uiso   1.00
N504   N     0.44950   0.81220   0.24338   0.00000  Uiso   1.00
N505   N     0.74742   0.54919   0.96104   0.00000  Uiso   1.00
N506   N     0.58218   0.94028   0.77443   0.00000  Uiso   1.00
C507   C     0.10562   0.13342   0.28682   0.00000  Uiso   1.00
C508   C     0.11070   0.18638   0.23007   0.00000  Uiso   1.00
C509   C     0.12956   0.22753   0.24734   0.00000  Uiso   1.00
C510   C     0.13108   0.27276   0.18738   0.00000  Uiso   1.00
C511   C     0.14148   0.35443   0.11060   0.00000  Uiso   1.00
C512   C     0.03765   0.14201   0.28690   0.00000  Uiso   1.00
C513   C     0.99510   0.14583   0.35196   0.00000  Uiso   1.00
C514   C     0.93514   0.15369   0.33984   0.00000  Uiso   1.00
C515   C     0.83215   0.16642   0.35130   0.00000  Uiso   1.00
C516   C     0.14738   0.07679   0.24949   0.00000  Uiso   1.00
C517   C     0.19709   0.02576   0.28308   0.00000  Uiso   1.00
C518   C     0.22950   0.97870   0.23947   0.00000  Uiso   1.00
C519   C     0.29689   0.89016   0.19284   0.00000  Uiso   1.00
C520   C     0.07480   0.14059   0.14964   0.00000  Uiso   1.00
C521   C     0.09395   0.19028   0.15556   0.00000  Uiso   1.00
C522   C     0.09545   0.23546   0.09556   0.00000  Uiso   1.00
C523   C     0.11431   0.27666   0.11273   0.00000  Uiso   1.00
C524   C     0.02091   0.14590   0.21239   0.00000  Uiso   1.00
C525   C     0.96100   0.15376   0.20018   0.00000  Uiso   1.00
C526   C     0.91836   0.15759   0.26519   0.00000  Uiso   1.00
C527   C     0.13064   0.08068   0.17497   0.00000  Uiso   1.00
C528   C     0.16299   0.03369   0.13130   0.00000  Uiso   1.00
C529   C     0.21273   0.98261   0.16483   0.00000  Uiso   1.00
H530   H     0.11865   0.13039   0.34483   0.00000  Uiso   1.00
H531   H     0.14250   0.22450   0.30501   0.00000  Uiso   1.00
H532   H     0.00807   0.14280   0.40961   0.00000  Uiso   1.00
H533   H     0.21003   0.02276   0.34075   0.00000  Uiso   1.00
H534   H     0.16154   0.33057   0.22800   0.00000  Uiso   1.00
H535   H     0.87809   0.15829   0.44856   0.00000  Uiso   1.00
H536   H     0.30396   0.90515   0.30336   0.00000  Uiso   1.00
H537   H     0.06176   0.14362   0.09163   0.00000  Uiso   1.00
H538   H     0.08249   0.23846   0.03790   0.00000  Uiso   1.00
H539   H     0.94806   0.15677   0.14251   0.00000  Uiso   1.00
H540   H     0.15002   0.03672   0.07364   0.00000  Uiso   1.00
H541   H     0.11283   0.34191   0.01121   0.00000  Uiso   1.00
H542   H     0.82938   0.16963   0.23178   0.00000  Uiso   1.00
H543   H     0.25525   0.91648   0.08656   0.00000  Uiso   1.00
O544   O     0.15183   0.39840   0.08884   0.00000  Uiso   1.00
O545   O     0.77996   0.17237   0.37821   0.00000  Uiso   1.00
O546   O     0.33869   0.84025   0.18770   0.00000  Uiso   1.00
N547   N     0.14725   0.32022   0.18435   0.00000  Uiso   1.00
N548   N     0.88223   0.15916   0.39056   0.00000  Uiso   1.00
N549   N     0.28037   0.92248   0.25481   0.00000  Uiso   1.00
N550   N     0.12104   0.32632   0.06769   0.00000  Uiso   1.00
N551   N     0.85602   0.16526   0.27391   0.00000  Uiso   1.00
N552   N     0.25416   0.92858   0.13816   0.00000  Uiso   1.00
