data_job_01632
_audit_creation_date              2018-12-19
_audit_creation_method            'Materials Studio'
_symmetry_space_group_name_H-M    'P1'
_symmetry_Int_Tables_number       1
_symmetry_cell_setting            triclinic
loop_
_symmetry_equiv_pos_as_xyz
  x,y,z
_cell_length_a                    42.2834
_cell_length_b                    7.2159
_cell_length_c                    19.8319
_cell_angle_alpha                 90.0000
_cell_angle_beta                  62.3356
_cell_angle_gamma                 90.0000
loop_
_atom_site_label
_atom_site_type_symbol
_atom_site_fract_x
_atom_site_fract_y
_atom_site_fract_z
_atom_site_U_iso_or_equiv
_atom_site_adp_type
_atom_site_occupancy
C1     C     0.60188   0.14248   0.96590   0.00000  Uiso   1.00
C2     C     0.63120   0.25882   0.96937   0.00000  Uiso   1.00
C3     C     0.65938   0.19104   0.97963   0.00000  Uiso   1.00
C4     C     0.68340   0.32003   0.98119   0.00000  Uiso   1.00
C5     C     0.72953   0.47180   0.98789   0.00000  Uiso   1.00
C6     C     0.56667   0.21888   0.02757   0.00000  Uiso   1.00
C7     C     0.54060   0.11751   0.08675   0.00000  Uiso   1.00
C8     C     0.51029   0.21288   0.13729   0.00000  Uiso   1.00
C9     C     0.45623   0.30262   0.23432   0.00000  Uiso   1.00
C10    C     0.60265   0.18932   0.89018   0.00000  Uiso   1.00
C11    C     0.60682   0.06310   0.83384   0.00000  Uiso   1.00
C12    C     0.60680   0.13358   0.76871   0.00000  Uiso   1.00
C13    C     0.60860   0.17742   0.65241   0.00000  Uiso   1.00
C14    C     0.59441   0.49208   0.95044   0.00000  Uiso   1.00
C15    C     0.62714   0.44871   0.96098   0.00000  Uiso   1.00
C16    C     0.65112   0.57784   0.96252   0.00000  Uiso   1.00
C17    C     0.67933   0.51026   0.97277   0.00000  Uiso   1.00
C18    C     0.56261   0.40876   0.01917   0.00000  Uiso   1.00
C19    C     0.53233   0.50431   0.06964   0.00000  Uiso   1.00
C20    C     0.50623   0.40312   0.12888   0.00000  Uiso   1.00
C21    C     0.59859   0.37921   0.88178   0.00000  Uiso   1.00
C22    C     0.59856   0.44990   0.81673   0.00000  Uiso   1.00
C23    C     0.60273   0.32382   0.76030   0.00000  Uiso   1.00
H24    H     0.60503   0.99464   0.97244   0.00000  Uiso   1.00
H25    H     0.66251   0.04408   0.98613   0.00000  Uiso   1.00
H26    H     0.54374   0.97056   0.09323   0.00000  Uiso   1.00
H27    H     0.60996   0.91617   0.84036   0.00000  Uiso   1.00
H28    H     0.72444   0.18263   0.99763   0.00000  Uiso   1.00
H29    H     0.47401   0.02761   0.22343   0.00000  Uiso   1.00
H30    H     0.61363   0.91289   0.69020   0.00000  Uiso   1.00
H31    H     0.59125   0.63993   0.94390   0.00000  Uiso   1.00
H32    H     0.64797   0.72478   0.95602   0.00000  Uiso   1.00
H33    H     0.52920   0.65125   0.06312   0.00000  Uiso   1.00
H34    H     0.59542   0.59686   0.81025   0.00000  Uiso   1.00
H35    H     0.71263   0.73511   0.97320   0.00000  Uiso   1.00
H36    H     0.46220   0.58008   0.19900   0.00000  Uiso   1.00
H37    H     0.60183   0.46537   0.66577   0.00000  Uiso   1.00
O38    O     0.75609   0.50305   0.99392   0.00000  Uiso   1.00
O39    O     0.42753   0.29965   0.29016   0.00000  Uiso   1.00
O40    O     0.61072   0.14915   0.59058   0.00000  Uiso   1.00
N41    N     0.71388   0.30101   0.99020   0.00000  Uiso   1.00
N42    N     0.47974   0.15608   0.20132   0.00000  Uiso   1.00
N43    N     0.61027   0.04882   0.70281   0.00000  Uiso   1.00
N44    N     0.70753   0.59830   0.97705   0.00000  Uiso   1.00
N45    N     0.47339   0.45336   0.18817   0.00000  Uiso   1.00
N46    N     0.60392   0.34611   0.68966   0.00000  Uiso   1.00
C47    C     0.10188   0.64248   0.96590   0.00000  Uiso   1.00
C48    C     0.13120   0.75882   0.96937   0.00000  Uiso   1.00
C49    C     0.15938   0.69104   0.97963   0.00000  Uiso   1.00
C50    C     0.18340   0.82003   0.98119   0.00000  Uiso   1.00
C51    C     0.22953   0.97180   0.98789   0.00000  Uiso   1.00
C52    C     0.06667   0.71888   0.02757   0.00000  Uiso   1.00
C53    C     0.04060   0.61751   0.08675   0.00000  Uiso   1.00
C54    C     0.01029   0.71288   0.13729   0.00000  Uiso   1.00
C55    C     0.95623   0.80262   0.23432   0.00000  Uiso   1.00
C56    C     0.10265   0.68932   0.89018   0.00000  Uiso   1.00
C57    C     0.10682   0.56310   0.83384   0.00000  Uiso   1.00
C58    C     0.10680   0.63358   0.76871   0.00000  Uiso   1.00
C59    C     0.10860   0.67742   0.65241   0.00000  Uiso   1.00
C60    C     0.09441   0.99208   0.95044   0.00000  Uiso   1.00
C61    C     0.12714   0.94871   0.96098   0.00000  Uiso   1.00
C62    C     0.15112   0.07784   0.96252   0.00000  Uiso   1.00
C63    C     0.17933   0.01026   0.97277   0.00000  Uiso   1.00
C64    C     0.06261   0.90876   0.01917   0.00000  Uiso   1.00
C65    C     0.03233   0.00431   0.06964   0.00000  Uiso   1.00
C66    C     0.00623   0.90312   0.12888   0.00000  Uiso   1.00
C67    C     0.09859   0.87921   0.88178   0.00000  Uiso   1.00
C68    C     0.09856   0.94990   0.81673   0.00000  Uiso   1.00
C69    C     0.10273   0.82382   0.76030   0.00000  Uiso   1.00
H70    H     0.10503   0.49464   0.97244   0.00000  Uiso   1.00
H71    H     0.16251   0.54408   0.98613   0.00000  Uiso   1.00
H72    H     0.04374   0.47056   0.09323   0.00000  Uiso   1.00
H73    H     0.10996   0.41617   0.84036   0.00000  Uiso   1.00
H74    H     0.22444   0.68263   0.99763   0.00000  Uiso   1.00
H75    H     0.97401   0.52761   0.22343   0.00000  Uiso   1.00
H76    H     0.11363   0.41289   0.69020   0.00000  Uiso   1.00
H77    H     0.09125   0.13993   0.94390   0.00000  Uiso   1.00
H78    H     0.14797   0.22478   0.95602   0.00000  Uiso   1.00
H79    H     0.02920   0.15125   0.06312   0.00000  Uiso   1.00
H80    H     0.09542   0.09686   0.81025   0.00000  Uiso   1.00
H81    H     0.21263   0.23511   0.97320   0.00000  Uiso   1.00
H82    H     0.96220   0.08008   0.19900   0.00000  Uiso   1.00
H83    H     0.10183   0.96537   0.66577   0.00000  Uiso   1.00
O84    O     0.25609   0.00305   0.99392   0.00000  Uiso   1.00
O85    O     0.92753   0.79965   0.29016   0.00000  Uiso   1.00
O86    O     0.11072   0.64915   0.59058   0.00000  Uiso   1.00
N87    N     0.21388   0.80101   0.99020   0.00000  Uiso   1.00
N88    N     0.97974   0.65608   0.20132   0.00000  Uiso   1.00
N89    N     0.11027   0.54882   0.70281   0.00000  Uiso   1.00
N90    N     0.20753   0.09830   0.97705   0.00000  Uiso   1.00
N91    N     0.97339   0.95336   0.18817   0.00000  Uiso   1.00
N92    N     0.10392   0.84611   0.68966   0.00000  Uiso   1.00
C93    C     0.39812   0.14248   0.53410   0.00000  Uiso   1.00
C94    C     0.36880   0.25882   0.53063   0.00000  Uiso   1.00
C95    C     0.34062   0.19104   0.52037   0.00000  Uiso   1.00
C96    C     0.31660   0.32003   0.51881   0.00000  Uiso   1.00
C97    C     0.27047   0.47180   0.51211   0.00000  Uiso   1.00
C98    C     0.43333   0.21888   0.47243   0.00000  Uiso   1.00
C99    C     0.45940   0.11751   0.41325   0.00000  Uiso   1.00
C100   C     0.48971   0.21288   0.36271   0.00000  Uiso   1.00
C101   C     0.54377   0.30262   0.26568   0.00000  Uiso   1.00
C102   C     0.39735   0.18932   0.60982   0.00000  Uiso   1.00
C103   C     0.39318   0.06310   0.66616   0.00000  Uiso   1.00
C104   C     0.39320   0.13358   0.73129   0.00000  Uiso   1.00
C105   C     0.39140   0.17742   0.84759   0.00000  Uiso   1.00
C106   C     0.40559   0.49208   0.54956   0.00000  Uiso   1.00
C107   C     0.37286   0.44871   0.53902   0.00000  Uiso   1.00
C108   C     0.34888   0.57784   0.53748   0.00000  Uiso   1.00
C109   C     0.32067   0.51026   0.52723   0.00000  Uiso   1.00
C110   C     0.43739   0.40876   0.48083   0.00000  Uiso   1.00
C111   C     0.46767   0.50431   0.43036   0.00000  Uiso   1.00
C112   C     0.49377   0.40312   0.37112   0.00000  Uiso   1.00
C113   C     0.40141   0.37921   0.61822   0.00000  Uiso   1.00
C114   C     0.40144   0.44990   0.68327   0.00000  Uiso   1.00
C115   C     0.39727   0.32382   0.73970   0.00000  Uiso   1.00
H116   H     0.39497   0.99464   0.52756   0.00000  Uiso   1.00
H117   H     0.33749   0.04408   0.51387   0.00000  Uiso   1.00
H118   H     0.45626   0.97056   0.40677   0.00000  Uiso   1.00
H119   H     0.39004   0.91617   0.65964   0.00000  Uiso   1.00
H120   H     0.27556   0.18263   0.50237   0.00000  Uiso   1.00
H121   H     0.52599   0.02761   0.27657   0.00000  Uiso   1.00
H122   H     0.38637   0.91289   0.80980   0.00000  Uiso   1.00
H123   H     0.40875   0.63993   0.55610   0.00000  Uiso   1.00
H124   H     0.35203   0.72478   0.54398   0.00000  Uiso   1.00
H125   H     0.47080   0.65125   0.43688   0.00000  Uiso   1.00
H126   H     0.40458   0.59686   0.68975   0.00000  Uiso   1.00
H127   H     0.28737   0.73511   0.52680   0.00000  Uiso   1.00
H128   H     0.53780   0.58008   0.30100   0.00000  Uiso   1.00
H129   H     0.39817   0.46537   0.83423   0.00000  Uiso   1.00
O130   O     0.24391   0.50305   0.50608   0.00000  Uiso   1.00
O131   O     0.57247   0.29965   0.20984   0.00000  Uiso   1.00
O132   O     0.38928   0.14915   0.90942   0.00000  Uiso   1.00
N133   N     0.28612   0.30101   0.50980   0.00000  Uiso   1.00
N134   N     0.52026   0.15608   0.29868   0.00000  Uiso   1.00
N135   N     0.38973   0.04882   0.79719   0.00000  Uiso   1.00
N136   N     0.29247   0.59830   0.52295   0.00000  Uiso   1.00
N137   N     0.52661   0.45336   0.31183   0.00000  Uiso   1.00
N138   N     0.39608   0.34611   0.81034   0.00000  Uiso   1.00
C139   C     0.89812   0.64248   0.53410   0.00000  Uiso   1.00
C140   C     0.86880   0.75882   0.53063   0.00000  Uiso   1.00
C141   C     0.84062   0.69104   0.52037   0.00000  Uiso   1.00
C142   C     0.81660   0.82003   0.51881   0.00000  Uiso   1.00
C143   C     0.77047   0.97180   0.51211   0.00000  Uiso   1.00
C144   C     0.93333   0.71888   0.47243   0.00000  Uiso   1.00
C145   C     0.95940   0.61751   0.41325   0.00000  Uiso   1.00
C146   C     0.98971   0.71288   0.36271   0.00000  Uiso   1.00
C147   C     0.04377   0.80262   0.26568   0.00000  Uiso   1.00
C148   C     0.89735   0.68932   0.60982   0.00000  Uiso   1.00
C149   C     0.89318   0.56310   0.66616   0.00000  Uiso   1.00
C150   C     0.89320   0.63358   0.73129   0.00000  Uiso   1.00
C151   C     0.89140   0.67742   0.84759   0.00000  Uiso   1.00
C152   C     0.90559   0.99208   0.54956   0.00000  Uiso   1.00
C153   C     0.87286   0.94871   0.53902   0.00000  Uiso   1.00
C154   C     0.84888   0.07784   0.53748   0.00000  Uiso   1.00
C155   C     0.82067   0.01026   0.52723   0.00000  Uiso   1.00
C156   C     0.93739   0.90876   0.48083   0.00000  Uiso   1.00
C157   C     0.96767   0.00431   0.43036   0.00000  Uiso   1.00
C158   C     0.99377   0.90312   0.37112   0.00000  Uiso   1.00
C159   C     0.90141   0.87921   0.61822   0.00000  Uiso   1.00
C160   C     0.90144   0.94990   0.68327   0.00000  Uiso   1.00
C161   C     0.89727   0.82382   0.73970   0.00000  Uiso   1.00
H162   H     0.89497   0.49464   0.52756   0.00000  Uiso   1.00
H163   H     0.83749   0.54408   0.51387   0.00000  Uiso   1.00
H164   H     0.95626   0.47056   0.40677   0.00000  Uiso   1.00
H165   H     0.89004   0.41617   0.65964   0.00000  Uiso   1.00
H166   H     0.77556   0.68263   0.50237   0.00000  Uiso   1.00
H167   H     0.02599   0.52761   0.27657   0.00000  Uiso   1.00
H168   H     0.88637   0.41289   0.80980   0.00000  Uiso   1.00
H169   H     0.90875   0.13993   0.55610   0.00000  Uiso   1.00
H170   H     0.85203   0.22478   0.54398   0.00000  Uiso   1.00
H171   H     0.97080   0.15125   0.43688   0.00000  Uiso   1.00
H172   H     0.90458   0.09686   0.68975   0.00000  Uiso   1.00
H173   H     0.78737   0.23511   0.52680   0.00000  Uiso   1.00
H174   H     0.03780   0.08008   0.30100   0.00000  Uiso   1.00
H175   H     0.89817   0.96537   0.83423   0.00000  Uiso   1.00
O176   O     0.74391   0.00305   0.50608   0.00000  Uiso   1.00
O177   O     0.07247   0.79965   0.20984   0.00000  Uiso   1.00
O178   O     0.88928   0.64915   0.90942   0.00000  Uiso   1.00
N179   N     0.78612   0.80101   0.50980   0.00000  Uiso   1.00
N180   N     0.02026   0.65608   0.29868   0.00000  Uiso   1.00
N181   N     0.88973   0.54882   0.79719   0.00000  Uiso   1.00
N182   N     0.79247   0.09830   0.52295   0.00000  Uiso   1.00
N183   N     0.02661   0.95336   0.31183   0.00000  Uiso   1.00
N184   N     0.89608   0.84611   0.81034   0.00000  Uiso   1.00
C185   C     0.39812   0.85752   0.03410   0.00000  Uiso   1.00
C186   C     0.36880   0.74118   0.03063   0.00000  Uiso   1.00
C187   C     0.34062   0.80896   0.02037   0.00000  Uiso   1.00
C188   C     0.31660   0.67997   0.01881   0.00000  Uiso   1.00
C189   C     0.27047   0.52820   0.01211   0.00000  Uiso   1.00
C190   C     0.43333   0.78112   0.97243   0.00000  Uiso   1.00
C191   C     0.45940   0.88249   0.91325   0.00000  Uiso   1.00
C192   C     0.48971   0.78712   0.86271   0.00000  Uiso   1.00
C193   C     0.54377   0.69738   0.76568   0.00000  Uiso   1.00
C194   C     0.39735   0.81068   0.10982   0.00000  Uiso   1.00
C195   C     0.39318   0.93690   0.16616   0.00000  Uiso   1.00
C196   C     0.39320   0.86642   0.23129   0.00000  Uiso   1.00
C197   C     0.39140   0.82258   0.34759   0.00000  Uiso   1.00
C198   C     0.40559   0.50792   0.04956   0.00000  Uiso   1.00
C199   C     0.37286   0.55129   0.03902   0.00000  Uiso   1.00
C200   C     0.34888   0.42216   0.03748   0.00000  Uiso   1.00
C201   C     0.32067   0.48974   0.02723   0.00000  Uiso   1.00
C202   C     0.43739   0.59124   0.98083   0.00000  Uiso   1.00
C203   C     0.46767   0.49569   0.93036   0.00000  Uiso   1.00
C204   C     0.49377   0.59688   0.87112   0.00000  Uiso   1.00
C205   C     0.40141   0.62079   0.11822   0.00000  Uiso   1.00
C206   C     0.40144   0.55010   0.18327   0.00000  Uiso   1.00
C207   C     0.39727   0.67618   0.23970   0.00000  Uiso   1.00
H208   H     0.39497   0.00536   0.02756   0.00000  Uiso   1.00
H209   H     0.33749   0.95592   0.01387   0.00000  Uiso   1.00
H210   H     0.45626   0.02944   0.90677   0.00000  Uiso   1.00
H211   H     0.39004   0.08383   0.15964   0.00000  Uiso   1.00
H212   H     0.27556   0.81737   0.00237   0.00000  Uiso   1.00
H213   H     0.52599   0.97239   0.77657   0.00000  Uiso   1.00
H214   H     0.38637   0.08711   0.30980   0.00000  Uiso   1.00
H215   H     0.40875   0.36007   0.05610   0.00000  Uiso   1.00
H216   H     0.35203   0.27522   0.04398   0.00000  Uiso   1.00
H217   H     0.47080   0.34875   0.93688   0.00000  Uiso   1.00
H218   H     0.40458   0.40314   0.18975   0.00000  Uiso   1.00
H219   H     0.28737   0.26489   0.02680   0.00000  Uiso   1.00
H220   H     0.53780   0.41992   0.80100   0.00000  Uiso   1.00
H221   H     0.39817   0.53463   0.33423   0.00000  Uiso   1.00
O222   O     0.24391   0.49695   0.00608   0.00000  Uiso   1.00
O223   O     0.57247   0.70035   0.70984   0.00000  Uiso   1.00
O224   O     0.38928   0.85085   0.40942   0.00000  Uiso   1.00
N225   N     0.28612   0.69899   0.00980   0.00000  Uiso   1.00
N226   N     0.52026   0.84392   0.79868   0.00000  Uiso   1.00
N227   N     0.38973   0.95118   0.29719   0.00000  Uiso   1.00
N228   N     0.29247   0.40170   0.02295   0.00000  Uiso   1.00
N229   N     0.52661   0.54664   0.81183   0.00000  Uiso   1.00
N230   N     0.39608   0.65389   0.31034   0.00000  Uiso   1.00
C231   C     0.89812   0.35752   0.03410   0.00000  Uiso   1.00
C232   C     0.86880   0.24118   0.03063   0.00000  Uiso   1.00
C233   C     0.84062   0.30896   0.02037   0.00000  Uiso   1.00
C234   C     0.81660   0.17997   0.01881   0.00000  Uiso   1.00
C235   C     0.77047   0.02820   0.01211   0.00000  Uiso   1.00
C236   C     0.93333   0.28112   0.97243   0.00000  Uiso   1.00
C237   C     0.95940   0.38249   0.91325   0.00000  Uiso   1.00
C238   C     0.98971   0.28712   0.86271   0.00000  Uiso   1.00
C239   C     0.04377   0.19738   0.76568   0.00000  Uiso   1.00
C240   C     0.89735   0.31068   0.10982   0.00000  Uiso   1.00
C241   C     0.89318   0.43690   0.16616   0.00000  Uiso   1.00
C242   C     0.89320   0.36642   0.23129   0.00000  Uiso   1.00
C243   C     0.89140   0.32258   0.34759   0.00000  Uiso   1.00
C244   C     0.90559   0.00792   0.04956   0.00000  Uiso   1.00
C245   C     0.87286   0.05129   0.03902   0.00000  Uiso   1.00
C246   C     0.84888   0.92216   0.03748   0.00000  Uiso   1.00
C247   C     0.82067   0.98974   0.02723   0.00000  Uiso   1.00
C248   C     0.93739   0.09124   0.98083   0.00000  Uiso   1.00
C249   C     0.96767   0.99569   0.93036   0.00000  Uiso   1.00
C250   C     0.99377   0.09688   0.87112   0.00000  Uiso   1.00
C251   C     0.90141   0.12079   0.11822   0.00000  Uiso   1.00
C252   C     0.90144   0.05010   0.18327   0.00000  Uiso   1.00
C253   C     0.89727   0.17618   0.23970   0.00000  Uiso   1.00
H254   H     0.89497   0.50536   0.02756   0.00000  Uiso   1.00
H255   H     0.83749   0.45592   0.01387   0.00000  Uiso   1.00
H256   H     0.95626   0.52944   0.90677   0.00000  Uiso   1.00
H257   H     0.89004   0.58383   0.15964   0.00000  Uiso   1.00
H258   H     0.77556   0.31737   0.00237   0.00000  Uiso   1.00
H259   H     0.02599   0.47239   0.77657   0.00000  Uiso   1.00
H260   H     0.88637   0.58711   0.30980   0.00000  Uiso   1.00
H261   H     0.90875   0.86007   0.05610   0.00000  Uiso   1.00
H262   H     0.85203   0.77522   0.04398   0.00000  Uiso   1.00
H263   H     0.97080   0.84875   0.93688   0.00000  Uiso   1.00
H264   H     0.90458   0.90314   0.18975   0.00000  Uiso   1.00
H265   H     0.78737   0.76489   0.02680   0.00000  Uiso   1.00
H266   H     0.03780   0.91992   0.80100   0.00000  Uiso   1.00
H267   H     0.89817   0.03463   0.33423   0.00000  Uiso   1.00
O268   O     0.74391   0.99695   0.00608   0.00000  Uiso   1.00
O269   O     0.07247   0.20035   0.70984   0.00000  Uiso   1.00
O270   O     0.88928   0.35085   0.40942   0.00000  Uiso   1.00
N271   N     0.78612   0.19899   0.00980   0.00000  Uiso   1.00
N272   N     0.02026   0.34392   0.79868   0.00000  Uiso   1.00
N273   N     0.88973   0.45118   0.29719   0.00000  Uiso   1.00
N274   N     0.79247   0.90170   0.02295   0.00000  Uiso   1.00
N275   N     0.02661   0.04664   0.81183   0.00000  Uiso   1.00
N276   N     0.89608   0.15389   0.31034   0.00000  Uiso   1.00
C277   C     0.60188   0.85752   0.46590   0.00000  Uiso   1.00
C278   C     0.63120   0.74118   0.46937   0.00000  Uiso   1.00
C279   C     0.65938   0.80896   0.47963   0.00000  Uiso   1.00
C280   C     0.68340   0.67997   0.48119   0.00000  Uiso   1.00
C281   C     0.72953   0.52820   0.48789   0.00000  Uiso   1.00
C282   C     0.56667   0.78112   0.52757   0.00000  Uiso   1.00
C283   C     0.54060   0.88249   0.58675   0.00000  Uiso   1.00
C284   C     0.51029   0.78712   0.63729   0.00000  Uiso   1.00
C285   C     0.45623   0.69738   0.73432   0.00000  Uiso   1.00
C286   C     0.60265   0.81068   0.39018   0.00000  Uiso   1.00
C287   C     0.60682   0.93690   0.33384   0.00000  Uiso   1.00
C288   C     0.60680   0.86642   0.26871   0.00000  Uiso   1.00
C289   C     0.60860   0.82258   0.15241   0.00000  Uiso   1.00
C290   C     0.59441   0.50792   0.45044   0.00000  Uiso   1.00
C291   C     0.62714   0.55129   0.46098   0.00000  Uiso   1.00
C292   C     0.65112   0.42216   0.46252   0.00000  Uiso   1.00
C293   C     0.67933   0.48974   0.47277   0.00000  Uiso   1.00
C294   C     0.56261   0.59124   0.51917   0.00000  Uiso   1.00
C295   C     0.53233   0.49569   0.56964   0.00000  Uiso   1.00
C296   C     0.50623   0.59688   0.62888   0.00000  Uiso   1.00
C297   C     0.59859   0.62079   0.38178   0.00000  Uiso   1.00
C298   C     0.59856   0.55010   0.31673   0.00000  Uiso   1.00
C299   C     0.60273   0.67618   0.26030   0.00000  Uiso   1.00
H300   H     0.60503   0.00536   0.47244   0.00000  Uiso   1.00
H301   H     0.66251   0.95592   0.48613   0.00000  Uiso   1.00
H302   H     0.54374   0.02944   0.59323   0.00000  Uiso   1.00
H303   H     0.60996   0.08383   0.34036   0.00000  Uiso   1.00
H304   H     0.72444   0.81737   0.49763   0.00000  Uiso   1.00
H305   H     0.47401   0.97239   0.72343   0.00000  Uiso   1.00
H306   H     0.61363   0.08711   0.19020   0.00000  Uiso   1.00
H307   H     0.59125   0.36007   0.44390   0.00000  Uiso   1.00
H308   H     0.64797   0.27522   0.45602   0.00000  Uiso   1.00
H309   H     0.52920   0.34875   0.56312   0.00000  Uiso   1.00
H310   H     0.59542   0.40314   0.31025   0.00000  Uiso   1.00
H311   H     0.71263   0.26489   0.47320   0.00000  Uiso   1.00
H312   H     0.46220   0.41992   0.69900   0.00000  Uiso   1.00
H313   H     0.60183   0.53463   0.16577   0.00000  Uiso   1.00
O314   O     0.75609   0.49695   0.49392   0.00000  Uiso   1.00
O315   O     0.42753   0.70035   0.79016   0.00000  Uiso   1.00
O316   O     0.61072   0.85085   0.09058   0.00000  Uiso   1.00
N317   N     0.71388   0.69899   0.49020   0.00000  Uiso   1.00
N318   N     0.47974   0.84392   0.70132   0.00000  Uiso   1.00
N319   N     0.61027   0.95118   0.20281   0.00000  Uiso   1.00
N320   N     0.70753   0.40170   0.47705   0.00000  Uiso   1.00
N321   N     0.47339   0.54664   0.68817   0.00000  Uiso   1.00
N322   N     0.60392   0.65389   0.18966   0.00000  Uiso   1.00
C323   C     0.10188   0.35752   0.46590   0.00000  Uiso   1.00
C324   C     0.13120   0.24118   0.46937   0.00000  Uiso   1.00
C325   C     0.15938   0.30896   0.47963   0.00000  Uiso   1.00
C326   C     0.18340   0.17997   0.48119   0.00000  Uiso   1.00
C327   C     0.22953   0.02820   0.48789   0.00000  Uiso   1.00
C328   C     0.06667   0.28112   0.52757   0.00000  Uiso   1.00
C329   C     0.04060   0.38249   0.58675   0.00000  Uiso   1.00
C330   C     0.01029   0.28712   0.63729   0.00000  Uiso   1.00
C331   C     0.95623   0.19738   0.73432   0.00000  Uiso   1.00
C332   C     0.10265   0.31068   0.39018   0.00000  Uiso   1.00
C333   C     0.10682   0.43690   0.33384   0.00000  Uiso   1.00
C334   C     0.10680   0.36642   0.26871   0.00000  Uiso   1.00
C335   C     0.10860   0.32258   0.15241   0.00000  Uiso   1.00
C336   C     0.09441   0.00792   0.45044   0.00000  Uiso   1.00
C337   C     0.12714   0.05129   0.46098   0.00000  Uiso   1.00
C338   C     0.15112   0.92216   0.46252   0.00000  Uiso   1.00
C339   C     0.17933   0.98974   0.47277   0.00000  Uiso   1.00
C340   C     0.06261   0.09124   0.51917   0.00000  Uiso   1.00
C341   C     0.03233   0.99569   0.56964   0.00000  Uiso   1.00
C342   C     0.00623   0.09688   0.62888   0.00000  Uiso   1.00
C343   C     0.09859   0.12079   0.38178   0.00000  Uiso   1.00
C344   C     0.09856   0.05010   0.31673   0.00000  Uiso   1.00
C345   C     0.10273   0.17618   0.26030   0.00000  Uiso   1.00
H346   H     0.10503   0.50536   0.47244   0.00000  Uiso   1.00
H347   H     0.16251   0.45592   0.48613   0.00000  Uiso   1.00
H348   H     0.04374   0.52944   0.59323   0.00000  Uiso   1.00
H349   H     0.10996   0.58383   0.34036   0.00000  Uiso   1.00
H350   H     0.22444   0.31737   0.49763   0.00000  Uiso   1.00
H351   H     0.97401   0.47239   0.72343   0.00000  Uiso   1.00
H352   H     0.11363   0.58711   0.19020   0.00000  Uiso   1.00
H353   H     0.09125   0.86007   0.44390   0.00000  Uiso   1.00
H354   H     0.14797   0.77522   0.45602   0.00000  Uiso   1.00
H355   H     0.02920   0.84875   0.56312   0.00000  Uiso   1.00
H356   H     0.09542   0.90314   0.31025   0.00000  Uiso   1.00
H357   H     0.21263   0.76489   0.47320   0.00000  Uiso   1.00
H358   H     0.96220   0.91992   0.69900   0.00000  Uiso   1.00
H359   H     0.10183   0.03463   0.16577   0.00000  Uiso   1.00
O360   O     0.25609   0.99695   0.49392   0.00000  Uiso   1.00
O361   O     0.92753   0.20035   0.79016   0.00000  Uiso   1.00
O362   O     0.11072   0.35085   0.09058   0.00000  Uiso   1.00
N363   N     0.21388   0.19899   0.49020   0.00000  Uiso   1.00
N364   N     0.97974   0.34392   0.70132   0.00000  Uiso   1.00
N365   N     0.11027   0.45118   0.20281   0.00000  Uiso   1.00
N366   N     0.20753   0.90170   0.47705   0.00000  Uiso   1.00
N367   N     0.97339   0.04664   0.68817   0.00000  Uiso   1.00
N368   N     0.10392   0.15389   0.18966   0.00000  Uiso   1.00
