data_job_05305
_audit_creation_date              2018-12-19
_audit_creation_method            'Materials Studio'
_symmetry_space_group_name_H-M    'P1'
_symmetry_Int_Tables_number       1
_symmetry_cell_setting            triclinic
loop_
_symmetry_equiv_pos_as_xyz
  x,y,z
_cell_length_a                    9.5069
_cell_length_b                    9.5069
_cell_length_c                    68.6996
_cell_angle_alpha                 90.0000
_cell_angle_beta                  90.0000
_cell_angle_gamma                 90.0000
loop_
_atom_site_label
_atom_site_type_symbol
_atom_site_fract_x
_atom_site_fract_y
_atom_site_fract_z
_atom_site_U_iso_or_equiv
_atom_site_adp_type
_atom_site_occupancy
C1     C     0.58983   0.72384   0.94252   0.00000  Uiso   1.00
C2     C     0.50072   0.80885   0.92830   0.00000  Uiso   1.00
C3     C     0.48324   0.77975   0.90865   0.00000  Uiso   1.00
C4     C     0.39747   0.87018   0.89812   0.00000  Uiso   1.00
C5     C     0.26917   0.98467   0.87469   0.00000  Uiso   1.00
C6     C     0.69438   0.82727   0.95138   0.00000  Uiso   1.00
C7     C     0.83971   0.81365   0.95115   0.00000  Uiso   1.00
C8     C     0.91696   0.91958   0.96005   0.00000  Uiso   1.00
C9     C     0.08931   0.06262   0.97248   0.00000  Uiso   1.00
C10    C     0.49134   0.68094   0.95900   0.00000  Uiso   1.00
C11    C     0.46598   0.54428   0.96518   0.00000  Uiso   1.00
C12    C     0.37231   0.52702   0.98050   0.00000  Uiso   1.00
C13    C     0.22941   0.44285   0.00475   0.00000  Uiso   1.00
C14    C     0.46860   0.93620   0.95875   0.00000  Uiso   1.00
C15    C     0.43487   0.92419   0.93711   0.00000  Uiso   1.00
C16    C     0.34910   0.01469   0.92661   0.00000  Uiso   1.00
C17    C     0.33149   0.98573   0.90695   0.00000  Uiso   1.00
C18    C     0.62853   0.94261   0.96020   0.00000  Uiso   1.00
C19    C     0.70558   0.04859   0.96911   0.00000  Uiso   1.00
C20    C     0.85099   0.03514   0.96888   0.00000  Uiso   1.00
C21    C     0.42548   0.79628   0.96782   0.00000  Uiso   1.00
C22    C     0.33184   0.77923   0.98313   0.00000  Uiso   1.00
C23    C     0.30634   0.64257   0.98933   0.00000  Uiso   1.00
H24    H     0.64111   0.63405   0.93566   0.00000  Uiso   1.00
H25    H     0.53423   0.69048   0.90183   0.00000  Uiso   1.00
H26    H     0.89064   0.72437   0.94433   0.00000  Uiso   1.00
H27    H     0.51696   0.45505   0.95835   0.00000  Uiso   1.00
H28    H     0.38673   0.80395   0.86822   0.00000  Uiso   1.00
H29    H     0.13824   0.87537   0.95782   0.00000  Uiso   1.00
H30    H     0.35028   0.30745   0.98740   0.00000  Uiso   1.00
H31    H     0.41733   0.02600   0.96562   0.00000  Uiso   1.00
H32    H     0.29816   0.10394   0.93344   0.00000  Uiso   1.00
H33    H     0.65458   0.13783   0.97593   0.00000  Uiso   1.00
H34    H     0.28090   0.86851   0.98995   0.00000  Uiso   1.00
H35    H     0.19513   0.13953   0.89387   0.00000  Uiso   1.00
H36    H     0.94665   0.21095   0.98348   0.00000  Uiso   1.00
H37    H     0.15868   0.64304   0.01305   0.00000  Uiso   1.00
O38    O     0.21661   0.01597   0.85933   0.00000  Uiso   1.00
O39    O     0.20257   0.10966   0.97689   0.00000  Uiso   1.00
O40    O     0.16877   0.36456   0.01569   0.00000  Uiso   1.00
N41    N     0.35797   0.87221   0.87867   0.00000  Uiso   1.00
N42    N     0.06059   0.93900   0.96245   0.00000  Uiso   1.00
N43    N     0.32394   0.40805   0.99010   0.00000  Uiso   1.00
N44    N     0.25487   0.05279   0.89248   0.00000  Uiso   1.00
N45    N     0.95750   0.11958   0.97625   0.00000  Uiso   1.00
N46    N     0.22084   0.58862   0.00390   0.00000  Uiso   1.00
C47    C     0.41017   0.27616   0.44252   0.00000  Uiso   1.00
C48    C     0.49928   0.19115   0.42830   0.00000  Uiso   1.00
C49    C     0.51676   0.22025   0.40865   0.00000  Uiso   1.00
C50    C     0.60253   0.12982   0.39812   0.00000  Uiso   1.00
C51    C     0.73083   0.01533   0.37469   0.00000  Uiso   1.00
C52    C     0.30562   0.17273   0.45138   0.00000  Uiso   1.00
C53    C     0.16029   0.18635   0.45115   0.00000  Uiso   1.00
C54    C     0.08304   0.08042   0.46005   0.00000  Uiso   1.00
C55    C     0.91069   0.93738   0.47248   0.00000  Uiso   1.00
C56    C     0.50866   0.31906   0.45900   0.00000  Uiso   1.00
C57    C     0.53402   0.45572   0.46518   0.00000  Uiso   1.00
C58    C     0.62769   0.47298   0.48050   0.00000  Uiso   1.00
C59    C     0.77059   0.55715   0.50475   0.00000  Uiso   1.00
C60    C     0.53140   0.06380   0.45875   0.00000  Uiso   1.00
C61    C     0.56513   0.07581   0.43711   0.00000  Uiso   1.00
C62    C     0.65090   0.98531   0.42661   0.00000  Uiso   1.00
C63    C     0.66851   0.01427   0.40695   0.00000  Uiso   1.00
C64    C     0.37147   0.05739   0.46020   0.00000  Uiso   1.00
C65    C     0.29442   0.95141   0.46911   0.00000  Uiso   1.00
C66    C     0.14901   0.96486   0.46888   0.00000  Uiso   1.00
C67    C     0.57452   0.20372   0.46782   0.00000  Uiso   1.00
C68    C     0.66816   0.22077   0.48313   0.00000  Uiso   1.00
C69    C     0.69366   0.35743   0.48933   0.00000  Uiso   1.00
H70    H     0.35889   0.36595   0.43566   0.00000  Uiso   1.00
H71    H     0.46577   0.30952   0.40183   0.00000  Uiso   1.00
H72    H     0.10936   0.27563   0.44433   0.00000  Uiso   1.00
H73    H     0.48304   0.54495   0.45835   0.00000  Uiso   1.00
H74    H     0.61327   0.19605   0.36822   0.00000  Uiso   1.00
H75    H     0.86176   0.12463   0.45782   0.00000  Uiso   1.00
H76    H     0.64972   0.69255   0.48740   0.00000  Uiso   1.00
H77    H     0.58267   0.97400   0.46562   0.00000  Uiso   1.00
H78    H     0.70184   0.89606   0.43344   0.00000  Uiso   1.00
H79    H     0.34542   0.86217   0.47593   0.00000  Uiso   1.00
H80    H     0.71910   0.13149   0.48995   0.00000  Uiso   1.00
H81    H     0.80487   0.86047   0.39387   0.00000  Uiso   1.00
H82    H     0.05335   0.78905   0.48348   0.00000  Uiso   1.00
H83    H     0.84132   0.35696   0.51305   0.00000  Uiso   1.00
O84    O     0.78339   0.98403   0.35933   0.00000  Uiso   1.00
O85    O     0.79743   0.89034   0.47689   0.00000  Uiso   1.00
O86    O     0.83123   0.63544   0.51569   0.00000  Uiso   1.00
N87    N     0.64203   0.12779   0.37867   0.00000  Uiso   1.00
N88    N     0.93941   0.06100   0.46245   0.00000  Uiso   1.00
N89    N     0.67606   0.59195   0.49010   0.00000  Uiso   1.00
N90    N     0.74513   0.94721   0.39248   0.00000  Uiso   1.00
N91    N     0.04250   0.88042   0.47625   0.00000  Uiso   1.00
N92    N     0.77916   0.41138   0.50390   0.00000  Uiso   1.00
C93    C     0.27616   0.58983   0.19252   0.00000  Uiso   1.00
C94    C     0.19115   0.50072   0.17830   0.00000  Uiso   1.00
C95    C     0.22025   0.48324   0.15865   0.00000  Uiso   1.00
C96    C     0.12982   0.39747   0.14812   0.00000  Uiso   1.00
C97    C     0.01533   0.26917   0.12469   0.00000  Uiso   1.00
C98    C     0.17273   0.69438   0.20138   0.00000  Uiso   1.00
C99    C     0.18635   0.83971   0.20115   0.00000  Uiso   1.00
C100   C     0.08042   0.91696   0.21005   0.00000  Uiso   1.00
C101   C     0.93738   0.08931   0.22248   0.00000  Uiso   1.00
C102   C     0.31906   0.49134   0.20900   0.00000  Uiso   1.00
C103   C     0.45572   0.46598   0.21518   0.00000  Uiso   1.00
C104   C     0.47298   0.37231   0.23050   0.00000  Uiso   1.00
C105   C     0.55715   0.22941   0.25475   0.00000  Uiso   1.00
C106   C     0.06380   0.46860   0.20875   0.00000  Uiso   1.00
C107   C     0.07581   0.43487   0.18711   0.00000  Uiso   1.00
C108   C     0.98531   0.34910   0.17661   0.00000  Uiso   1.00
C109   C     0.01427   0.33149   0.15695   0.00000  Uiso   1.00
C110   C     0.05739   0.62853   0.21020   0.00000  Uiso   1.00
C111   C     0.95141   0.70558   0.21911   0.00000  Uiso   1.00
C112   C     0.96486   0.85099   0.21888   0.00000  Uiso   1.00
C113   C     0.20372   0.42548   0.21782   0.00000  Uiso   1.00
C114   C     0.22077   0.33184   0.23313   0.00000  Uiso   1.00
C115   C     0.35743   0.30634   0.23933   0.00000  Uiso   1.00
H116   H     0.36595   0.64111   0.18566   0.00000  Uiso   1.00
H117   H     0.30952   0.53423   0.15183   0.00000  Uiso   1.00
H118   H     0.27563   0.89064   0.19433   0.00000  Uiso   1.00
H119   H     0.54495   0.51696   0.20835   0.00000  Uiso   1.00
H120   H     0.19605   0.38673   0.11822   0.00000  Uiso   1.00
H121   H     0.12463   0.13824   0.20782   0.00000  Uiso   1.00
H122   H     0.69255   0.35028   0.23740   0.00000  Uiso   1.00
H123   H     0.97400   0.41733   0.21562   0.00000  Uiso   1.00
H124   H     0.89606   0.29816   0.18344   0.00000  Uiso   1.00
H125   H     0.86217   0.65458   0.22593   0.00000  Uiso   1.00
H126   H     0.13149   0.28090   0.23995   0.00000  Uiso   1.00
H127   H     0.86047   0.19513   0.14387   0.00000  Uiso   1.00
H128   H     0.78905   0.94665   0.23348   0.00000  Uiso   1.00
H129   H     0.35696   0.15868   0.26305   0.00000  Uiso   1.00
O130   O     0.98403   0.21661   0.10933   0.00000  Uiso   1.00
O131   O     0.89034   0.20257   0.22689   0.00000  Uiso   1.00
O132   O     0.63544   0.16877   0.26569   0.00000  Uiso   1.00
N133   N     0.12779   0.35797   0.12867   0.00000  Uiso   1.00
N134   N     0.06100   0.06059   0.21245   0.00000  Uiso   1.00
N135   N     0.59195   0.32394   0.24010   0.00000  Uiso   1.00
N136   N     0.94721   0.25487   0.14248   0.00000  Uiso   1.00
N137   N     0.88042   0.95750   0.22625   0.00000  Uiso   1.00
N138   N     0.41138   0.22084   0.25390   0.00000  Uiso   1.00
C139   C     0.72384   0.41017   0.69252   0.00000  Uiso   1.00
C140   C     0.80885   0.49928   0.67830   0.00000  Uiso   1.00
C141   C     0.77975   0.51676   0.65865   0.00000  Uiso   1.00
C142   C     0.87018   0.60253   0.64812   0.00000  Uiso   1.00
C143   C     0.98467   0.73083   0.62469   0.00000  Uiso   1.00
C144   C     0.82727   0.30562   0.70138   0.00000  Uiso   1.00
C145   C     0.81365   0.16029   0.70115   0.00000  Uiso   1.00
C146   C     0.91958   0.08304   0.71005   0.00000  Uiso   1.00
C147   C     0.06262   0.91069   0.72248   0.00000  Uiso   1.00
C148   C     0.68094   0.50866   0.70900   0.00000  Uiso   1.00
C149   C     0.54428   0.53402   0.71518   0.00000  Uiso   1.00
C150   C     0.52702   0.62769   0.73050   0.00000  Uiso   1.00
C151   C     0.44285   0.77059   0.75475   0.00000  Uiso   1.00
C152   C     0.93620   0.53140   0.70875   0.00000  Uiso   1.00
C153   C     0.92419   0.56513   0.68711   0.00000  Uiso   1.00
C154   C     0.01469   0.65090   0.67661   0.00000  Uiso   1.00
C155   C     0.98573   0.66851   0.65695   0.00000  Uiso   1.00
C156   C     0.94261   0.37147   0.71020   0.00000  Uiso   1.00
C157   C     0.04859   0.29442   0.71911   0.00000  Uiso   1.00
C158   C     0.03514   0.14901   0.71888   0.00000  Uiso   1.00
C159   C     0.79628   0.57452   0.71782   0.00000  Uiso   1.00
C160   C     0.77923   0.66816   0.73313   0.00000  Uiso   1.00
C161   C     0.64257   0.69366   0.73933   0.00000  Uiso   1.00
H162   H     0.63405   0.35889   0.68566   0.00000  Uiso   1.00
H163   H     0.69048   0.46577   0.65183   0.00000  Uiso   1.00
H164   H     0.72437   0.10936   0.69433   0.00000  Uiso   1.00
H165   H     0.45505   0.48304   0.70835   0.00000  Uiso   1.00
H166   H     0.80395   0.61327   0.61822   0.00000  Uiso   1.00
H167   H     0.87537   0.86176   0.70782   0.00000  Uiso   1.00
H168   H     0.30745   0.64972   0.73740   0.00000  Uiso   1.00
H169   H     0.02600   0.58267   0.71562   0.00000  Uiso   1.00
H170   H     0.10394   0.70184   0.68344   0.00000  Uiso   1.00
H171   H     0.13783   0.34542   0.72593   0.00000  Uiso   1.00
H172   H     0.86851   0.71910   0.73995   0.00000  Uiso   1.00
H173   H     0.13953   0.80487   0.64387   0.00000  Uiso   1.00
H174   H     0.21095   0.05335   0.73348   0.00000  Uiso   1.00
H175   H     0.64304   0.84132   0.76305   0.00000  Uiso   1.00
O176   O     0.01597   0.78339   0.60933   0.00000  Uiso   1.00
O177   O     0.10966   0.79743   0.72689   0.00000  Uiso   1.00
O178   O     0.36456   0.83123   0.76569   0.00000  Uiso   1.00
N179   N     0.87221   0.64203   0.62867   0.00000  Uiso   1.00
N180   N     0.93900   0.93941   0.71245   0.00000  Uiso   1.00
N181   N     0.40805   0.67606   0.74010   0.00000  Uiso   1.00
N182   N     0.05279   0.74513   0.64248   0.00000  Uiso   1.00
N183   N     0.11958   0.04250   0.72625   0.00000  Uiso   1.00
N184   N     0.58862   0.77916   0.75390   0.00000  Uiso   1.00
C185   C     0.41017   0.72384   0.05748   0.00000  Uiso   1.00
C186   C     0.49928   0.80885   0.07170   0.00000  Uiso   1.00
C187   C     0.51676   0.77975   0.09135   0.00000  Uiso   1.00
C188   C     0.60253   0.87018   0.10188   0.00000  Uiso   1.00
C189   C     0.73083   0.98467   0.12531   0.00000  Uiso   1.00
C190   C     0.30562   0.82727   0.04862   0.00000  Uiso   1.00
C191   C     0.16029   0.81365   0.04885   0.00000  Uiso   1.00
C192   C     0.08304   0.91958   0.03995   0.00000  Uiso   1.00
C193   C     0.91069   0.06262   0.02752   0.00000  Uiso   1.00
C194   C     0.50866   0.68094   0.04100   0.00000  Uiso   1.00
C195   C     0.53402   0.54428   0.03482   0.00000  Uiso   1.00
C196   C     0.62769   0.52702   0.01950   0.00000  Uiso   1.00
C197   C     0.77059   0.44285   0.99525   0.00000  Uiso   1.00
C198   C     0.53140   0.93620   0.04125   0.00000  Uiso   1.00
C199   C     0.56513   0.92419   0.06289   0.00000  Uiso   1.00
C200   C     0.65090   0.01469   0.07339   0.00000  Uiso   1.00
C201   C     0.66851   0.98573   0.09305   0.00000  Uiso   1.00
C202   C     0.37147   0.94261   0.03980   0.00000  Uiso   1.00
C203   C     0.29442   0.04859   0.03089   0.00000  Uiso   1.00
C204   C     0.14901   0.03514   0.03112   0.00000  Uiso   1.00
C205   C     0.57452   0.79628   0.03218   0.00000  Uiso   1.00
C206   C     0.66816   0.77923   0.01687   0.00000  Uiso   1.00
C207   C     0.69366   0.64257   0.01067   0.00000  Uiso   1.00
H208   H     0.35889   0.63405   0.06434   0.00000  Uiso   1.00
H209   H     0.46577   0.69048   0.09817   0.00000  Uiso   1.00
H210   H     0.10936   0.72437   0.05567   0.00000  Uiso   1.00
H211   H     0.48304   0.45505   0.04165   0.00000  Uiso   1.00
H212   H     0.61327   0.80395   0.13178   0.00000  Uiso   1.00
H213   H     0.86176   0.87537   0.04218   0.00000  Uiso   1.00
H214   H     0.64972   0.30745   0.01260   0.00000  Uiso   1.00
H215   H     0.58267   0.02600   0.03438   0.00000  Uiso   1.00
H216   H     0.70184   0.10394   0.06656   0.00000  Uiso   1.00
H217   H     0.34542   0.13783   0.02407   0.00000  Uiso   1.00
H218   H     0.71910   0.86851   0.01005   0.00000  Uiso   1.00
H219   H     0.80487   0.13953   0.10613   0.00000  Uiso   1.00
H220   H     0.05335   0.21095   0.01652   0.00000  Uiso   1.00
H221   H     0.84132   0.64304   0.98695   0.00000  Uiso   1.00
O222   O     0.78339   0.01597   0.14067   0.00000  Uiso   1.00
O223   O     0.79743   0.10966   0.02311   0.00000  Uiso   1.00
O224   O     0.83123   0.36456   0.98431   0.00000  Uiso   1.00
N225   N     0.64203   0.87221   0.12133   0.00000  Uiso   1.00
N226   N     0.93941   0.93900   0.03755   0.00000  Uiso   1.00
N227   N     0.67606   0.40805   0.00990   0.00000  Uiso   1.00
N228   N     0.74513   0.05279   0.10752   0.00000  Uiso   1.00
N229   N     0.04250   0.11958   0.02375   0.00000  Uiso   1.00
N230   N     0.77916   0.58862   0.99610   0.00000  Uiso   1.00
C231   C     0.58983   0.27616   0.55748   0.00000  Uiso   1.00
C232   C     0.50072   0.19115   0.57170   0.00000  Uiso   1.00
C233   C     0.48324   0.22025   0.59135   0.00000  Uiso   1.00
C234   C     0.39747   0.12982   0.60188   0.00000  Uiso   1.00
C235   C     0.26917   0.01533   0.62531   0.00000  Uiso   1.00
C236   C     0.69438   0.17273   0.54862   0.00000  Uiso   1.00
C237   C     0.83971   0.18635   0.54885   0.00000  Uiso   1.00
C238   C     0.91696   0.08042   0.53995   0.00000  Uiso   1.00
C239   C     0.08931   0.93738   0.52752   0.00000  Uiso   1.00
C240   C     0.49134   0.31906   0.54100   0.00000  Uiso   1.00
C241   C     0.46598   0.45572   0.53482   0.00000  Uiso   1.00
C242   C     0.37231   0.47298   0.51950   0.00000  Uiso   1.00
C243   C     0.22941   0.55715   0.49525   0.00000  Uiso   1.00
C244   C     0.46860   0.06380   0.54125   0.00000  Uiso   1.00
C245   C     0.43487   0.07581   0.56289   0.00000  Uiso   1.00
C246   C     0.34910   0.98531   0.57339   0.00000  Uiso   1.00
C247   C     0.33149   0.01427   0.59305   0.00000  Uiso   1.00
C248   C     0.62853   0.05739   0.53980   0.00000  Uiso   1.00
C249   C     0.70558   0.95141   0.53089   0.00000  Uiso   1.00
C250   C     0.85099   0.96486   0.53112   0.00000  Uiso   1.00
C251   C     0.42548   0.20372   0.53218   0.00000  Uiso   1.00
C252   C     0.33184   0.22077   0.51687   0.00000  Uiso   1.00
C253   C     0.30634   0.35743   0.51067   0.00000  Uiso   1.00
H254   H     0.64111   0.36595   0.56434   0.00000  Uiso   1.00
H255   H     0.53423   0.30952   0.59817   0.00000  Uiso   1.00
H256   H     0.89064   0.27563   0.55567   0.00000  Uiso   1.00
H257   H     0.51696   0.54495   0.54165   0.00000  Uiso   1.00
H258   H     0.38673   0.19605   0.63178   0.00000  Uiso   1.00
H259   H     0.13824   0.12463   0.54218   0.00000  Uiso   1.00
H260   H     0.35028   0.69255   0.51260   0.00000  Uiso   1.00
H261   H     0.41733   0.97400   0.53438   0.00000  Uiso   1.00
H262   H     0.29816   0.89606   0.56656   0.00000  Uiso   1.00
H263   H     0.65458   0.86217   0.52407   0.00000  Uiso   1.00
H264   H     0.28090   0.13149   0.51005   0.00000  Uiso   1.00
H265   H     0.19513   0.86047   0.60613   0.00000  Uiso   1.00
H266   H     0.94665   0.78905   0.51652   0.00000  Uiso   1.00
H267   H     0.15868   0.35696   0.48695   0.00000  Uiso   1.00
O268   O     0.21661   0.98403   0.64067   0.00000  Uiso   1.00
O269   O     0.20257   0.89034   0.52311   0.00000  Uiso   1.00
O270   O     0.16877   0.63544   0.48431   0.00000  Uiso   1.00
N271   N     0.35797   0.12779   0.62133   0.00000  Uiso   1.00
N272   N     0.06059   0.06100   0.53755   0.00000  Uiso   1.00
N273   N     0.32394   0.59195   0.50990   0.00000  Uiso   1.00
N274   N     0.25487   0.94721   0.60752   0.00000  Uiso   1.00
N275   N     0.95750   0.88042   0.52375   0.00000  Uiso   1.00
N276   N     0.22084   0.41138   0.49610   0.00000  Uiso   1.00
C277   C     0.72384   0.58983   0.80748   0.00000  Uiso   1.00
C278   C     0.80885   0.50072   0.82170   0.00000  Uiso   1.00
C279   C     0.77975   0.48324   0.84135   0.00000  Uiso   1.00
C280   C     0.87018   0.39747   0.85188   0.00000  Uiso   1.00
C281   C     0.98467   0.26917   0.87531   0.00000  Uiso   1.00
C282   C     0.82727   0.69438   0.79862   0.00000  Uiso   1.00
C283   C     0.81365   0.83971   0.79885   0.00000  Uiso   1.00
C284   C     0.91958   0.91696   0.78995   0.00000  Uiso   1.00
C285   C     0.06262   0.08931   0.77752   0.00000  Uiso   1.00
C286   C     0.68094   0.49134   0.79100   0.00000  Uiso   1.00
C287   C     0.54428   0.46598   0.78482   0.00000  Uiso   1.00
C288   C     0.52702   0.37231   0.76950   0.00000  Uiso   1.00
C289   C     0.44285   0.22941   0.74525   0.00000  Uiso   1.00
C290   C     0.93620   0.46860   0.79125   0.00000  Uiso   1.00
C291   C     0.92419   0.43487   0.81289   0.00000  Uiso   1.00
C292   C     0.01469   0.34910   0.82339   0.00000  Uiso   1.00
C293   C     0.98573   0.33149   0.84305   0.00000  Uiso   1.00
C294   C     0.94261   0.62853   0.78980   0.00000  Uiso   1.00
C295   C     0.04859   0.70558   0.78089   0.00000  Uiso   1.00
C296   C     0.03514   0.85099   0.78112   0.00000  Uiso   1.00
C297   C     0.79628   0.42548   0.78218   0.00000  Uiso   1.00
C298   C     0.77923   0.33184   0.76687   0.00000  Uiso   1.00
C299   C     0.64257   0.30634   0.76067   0.00000  Uiso   1.00
H300   H     0.63405   0.64111   0.81434   0.00000  Uiso   1.00
H301   H     0.69048   0.53423   0.84817   0.00000  Uiso   1.00
H302   H     0.72437   0.89064   0.80567   0.00000  Uiso   1.00
H303   H     0.45505   0.51696   0.79165   0.00000  Uiso   1.00
H304   H     0.80395   0.38673   0.88178   0.00000  Uiso   1.00
H305   H     0.87537   0.13824   0.79218   0.00000  Uiso   1.00
H306   H     0.30745   0.35028   0.76260   0.00000  Uiso   1.00
H307   H     0.02600   0.41733   0.78438   0.00000  Uiso   1.00
H308   H     0.10394   0.29816   0.81656   0.00000  Uiso   1.00
H309   H     0.13783   0.65458   0.77407   0.00000  Uiso   1.00
H310   H     0.86851   0.28090   0.76005   0.00000  Uiso   1.00
H311   H     0.13953   0.19513   0.85613   0.00000  Uiso   1.00
H312   H     0.21095   0.94665   0.76652   0.00000  Uiso   1.00
H313   H     0.64304   0.15868   0.73695   0.00000  Uiso   1.00
O314   O     0.01597   0.21661   0.89067   0.00000  Uiso   1.00
O315   O     0.10966   0.20257   0.77311   0.00000  Uiso   1.00
O316   O     0.36456   0.16877   0.73431   0.00000  Uiso   1.00
N317   N     0.87221   0.35797   0.87133   0.00000  Uiso   1.00
N318   N     0.93900   0.06059   0.78755   0.00000  Uiso   1.00
N319   N     0.40805   0.32394   0.75990   0.00000  Uiso   1.00
N320   N     0.05279   0.25487   0.85752   0.00000  Uiso   1.00
N321   N     0.11958   0.95750   0.77375   0.00000  Uiso   1.00
N322   N     0.58862   0.22084   0.74610   0.00000  Uiso   1.00
C323   C     0.27616   0.41017   0.30748   0.00000  Uiso   1.00
C324   C     0.19115   0.49928   0.32170   0.00000  Uiso   1.00
C325   C     0.22025   0.51676   0.34135   0.00000  Uiso   1.00
C326   C     0.12982   0.60253   0.35188   0.00000  Uiso   1.00
C327   C     0.01533   0.73083   0.37531   0.00000  Uiso   1.00
C328   C     0.17273   0.30562   0.29862   0.00000  Uiso   1.00
C329   C     0.18635   0.16029   0.29885   0.00000  Uiso   1.00
C330   C     0.08042   0.08304   0.28995   0.00000  Uiso   1.00
C331   C     0.93738   0.91069   0.27752   0.00000  Uiso   1.00
C332   C     0.31906   0.50866   0.29100   0.00000  Uiso   1.00
C333   C     0.45572   0.53402   0.28482   0.00000  Uiso   1.00
C334   C     0.47298   0.62769   0.26950   0.00000  Uiso   1.00
C335   C     0.55715   0.77059   0.24525   0.00000  Uiso   1.00
C336   C     0.06380   0.53140   0.29125   0.00000  Uiso   1.00
C337   C     0.07581   0.56513   0.31289   0.00000  Uiso   1.00
C338   C     0.98531   0.65090   0.32339   0.00000  Uiso   1.00
C339   C     0.01427   0.66851   0.34305   0.00000  Uiso   1.00
C340   C     0.05739   0.37147   0.28980   0.00000  Uiso   1.00
C341   C     0.95141   0.29442   0.28089   0.00000  Uiso   1.00
C342   C     0.96486   0.14901   0.28112   0.00000  Uiso   1.00
C343   C     0.20372   0.57452   0.28218   0.00000  Uiso   1.00
C344   C     0.22077   0.66816   0.26687   0.00000  Uiso   1.00
C345   C     0.35743   0.69366   0.26067   0.00000  Uiso   1.00
H346   H     0.36595   0.35889   0.31434   0.00000  Uiso   1.00
H347   H     0.30952   0.46577   0.34817   0.00000  Uiso   1.00
H348   H     0.27563   0.10936   0.30567   0.00000  Uiso   1.00
H349   H     0.54495   0.48304   0.29165   0.00000  Uiso   1.00
H350   H     0.19605   0.61327   0.38178   0.00000  Uiso   1.00
H351   H     0.12463   0.86176   0.29218   0.00000  Uiso   1.00
H352   H     0.69255   0.64972   0.26260   0.00000  Uiso   1.00
H353   H     0.97400   0.58267   0.28438   0.00000  Uiso   1.00
H354   H     0.89606   0.70184   0.31656   0.00000  Uiso   1.00
H355   H     0.86217   0.34542   0.27407   0.00000  Uiso   1.00
H356   H     0.13149   0.71910   0.26005   0.00000  Uiso   1.00
H357   H     0.86047   0.80487   0.35613   0.00000  Uiso   1.00
H358   H     0.78905   0.05335   0.26652   0.00000  Uiso   1.00
H359   H     0.35696   0.84132   0.23695   0.00000  Uiso   1.00
O360   O     0.98403   0.78339   0.39067   0.00000  Uiso   1.00
O361   O     0.89034   0.79743   0.27311   0.00000  Uiso   1.00
O362   O     0.63544   0.83123   0.23431   0.00000  Uiso   1.00
N363   N     0.12779   0.64203   0.37133   0.00000  Uiso   1.00
N364   N     0.06100   0.93941   0.28755   0.00000  Uiso   1.00
N365   N     0.59195   0.67606   0.25990   0.00000  Uiso   1.00
N366   N     0.94721   0.74513   0.35752   0.00000  Uiso   1.00
N367   N     0.88042   0.04250   0.27375   0.00000  Uiso   1.00
N368   N     0.41138   0.77916   0.24610   0.00000  Uiso   1.00
