data_job_05062
_audit_creation_date              2018-12-19
_audit_creation_method            'Materials Studio'
_symmetry_space_group_name_H-M    'P1'
_symmetry_Int_Tables_number       1
_symmetry_cell_setting            triclinic
loop_
_symmetry_equiv_pos_as_xyz
  x,y,z
_cell_length_a                    27.9511
_cell_length_b                    12.3687
_cell_length_c                    23.0420
_cell_angle_alpha                 90.0000
_cell_angle_beta                  139.1726
_cell_angle_gamma                 90.0000
loop_
_atom_site_label
_atom_site_type_symbol
_atom_site_fract_x
_atom_site_fract_y
_atom_site_fract_z
_atom_site_U_iso_or_equiv
_atom_site_adp_type
_atom_site_occupancy
C1     C     0.14201   0.93696   0.44848   0.00000  Uiso   1.00
C2     C     0.14178   0.02249   0.49593   0.00000  Uiso   1.00
C3     C     0.17628   0.12232   0.52493   0.00000  Uiso   1.00
C4     C     0.16957   0.18910   0.56691   0.00000  Uiso   1.00
C5     C     0.17523   0.32678   0.63866   0.00000  Uiso   1.00
C6     C     0.06185   0.91370   0.36129   0.00000  Uiso   1.00
C7     C     0.02916   0.92205   0.27710   0.00000  Uiso   1.00
C8     C     0.95517   0.89722   0.20574   0.00000  Uiso   1.00
C9     C     0.83675   0.86593   0.06847   0.00000  Uiso   1.00
C10    C     0.17218   0.83432   0.50394   0.00000  Uiso   1.00
C11    C     0.23224   0.77590   0.53967   0.00000  Uiso   1.00
C12    C     0.25113   0.68423   0.58840   0.00000  Uiso   1.00
C13    C     0.30403   0.52969   0.67261   0.00000  Uiso   1.00
C14    C     0.06874   0.87801   0.47147   0.00000  Uiso   1.00
C15    C     0.10198   0.99046   0.50842   0.00000  Uiso   1.00
C16    C     0.09522   0.05710   0.55037   0.00000  Uiso   1.00
C17    C     0.12971   0.15702   0.57943   0.00000  Uiso   1.00
C18    C     0.02206   0.88168   0.37378   0.00000  Uiso   1.00
C19    C     0.94810   0.85683   0.30253   0.00000  Uiso   1.00
C20    C     0.91530   0.86515   0.21825   0.00000  Uiso   1.00
C21    C     0.13239   0.80229   0.51643   0.00000  Uiso   1.00
C22    C     0.15118   0.71069   0.56511   0.00000  Uiso   1.00
C23    C     0.21126   0.65215   0.60091   0.00000  Uiso   1.00
H24    H     0.17299   0.96189   0.43875   0.00000  Uiso   1.00
H25    H     0.20707   0.14708   0.51525   0.00000  Uiso   1.00
H26    H     0.05997   0.94682   0.26745   0.00000  Uiso   1.00
H27    H     0.26302   0.80070   0.52999   0.00000  Uiso   1.00
H28    H     0.22728   0.33828   0.60554   0.00000  Uiso   1.00
H29    H     0.91712   0.91600   0.08306   0.00000  Uiso   1.00
H30    H     0.34530   0.60788   0.63666   0.00000  Uiso   1.00
H31    H     0.03776   0.85308   0.48119   0.00000  Uiso   1.00
H32    H     0.06442   0.03230   0.56002   0.00000  Uiso   1.00
H33    H     0.91732   0.83205   0.31222   0.00000  Uiso   1.00
H34    H     0.12038   0.68593   0.57476   0.00000  Uiso   1.00
H35    H     0.11150   0.24513   0.64188   0.00000  Uiso   1.00
H36    H     0.80134   0.82284   0.11939   0.00000  Uiso   1.00
H37    H     0.22952   0.51473   0.67300   0.00000  Uiso   1.00
O38    O     0.18934   0.41158   0.67478   0.00000  Uiso   1.00
O39    O     0.78243   0.85754   0.98930   0.00000  Uiso   1.00
O40    O     0.34420   0.45330   0.71562   0.00000  Uiso   1.00
N41    N     0.19638   0.29176   0.60329   0.00000  Uiso   1.00
N42    N     0.90640   0.89696   0.11480   0.00000  Uiso   1.00
N43    N     0.30670   0.60888   0.63235   0.00000  Uiso   1.00
N44    N     0.13408   0.24163   0.62285   0.00000  Uiso   1.00
N45    N     0.84410   0.84683   0.13435   0.00000  Uiso   1.00
N46    N     0.24440   0.55876   0.65190   0.00000  Uiso   1.00
C47    C     0.64178   0.58102   0.45368   0.00000  Uiso   1.00
C48    C     0.64037   0.66729   0.49966   0.00000  Uiso   1.00
C49    C     0.67405   0.76771   0.52764   0.00000  Uiso   1.00
C50    C     0.66632   0.83512   0.56833   0.00000  Uiso   1.00
C51    C     0.67019   0.97396   0.63782   0.00000  Uiso   1.00
C52    C     0.56196   0.55605   0.36645   0.00000  Uiso   1.00
C53    C     0.52971   0.56292   0.28243   0.00000  Uiso   1.00
C54    C     0.45597   0.53668   0.21099   0.00000  Uiso   1.00
C55    C     0.33811   0.50274   0.07367   0.00000  Uiso   1.00
C56    C     0.67255   0.47938   0.51036   0.00000  Uiso   1.00
C57    C     0.73329   0.42178   0.54733   0.00000  Uiso   1.00
C58    C     0.75265   0.33097   0.59703   0.00000  Uiso   1.00
C59    C     0.80651   0.17800   0.68315   0.00000  Uiso   1.00
C60    C     0.56816   0.52216   0.47619   0.00000  Uiso   1.00
C61    C     0.60038   0.63532   0.51188   0.00000  Uiso   1.00
C62    C     0.59260   0.70259   0.55254   0.00000  Uiso   1.00
C63    C     0.62627   0.80310   0.58058   0.00000  Uiso   1.00
C64    C     0.52197   0.52408   0.37867   0.00000  Uiso   1.00
C65    C     0.44826   0.49781   0.30733   0.00000  Uiso   1.00
C66    C     0.41591   0.50465   0.22323   0.00000  Uiso   1.00
C67    C     0.63257   0.44741   0.52259   0.00000  Uiso   1.00
C68    C     0.65184   0.35667   0.57223   0.00000  Uiso   1.00
C69    C     0.71259   0.29894   0.60927   0.00000  Uiso   1.00
H70    H     0.67291   0.60590   0.44416   0.00000  Uiso   1.00
H71    H     0.70499   0.79242   0.51816   0.00000  Uiso   1.00
H72    H     0.56067   0.58766   0.27300   0.00000  Uiso   1.00
H73    H     0.76422   0.44654   0.53785   0.00000  Uiso   1.00
H74    H     0.72290   0.98513   0.60557   0.00000  Uiso   1.00
H75    H     0.41860   0.55334   0.08862   0.00000  Uiso   1.00
H76    H     0.84782   0.25576   0.64712   0.00000  Uiso   1.00
H77    H     0.53703   0.49727   0.48570   0.00000  Uiso   1.00
H78    H     0.56165   0.67783   0.56199   0.00000  Uiso   1.00
H79    H     0.41734   0.47307   0.31682   0.00000  Uiso   1.00
H80    H     0.62088   0.33195   0.58168   0.00000  Uiso   1.00
H81    H     0.60656   0.89213   0.64114   0.00000  Uiso   1.00
H82    H     0.30226   0.46033   0.12419   0.00000  Uiso   1.00
H83    H     0.73148   0.16276   0.68269   0.00000  Uiso   1.00
O84    O     0.68336   0.05938   0.67276   0.00000  Uiso   1.00
O85    O     0.28414   0.49287   0.99455   0.00000  Uiso   1.00
O86    O     0.84726   0.10247   0.72729   0.00000  Uiso   1.00
N87    N     0.69215   0.93846   0.60349   0.00000  Uiso   1.00
N88    N     0.40765   0.53477   0.12017   0.00000  Uiso   1.00
N89    N     0.80892   0.25655   0.64230   0.00000  Uiso   1.00
N90    N     0.62955   0.88841   0.62263   0.00000  Uiso   1.00
N91    N     0.34505   0.48473   0.13931   0.00000  Uiso   1.00
N92    N     0.74632   0.20650   0.66144   0.00000  Uiso   1.00
C93    C     0.85799   0.43696   0.05152   0.00000  Uiso   1.00
C94    C     0.85822   0.52249   0.00407   0.00000  Uiso   1.00
C95    C     0.82372   0.62232   0.97507   0.00000  Uiso   1.00
C96    C     0.83043   0.68910   0.93309   0.00000  Uiso   1.00
C97    C     0.82477   0.82678   0.86134   0.00000  Uiso   1.00
C98    C     0.93815   0.41370   0.13871   0.00000  Uiso   1.00
C99    C     0.97084   0.42205   0.22290   0.00000  Uiso   1.00
C100   C     0.04483   0.39722   0.29426   0.00000  Uiso   1.00
C101   C     0.16325   0.36593   0.43153   0.00000  Uiso   1.00
C102   C     0.82782   0.33432   0.99606   0.00000  Uiso   1.00
C103   C     0.76776   0.27590   0.96033   0.00000  Uiso   1.00
C104   C     0.74887   0.18423   0.91160   0.00000  Uiso   1.00
C105   C     0.69597   0.02969   0.82739   0.00000  Uiso   1.00
C106   C     0.93126   0.37801   0.02853   0.00000  Uiso   1.00
C107   C     0.89802   0.49046   0.99158   0.00000  Uiso   1.00
C108   C     0.90478   0.55710   0.94963   0.00000  Uiso   1.00
C109   C     0.87029   0.65702   0.92057   0.00000  Uiso   1.00
C110   C     0.97794   0.38168   0.12622   0.00000  Uiso   1.00
C111   C     0.05190   0.35683   0.19747   0.00000  Uiso   1.00
C112   C     0.08470   0.36515   0.28175   0.00000  Uiso   1.00
C113   C     0.86761   0.30229   0.98357   0.00000  Uiso   1.00
C114   C     0.84882   0.21069   0.93489   0.00000  Uiso   1.00
C115   C     0.78874   0.15215   0.89909   0.00000  Uiso   1.00
H116   H     0.82701   0.46189   0.06125   0.00000  Uiso   1.00
H117   H     0.79293   0.64708   0.98475   0.00000  Uiso   1.00
H118   H     0.94003   0.44682   0.23255   0.00000  Uiso   1.00
H119   H     0.73698   0.30070   0.97001   0.00000  Uiso   1.00
H120   H     0.77272   0.83828   0.89446   0.00000  Uiso   1.00
H121   H     0.08288   0.41600   0.41694   0.00000  Uiso   1.00
H122   H     0.65470   0.10788   0.86334   0.00000  Uiso   1.00
H123   H     0.96224   0.35308   0.01881   0.00000  Uiso   1.00
H124   H     0.93558   0.53230   0.93998   0.00000  Uiso   1.00
H125   H     0.08268   0.33205   0.18778   0.00000  Uiso   1.00
H126   H     0.87962   0.18593   0.92524   0.00000  Uiso   1.00
H127   H     0.88850   0.74513   0.85812   0.00000  Uiso   1.00
H128   H     0.19866   0.32284   0.38061   0.00000  Uiso   1.00
H129   H     0.77048   0.01473   0.82700   0.00000  Uiso   1.00
O130   O     0.81066   0.91158   0.82522   0.00000  Uiso   1.00
O131   O     0.21757   0.35754   0.51070   0.00000  Uiso   1.00
O132   O     0.65580   0.95330   0.78438   0.00000  Uiso   1.00
N133   N     0.80362   0.79176   0.89671   0.00000  Uiso   1.00
N134   N     0.09360   0.39696   0.38520   0.00000  Uiso   1.00
N135   N     0.69330   0.10888   0.86765   0.00000  Uiso   1.00
N136   N     0.86592   0.74163   0.87715   0.00000  Uiso   1.00
N137   N     0.15590   0.34683   0.36565   0.00000  Uiso   1.00
N138   N     0.75560   0.05876   0.84810   0.00000  Uiso   1.00
C139   C     0.35822   0.08102   0.04632   0.00000  Uiso   1.00
C140   C     0.35963   0.16729   0.00034   0.00000  Uiso   1.00
C141   C     0.32595   0.26771   0.97236   0.00000  Uiso   1.00
C142   C     0.33368   0.33512   0.93167   0.00000  Uiso   1.00
C143   C     0.32981   0.47396   0.86218   0.00000  Uiso   1.00
C144   C     0.43804   0.05605   0.13355   0.00000  Uiso   1.00
C145   C     0.47029   0.06292   0.21757   0.00000  Uiso   1.00
C146   C     0.54403   0.03668   0.28901   0.00000  Uiso   1.00
C147   C     0.66189   0.00274   0.42633   0.00000  Uiso   1.00
C148   C     0.32745   0.97938   0.98964   0.00000  Uiso   1.00
C149   C     0.26671   0.92178   0.95267   0.00000  Uiso   1.00
C150   C     0.24735   0.83097   0.90297   0.00000  Uiso   1.00
C151   C     0.19349   0.67800   0.81685   0.00000  Uiso   1.00
C152   C     0.43184   0.02216   0.02381   0.00000  Uiso   1.00
C153   C     0.39962   0.13532   0.98812   0.00000  Uiso   1.00
C154   C     0.40740   0.20259   0.94746   0.00000  Uiso   1.00
C155   C     0.37373   0.30310   0.91942   0.00000  Uiso   1.00
C156   C     0.47803   0.02408   0.12133   0.00000  Uiso   1.00
C157   C     0.55174   0.99781   0.19267   0.00000  Uiso   1.00
C158   C     0.58409   0.00465   0.27677   0.00000  Uiso   1.00
C159   C     0.36743   0.94741   0.97741   0.00000  Uiso   1.00
C160   C     0.34816   0.85667   0.92777   0.00000  Uiso   1.00
C161   C     0.28741   0.79894   0.89073   0.00000  Uiso   1.00
H162   H     0.32709   0.10590   0.05584   0.00000  Uiso   1.00
H163   H     0.29501   0.29242   0.98184   0.00000  Uiso   1.00
H164   H     0.43933   0.08766   0.22700   0.00000  Uiso   1.00
H165   H     0.23578   0.94654   0.96215   0.00000  Uiso   1.00
H166   H     0.27710   0.48513   0.89443   0.00000  Uiso   1.00
H167   H     0.58140   0.05334   0.41138   0.00000  Uiso   1.00
H168   H     0.15218   0.75576   0.85288   0.00000  Uiso   1.00
H169   H     0.46297   0.99727   0.01430   0.00000  Uiso   1.00
H170   H     0.43835   0.17783   0.93801   0.00000  Uiso   1.00
H171   H     0.58266   0.97307   0.18318   0.00000  Uiso   1.00
H172   H     0.37912   0.83195   0.91832   0.00000  Uiso   1.00
H173   H     0.39344   0.39213   0.85886   0.00000  Uiso   1.00
H174   H     0.69774   0.96033   0.37581   0.00000  Uiso   1.00
H175   H     0.26852   0.66276   0.81731   0.00000  Uiso   1.00
O176   O     0.31664   0.55938   0.82724   0.00000  Uiso   1.00
O177   O     0.71586   0.99287   0.50545   0.00000  Uiso   1.00
O178   O     0.15274   0.60247   0.77271   0.00000  Uiso   1.00
N179   N     0.30785   0.43846   0.89651   0.00000  Uiso   1.00
N180   N     0.59235   0.03477   0.37983   0.00000  Uiso   1.00
N181   N     0.19108   0.75655   0.85770   0.00000  Uiso   1.00
N182   N     0.37045   0.38841   0.87737   0.00000  Uiso   1.00
N183   N     0.65495   0.98473   0.36069   0.00000  Uiso   1.00
N184   N     0.25368   0.70650   0.83856   0.00000  Uiso   1.00
C185   C     0.85799   0.06304   0.55152   0.00000  Uiso   1.00
C186   C     0.85822   0.97751   0.50407   0.00000  Uiso   1.00
C187   C     0.82372   0.87768   0.47507   0.00000  Uiso   1.00
C188   C     0.83043   0.81090   0.43309   0.00000  Uiso   1.00
C189   C     0.82477   0.67322   0.36134   0.00000  Uiso   1.00
C190   C     0.93815   0.08630   0.63871   0.00000  Uiso   1.00
C191   C     0.97084   0.07795   0.72290   0.00000  Uiso   1.00
C192   C     0.04483   0.10278   0.79426   0.00000  Uiso   1.00
C193   C     0.16325   0.13407   0.93153   0.00000  Uiso   1.00
C194   C     0.82782   0.16568   0.49606   0.00000  Uiso   1.00
C195   C     0.76776   0.22410   0.46033   0.00000  Uiso   1.00
C196   C     0.74887   0.31577   0.41160   0.00000  Uiso   1.00
C197   C     0.69597   0.47031   0.32739   0.00000  Uiso   1.00
C198   C     0.93126   0.12199   0.52853   0.00000  Uiso   1.00
C199   C     0.89802   0.00954   0.49158   0.00000  Uiso   1.00
C200   C     0.90478   0.94290   0.44963   0.00000  Uiso   1.00
C201   C     0.87029   0.84298   0.42057   0.00000  Uiso   1.00
C202   C     0.97794   0.11832   0.62622   0.00000  Uiso   1.00
C203   C     0.05190   0.14317   0.69747   0.00000  Uiso   1.00
C204   C     0.08470   0.13485   0.78175   0.00000  Uiso   1.00
C205   C     0.86761   0.19771   0.48357   0.00000  Uiso   1.00
C206   C     0.84882   0.28931   0.43489   0.00000  Uiso   1.00
C207   C     0.78874   0.34785   0.39909   0.00000  Uiso   1.00
H208   H     0.82701   0.03811   0.56125   0.00000  Uiso   1.00
H209   H     0.79293   0.85292   0.48475   0.00000  Uiso   1.00
H210   H     0.94003   0.05318   0.73255   0.00000  Uiso   1.00
H211   H     0.73698   0.19930   0.47001   0.00000  Uiso   1.00
H212   H     0.77272   0.66172   0.39446   0.00000  Uiso   1.00
H213   H     0.08288   0.08400   0.91694   0.00000  Uiso   1.00
H214   H     0.65470   0.39212   0.36334   0.00000  Uiso   1.00
H215   H     0.96224   0.14692   0.51881   0.00000  Uiso   1.00
H216   H     0.93558   0.96770   0.43998   0.00000  Uiso   1.00
H217   H     0.08268   0.16795   0.68778   0.00000  Uiso   1.00
H218   H     0.87962   0.31407   0.42524   0.00000  Uiso   1.00
H219   H     0.88850   0.75487   0.35812   0.00000  Uiso   1.00
H220   H     0.19866   0.17716   0.88061   0.00000  Uiso   1.00
H221   H     0.77048   0.48527   0.32700   0.00000  Uiso   1.00
O222   O     0.81066   0.58842   0.32522   0.00000  Uiso   1.00
O223   O     0.21757   0.14246   0.01070   0.00000  Uiso   1.00
O224   O     0.65580   0.54670   0.28438   0.00000  Uiso   1.00
N225   N     0.80362   0.70824   0.39671   0.00000  Uiso   1.00
N226   N     0.09360   0.10304   0.88520   0.00000  Uiso   1.00
N227   N     0.69330   0.39112   0.36765   0.00000  Uiso   1.00
N228   N     0.86592   0.75837   0.37715   0.00000  Uiso   1.00
N229   N     0.15590   0.15317   0.86565   0.00000  Uiso   1.00
N230   N     0.75560   0.44124   0.34810   0.00000  Uiso   1.00
C231   C     0.35822   0.41898   0.54632   0.00000  Uiso   1.00
C232   C     0.35963   0.33271   0.50034   0.00000  Uiso   1.00
C233   C     0.32595   0.23229   0.47236   0.00000  Uiso   1.00
C234   C     0.33368   0.16488   0.43167   0.00000  Uiso   1.00
C235   C     0.32981   0.02604   0.36218   0.00000  Uiso   1.00
C236   C     0.43804   0.44395   0.63355   0.00000  Uiso   1.00
C237   C     0.47029   0.43708   0.71757   0.00000  Uiso   1.00
C238   C     0.54403   0.46332   0.78901   0.00000  Uiso   1.00
C239   C     0.66189   0.49726   0.92633   0.00000  Uiso   1.00
C240   C     0.32745   0.52062   0.48964   0.00000  Uiso   1.00
C241   C     0.26671   0.57822   0.45267   0.00000  Uiso   1.00
C242   C     0.24735   0.66903   0.40297   0.00000  Uiso   1.00
C243   C     0.19349   0.82200   0.31685   0.00000  Uiso   1.00
C244   C     0.43184   0.47784   0.52381   0.00000  Uiso   1.00
C245   C     0.39962   0.36468   0.48812   0.00000  Uiso   1.00
C246   C     0.40740   0.29741   0.44746   0.00000  Uiso   1.00
C247   C     0.37373   0.19690   0.41942   0.00000  Uiso   1.00
C248   C     0.47803   0.47592   0.62133   0.00000  Uiso   1.00
C249   C     0.55174   0.50219   0.69267   0.00000  Uiso   1.00
C250   C     0.58409   0.49535   0.77677   0.00000  Uiso   1.00
C251   C     0.36743   0.55259   0.47741   0.00000  Uiso   1.00
C252   C     0.34816   0.64333   0.42777   0.00000  Uiso   1.00
C253   C     0.28741   0.70106   0.39073   0.00000  Uiso   1.00
H254   H     0.32709   0.39410   0.55584   0.00000  Uiso   1.00
H255   H     0.29501   0.20758   0.48184   0.00000  Uiso   1.00
H256   H     0.43933   0.41234   0.72700   0.00000  Uiso   1.00
H257   H     0.23578   0.55346   0.46215   0.00000  Uiso   1.00
H258   H     0.27710   0.01487   0.39443   0.00000  Uiso   1.00
H259   H     0.58140   0.44666   0.91138   0.00000  Uiso   1.00
H260   H     0.15218   0.74424   0.35288   0.00000  Uiso   1.00
H261   H     0.46297   0.50273   0.51430   0.00000  Uiso   1.00
H262   H     0.43835   0.32217   0.43801   0.00000  Uiso   1.00
H263   H     0.58266   0.52693   0.68318   0.00000  Uiso   1.00
H264   H     0.37912   0.66805   0.41832   0.00000  Uiso   1.00
H265   H     0.39344   0.10787   0.35886   0.00000  Uiso   1.00
H266   H     0.69774   0.53967   0.87581   0.00000  Uiso   1.00
H267   H     0.26852   0.83724   0.31731   0.00000  Uiso   1.00
O268   O     0.31664   0.94062   0.32724   0.00000  Uiso   1.00
O269   O     0.71586   0.50713   0.00545   0.00000  Uiso   1.00
O270   O     0.15274   0.89753   0.27271   0.00000  Uiso   1.00
N271   N     0.30785   0.06154   0.39651   0.00000  Uiso   1.00
N272   N     0.59235   0.46523   0.87983   0.00000  Uiso   1.00
N273   N     0.19108   0.74345   0.35770   0.00000  Uiso   1.00
N274   N     0.37045   0.11159   0.37737   0.00000  Uiso   1.00
N275   N     0.65495   0.51527   0.86069   0.00000  Uiso   1.00
N276   N     0.25368   0.79350   0.33856   0.00000  Uiso   1.00
C277   C     0.14201   0.56304   0.94848   0.00000  Uiso   1.00
C278   C     0.14178   0.47751   0.99593   0.00000  Uiso   1.00
C279   C     0.17628   0.37768   0.02493   0.00000  Uiso   1.00
C280   C     0.16957   0.31090   0.06691   0.00000  Uiso   1.00
C281   C     0.17523   0.17322   0.13866   0.00000  Uiso   1.00
C282   C     0.06185   0.58630   0.86129   0.00000  Uiso   1.00
C283   C     0.02916   0.57795   0.77710   0.00000  Uiso   1.00
C284   C     0.95517   0.60278   0.70574   0.00000  Uiso   1.00
C285   C     0.83675   0.63407   0.56847   0.00000  Uiso   1.00
C286   C     0.17218   0.66568   0.00394   0.00000  Uiso   1.00
C287   C     0.23224   0.72410   0.03967   0.00000  Uiso   1.00
C288   C     0.25113   0.81577   0.08840   0.00000  Uiso   1.00
C289   C     0.30403   0.97031   0.17261   0.00000  Uiso   1.00
C290   C     0.06874   0.62199   0.97147   0.00000  Uiso   1.00
C291   C     0.10198   0.50954   0.00842   0.00000  Uiso   1.00
C292   C     0.09522   0.44290   0.05037   0.00000  Uiso   1.00
C293   C     0.12971   0.34298   0.07943   0.00000  Uiso   1.00
C294   C     0.02206   0.61832   0.87378   0.00000  Uiso   1.00
C295   C     0.94810   0.64317   0.80253   0.00000  Uiso   1.00
C296   C     0.91530   0.63485   0.71825   0.00000  Uiso   1.00
C297   C     0.13239   0.69771   0.01643   0.00000  Uiso   1.00
C298   C     0.15118   0.78931   0.06511   0.00000  Uiso   1.00
C299   C     0.21126   0.84785   0.10091   0.00000  Uiso   1.00
H300   H     0.17299   0.53811   0.93875   0.00000  Uiso   1.00
H301   H     0.20707   0.35292   0.01525   0.00000  Uiso   1.00
H302   H     0.05997   0.55318   0.76745   0.00000  Uiso   1.00
H303   H     0.26302   0.69930   0.02999   0.00000  Uiso   1.00
H304   H     0.22728   0.16172   0.10554   0.00000  Uiso   1.00
H305   H     0.91712   0.58400   0.58306   0.00000  Uiso   1.00
H306   H     0.34530   0.89212   0.13666   0.00000  Uiso   1.00
H307   H     0.03776   0.64692   0.98119   0.00000  Uiso   1.00
H308   H     0.06442   0.46770   0.06002   0.00000  Uiso   1.00
H309   H     0.91732   0.66795   0.81222   0.00000  Uiso   1.00
H310   H     0.12038   0.81407   0.07476   0.00000  Uiso   1.00
H311   H     0.11150   0.25487   0.14188   0.00000  Uiso   1.00
H312   H     0.80134   0.67716   0.61939   0.00000  Uiso   1.00
H313   H     0.22952   0.98527   0.17300   0.00000  Uiso   1.00
O314   O     0.18934   0.08842   0.17478   0.00000  Uiso   1.00
O315   O     0.78243   0.64246   0.48930   0.00000  Uiso   1.00
O316   O     0.34420   0.04670   0.21562   0.00000  Uiso   1.00
N317   N     0.19638   0.20824   0.10329   0.00000  Uiso   1.00
N318   N     0.90640   0.60304   0.61480   0.00000  Uiso   1.00
N319   N     0.30670   0.89112   0.13235   0.00000  Uiso   1.00
N320   N     0.13408   0.25837   0.12285   0.00000  Uiso   1.00
N321   N     0.84410   0.65317   0.63435   0.00000  Uiso   1.00
N322   N     0.24440   0.94124   0.15190   0.00000  Uiso   1.00
C323   C     0.64178   0.91898   0.95368   0.00000  Uiso   1.00
C324   C     0.64037   0.83271   0.99966   0.00000  Uiso   1.00
C325   C     0.67405   0.73229   0.02764   0.00000  Uiso   1.00
C326   C     0.66632   0.66488   0.06833   0.00000  Uiso   1.00
C327   C     0.67019   0.52604   0.13782   0.00000  Uiso   1.00
C328   C     0.56196   0.94395   0.86645   0.00000  Uiso   1.00
C329   C     0.52971   0.93708   0.78243   0.00000  Uiso   1.00
C330   C     0.45597   0.96332   0.71099   0.00000  Uiso   1.00
C331   C     0.33811   0.99726   0.57367   0.00000  Uiso   1.00
C332   C     0.67255   0.02062   0.01036   0.00000  Uiso   1.00
C333   C     0.73329   0.07822   0.04733   0.00000  Uiso   1.00
C334   C     0.75265   0.16903   0.09703   0.00000  Uiso   1.00
C335   C     0.80651   0.32200   0.18315   0.00000  Uiso   1.00
C336   C     0.56816   0.97784   0.97619   0.00000  Uiso   1.00
C337   C     0.60038   0.86468   0.01188   0.00000  Uiso   1.00
C338   C     0.59260   0.79741   0.05254   0.00000  Uiso   1.00
C339   C     0.62627   0.69690   0.08058   0.00000  Uiso   1.00
C340   C     0.52197   0.97592   0.87867   0.00000  Uiso   1.00
C341   C     0.44826   0.00219   0.80733   0.00000  Uiso   1.00
C342   C     0.41591   0.99535   0.72323   0.00000  Uiso   1.00
C343   C     0.63257   0.05259   0.02259   0.00000  Uiso   1.00
C344   C     0.65184   0.14333   0.07223   0.00000  Uiso   1.00
C345   C     0.71259   0.20106   0.10927   0.00000  Uiso   1.00
H346   H     0.67291   0.89410   0.94416   0.00000  Uiso   1.00
H347   H     0.70499   0.70758   0.01816   0.00000  Uiso   1.00
H348   H     0.56067   0.91234   0.77300   0.00000  Uiso   1.00
H349   H     0.76422   0.05346   0.03785   0.00000  Uiso   1.00
H350   H     0.72290   0.51487   0.10557   0.00000  Uiso   1.00
H351   H     0.41860   0.94666   0.58862   0.00000  Uiso   1.00
H352   H     0.84782   0.24424   0.14712   0.00000  Uiso   1.00
H353   H     0.53703   0.00273   0.98570   0.00000  Uiso   1.00
H354   H     0.56165   0.82217   0.06199   0.00000  Uiso   1.00
H355   H     0.41734   0.02693   0.81682   0.00000  Uiso   1.00
H356   H     0.62088   0.16805   0.08168   0.00000  Uiso   1.00
H357   H     0.60656   0.60787   0.14114   0.00000  Uiso   1.00
H358   H     0.30226   0.03967   0.62419   0.00000  Uiso   1.00
H359   H     0.73148   0.33724   0.18269   0.00000  Uiso   1.00
O360   O     0.68336   0.44062   0.17276   0.00000  Uiso   1.00
O361   O     0.28414   0.00713   0.49455   0.00000  Uiso   1.00
O362   O     0.84726   0.39753   0.22729   0.00000  Uiso   1.00
N363   N     0.69215   0.56154   0.10349   0.00000  Uiso   1.00
N364   N     0.40765   0.96523   0.62017   0.00000  Uiso   1.00
N365   N     0.80892   0.24345   0.14230   0.00000  Uiso   1.00
N366   N     0.62955   0.61159   0.12263   0.00000  Uiso   1.00
N367   N     0.34505   0.01527   0.63931   0.00000  Uiso   1.00
N368   N     0.74632   0.29350   0.16144   0.00000  Uiso   1.00
