data_job_03836
_audit_creation_date              2018-12-19
_audit_creation_method            'Materials Studio'
_symmetry_space_group_name_H-M    'P1'
_symmetry_Int_Tables_number       1
_symmetry_cell_setting            triclinic
loop_
_symmetry_equiv_pos_as_xyz
  x,y,z
_cell_length_a                    24.3639
_cell_length_b                    10.3304
_cell_length_c                    13.4726
_cell_angle_alpha                 90.0000
_cell_angle_beta                  103.1590
_cell_angle_gamma                 90.0000
loop_
_atom_site_label
_atom_site_type_symbol
_atom_site_fract_x
_atom_site_fract_y
_atom_site_fract_z
_atom_site_U_iso_or_equiv
_atom_site_adp_type
_atom_site_occupancy
C1     C     0.23049   0.34102   0.46220   0.00000  Uiso   1.00
C2     C     0.22669   0.43498   0.37360   0.00000  Uiso   1.00
C3     C     0.21906   0.56785   0.37759   0.00000  Uiso   1.00
C4     C     0.21668   0.63686   0.28828   0.00000  Uiso   1.00
C5     C     0.20998   0.79215   0.16439   0.00000  Uiso   1.00
C6     C     0.18470   0.23992   0.42604   0.00000  Uiso   1.00
C7     C     0.14176   0.20878   0.47413   0.00000  Uiso   1.00
C8     C     0.10404   0.11357   0.42896   0.00000  Uiso   1.00
C9     C     0.03216   0.96596   0.38651   0.00000  Uiso   1.00
C10    C     0.28649   0.27022   0.47341   0.00000  Uiso   1.00
C11    C     0.32914   0.26450   0.56134   0.00000  Uiso   1.00
C12    C     0.37711   0.19477   0.55606   0.00000  Uiso   1.00
C13    C     0.46328   0.09420   0.58717   0.00000  Uiso   1.00
C14    C     0.23984   0.22730   0.29649   0.00000  Uiso   1.00
C15    C     0.23177   0.37321   0.28359   0.00000  Uiso   1.00
C16    C     0.22941   0.44204   0.19426   0.00000  Uiso   1.00
C17    C     0.22177   0.57498   0.19812   0.00000  Uiso   1.00
C18    C     0.18977   0.17816   0.33603   0.00000  Uiso   1.00
C19    C     0.15211   0.08297   0.29079   0.00000  Uiso   1.00
C20    C     0.10912   0.05169   0.33879   0.00000  Uiso   1.00
C21    C     0.29157   0.20845   0.38340   0.00000  Uiso   1.00
C22    C     0.33948   0.13870   0.37799   0.00000  Uiso   1.00
C23    C     0.38220   0.13289   0.46590   0.00000  Uiso   1.00
H24    H     0.22654   0.38910   0.53228   0.00000  Uiso   1.00
H25    H     0.21513   0.61561   0.44726   0.00000  Uiso   1.00
H26    H     0.13785   0.25658   0.54378   0.00000  Uiso   1.00
H27    H     0.32519   0.31231   0.63098   0.00000  Uiso   1.00
H28    H     0.20470   0.83949   0.31331   0.00000  Uiso   1.00
H29    H     0.04176   0.08244   0.51684   0.00000  Uiso   1.00
H30    H     0.43681   0.19995   0.70071   0.00000  Uiso   1.00
H31    H     0.24380   0.17921   0.22642   0.00000  Uiso   1.00
H32    H     0.23334   0.39422   0.12461   0.00000  Uiso   1.00
H33    H     0.15605   0.03519   0.22114   0.00000  Uiso   1.00
H34    H     0.34340   0.09092   0.30833   0.00000  Uiso   1.00
H35    H     0.21948   0.65980   0.05143   0.00000  Uiso   1.00
H36    H     0.05653   0.90274   0.25497   0.00000  Uiso   1.00
H37    H     0.45159   0.02026   0.43884   0.00000  Uiso   1.00
O38    O     0.20488   0.89486   0.12091   0.00000  Uiso   1.00
O39    O     0.99111   0.90162   0.38796   0.00000  Uiso   1.00
O40    O     0.50941   0.05580   0.62918   0.00000  Uiso   1.00
N41    N     0.20962   0.76770   0.26565   0.00000  Uiso   1.00
N42    N     0.05728   0.05992   0.45594   0.00000  Uiso   1.00
N43    N     0.42661   0.16975   0.62785   0.00000  Uiso   1.00
N44    N     0.21758   0.67101   0.12474   0.00000  Uiso   1.00
N45    N     0.06523   0.96323   0.31502   0.00000  Uiso   1.00
N46    N     0.43457   0.07306   0.48693   0.00000  Uiso   1.00
C47    C     0.76951   0.84102   0.03780   0.00000  Uiso   1.00
C48    C     0.77331   0.93498   0.12640   0.00000  Uiso   1.00
C49    C     0.78094   0.06785   0.12241   0.00000  Uiso   1.00
C50    C     0.78332   0.13686   0.21172   0.00000  Uiso   1.00
C51    C     0.79002   0.29215   0.33561   0.00000  Uiso   1.00
C52    C     0.81530   0.73993   0.07396   0.00000  Uiso   1.00
C53    C     0.85824   0.70878   0.02587   0.00000  Uiso   1.00
C54    C     0.89596   0.61357   0.07104   0.00000  Uiso   1.00
C55    C     0.96784   0.46596   0.11349   0.00000  Uiso   1.00
C56    C     0.71351   0.77022   0.02659   0.00000  Uiso   1.00
C57    C     0.67086   0.76450   0.93866   0.00000  Uiso   1.00
C58    C     0.62289   0.69477   0.94394   0.00000  Uiso   1.00
C59    C     0.53672   0.59420   0.91283   0.00000  Uiso   1.00
C60    C     0.76016   0.72730   0.20351   0.00000  Uiso   1.00
C61    C     0.76823   0.87321   0.21641   0.00000  Uiso   1.00
C62    C     0.77059   0.94204   0.30574   0.00000  Uiso   1.00
C63    C     0.77823   0.07498   0.30188   0.00000  Uiso   1.00
C64    C     0.81023   0.67816   0.16397   0.00000  Uiso   1.00
C65    C     0.84789   0.58297   0.20921   0.00000  Uiso   1.00
C66    C     0.89088   0.55169   0.16121   0.00000  Uiso   1.00
C67    C     0.70843   0.70845   0.11660   0.00000  Uiso   1.00
C68    C     0.66052   0.63870   0.12201   0.00000  Uiso   1.00
C69    C     0.61780   0.63289   0.03410   0.00000  Uiso   1.00
H70    H     0.77346   0.88910   0.96772   0.00000  Uiso   1.00
H71    H     0.78487   0.11561   0.05274   0.00000  Uiso   1.00
H72    H     0.86215   0.75658   0.95622   0.00000  Uiso   1.00
H73    H     0.67481   0.81231   0.86902   0.00000  Uiso   1.00
H74    H     0.79530   0.33949   0.18669   0.00000  Uiso   1.00
H75    H     0.95824   0.58244   0.98316   0.00000  Uiso   1.00
H76    H     0.56319   0.69995   0.79929   0.00000  Uiso   1.00
H77    H     0.75620   0.67921   0.27358   0.00000  Uiso   1.00
H78    H     0.76666   0.89422   0.37539   0.00000  Uiso   1.00
H79    H     0.84395   0.53519   0.27886   0.00000  Uiso   1.00
H80    H     0.65660   0.59092   0.19167   0.00000  Uiso   1.00
H81    H     0.78052   0.15980   0.44857   0.00000  Uiso   1.00
H82    H     0.94347   0.40274   0.24503   0.00000  Uiso   1.00
H83    H     0.54841   0.52026   0.06116   0.00000  Uiso   1.00
O84    O     0.79512   0.39486   0.37909   0.00000  Uiso   1.00
O85    O     0.00889   0.40162   0.11204   0.00000  Uiso   1.00
O86    O     0.49059   0.55580   0.87082   0.00000  Uiso   1.00
N87    N     0.79038   0.26770   0.23435   0.00000  Uiso   1.00
N88    N     0.94272   0.55992   0.04406   0.00000  Uiso   1.00
N89    N     0.57339   0.66975   0.87215   0.00000  Uiso   1.00
N90    N     0.78242   0.17101   0.37526   0.00000  Uiso   1.00
N91    N     0.93477   0.46323   0.18498   0.00000  Uiso   1.00
N92    N     0.56543   0.57306   0.01307   0.00000  Uiso   1.00
C93    C     0.76951   0.65898   0.53780   0.00000  Uiso   1.00
C94    C     0.77331   0.56502   0.62640   0.00000  Uiso   1.00
C95    C     0.78094   0.43215   0.62241   0.00000  Uiso   1.00
C96    C     0.78332   0.36314   0.71172   0.00000  Uiso   1.00
C97    C     0.79002   0.20785   0.83561   0.00000  Uiso   1.00
C98    C     0.81530   0.76008   0.57396   0.00000  Uiso   1.00
C99    C     0.85824   0.79122   0.52587   0.00000  Uiso   1.00
C100   C     0.89596   0.88643   0.57104   0.00000  Uiso   1.00
C101   C     0.96784   0.03404   0.61349   0.00000  Uiso   1.00
C102   C     0.71351   0.72978   0.52659   0.00000  Uiso   1.00
C103   C     0.67086   0.73550   0.43866   0.00000  Uiso   1.00
C104   C     0.62289   0.80523   0.44394   0.00000  Uiso   1.00
C105   C     0.53672   0.90580   0.41283   0.00000  Uiso   1.00
C106   C     0.76016   0.77270   0.70351   0.00000  Uiso   1.00
C107   C     0.76823   0.62679   0.71641   0.00000  Uiso   1.00
C108   C     0.77059   0.55796   0.80574   0.00000  Uiso   1.00
C109   C     0.77823   0.42502   0.80188   0.00000  Uiso   1.00
C110   C     0.81023   0.82184   0.66397   0.00000  Uiso   1.00
C111   C     0.84789   0.91703   0.70921   0.00000  Uiso   1.00
C112   C     0.89088   0.94831   0.66121   0.00000  Uiso   1.00
C113   C     0.70843   0.79155   0.61660   0.00000  Uiso   1.00
C114   C     0.66052   0.86130   0.62201   0.00000  Uiso   1.00
C115   C     0.61780   0.86711   0.53410   0.00000  Uiso   1.00
H116   H     0.77346   0.61090   0.46772   0.00000  Uiso   1.00
H117   H     0.78487   0.38439   0.55274   0.00000  Uiso   1.00
H118   H     0.86215   0.74342   0.45622   0.00000  Uiso   1.00
H119   H     0.67481   0.68769   0.36902   0.00000  Uiso   1.00
H120   H     0.79530   0.16051   0.68669   0.00000  Uiso   1.00
H121   H     0.95824   0.91756   0.48316   0.00000  Uiso   1.00
H122   H     0.56319   0.80005   0.29929   0.00000  Uiso   1.00
H123   H     0.75620   0.82079   0.77358   0.00000  Uiso   1.00
H124   H     0.76666   0.60578   0.87539   0.00000  Uiso   1.00
H125   H     0.84395   0.96481   0.77886   0.00000  Uiso   1.00
H126   H     0.65660   0.90908   0.69167   0.00000  Uiso   1.00
H127   H     0.78052   0.34020   0.94857   0.00000  Uiso   1.00
H128   H     0.94347   0.09726   0.74503   0.00000  Uiso   1.00
H129   H     0.54841   0.97974   0.56116   0.00000  Uiso   1.00
O130   O     0.79512   0.10514   0.87909   0.00000  Uiso   1.00
O131   O     0.00889   0.09838   0.61204   0.00000  Uiso   1.00
O132   O     0.49059   0.94420   0.37082   0.00000  Uiso   1.00
N133   N     0.79038   0.23230   0.73435   0.00000  Uiso   1.00
N134   N     0.94272   0.94008   0.54406   0.00000  Uiso   1.00
N135   N     0.57339   0.83025   0.37215   0.00000  Uiso   1.00
N136   N     0.78242   0.32899   0.87526   0.00000  Uiso   1.00
N137   N     0.93477   0.03677   0.68498   0.00000  Uiso   1.00
N138   N     0.56543   0.92694   0.51307   0.00000  Uiso   1.00
C139   C     0.23049   0.15898   0.96220   0.00000  Uiso   1.00
C140   C     0.22669   0.06502   0.87360   0.00000  Uiso   1.00
C141   C     0.21906   0.93215   0.87759   0.00000  Uiso   1.00
C142   C     0.21668   0.86314   0.78828   0.00000  Uiso   1.00
C143   C     0.20998   0.70785   0.66439   0.00000  Uiso   1.00
C144   C     0.18470   0.26008   0.92604   0.00000  Uiso   1.00
C145   C     0.14176   0.29122   0.97413   0.00000  Uiso   1.00
C146   C     0.10404   0.38643   0.92896   0.00000  Uiso   1.00
C147   C     0.03216   0.53404   0.88651   0.00000  Uiso   1.00
C148   C     0.28649   0.22978   0.97341   0.00000  Uiso   1.00
C149   C     0.32914   0.23550   0.06134   0.00000  Uiso   1.00
C150   C     0.37711   0.30523   0.05606   0.00000  Uiso   1.00
C151   C     0.46328   0.40580   0.08717   0.00000  Uiso   1.00
C152   C     0.23984   0.27270   0.79649   0.00000  Uiso   1.00
C153   C     0.23177   0.12679   0.78359   0.00000  Uiso   1.00
C154   C     0.22941   0.05796   0.69426   0.00000  Uiso   1.00
C155   C     0.22177   0.92502   0.69812   0.00000  Uiso   1.00
C156   C     0.18977   0.32184   0.83603   0.00000  Uiso   1.00
C157   C     0.15211   0.41703   0.79079   0.00000  Uiso   1.00
C158   C     0.10912   0.44831   0.83879   0.00000  Uiso   1.00
C159   C     0.29157   0.29155   0.88340   0.00000  Uiso   1.00
C160   C     0.33948   0.36130   0.87799   0.00000  Uiso   1.00
C161   C     0.38220   0.36711   0.96590   0.00000  Uiso   1.00
H162   H     0.22654   0.11090   0.03228   0.00000  Uiso   1.00
H163   H     0.21513   0.88439   0.94726   0.00000  Uiso   1.00
H164   H     0.13785   0.24342   0.04378   0.00000  Uiso   1.00
H165   H     0.32519   0.18769   0.13098   0.00000  Uiso   1.00
H166   H     0.20470   0.66051   0.81331   0.00000  Uiso   1.00
H167   H     0.04176   0.41756   0.01684   0.00000  Uiso   1.00
H168   H     0.43681   0.30005   0.20071   0.00000  Uiso   1.00
H169   H     0.24380   0.32079   0.72642   0.00000  Uiso   1.00
H170   H     0.23334   0.10578   0.62461   0.00000  Uiso   1.00
H171   H     0.15605   0.46481   0.72114   0.00000  Uiso   1.00
H172   H     0.34340   0.40908   0.80833   0.00000  Uiso   1.00
H173   H     0.21948   0.84020   0.55143   0.00000  Uiso   1.00
H174   H     0.05653   0.59726   0.75497   0.00000  Uiso   1.00
H175   H     0.45159   0.47974   0.93884   0.00000  Uiso   1.00
O176   O     0.20488   0.60514   0.62091   0.00000  Uiso   1.00
O177   O     0.99111   0.59838   0.88796   0.00000  Uiso   1.00
O178   O     0.50941   0.44420   0.12918   0.00000  Uiso   1.00
N179   N     0.20962   0.73230   0.76565   0.00000  Uiso   1.00
N180   N     0.05728   0.44008   0.95594   0.00000  Uiso   1.00
N181   N     0.42661   0.33025   0.12785   0.00000  Uiso   1.00
N182   N     0.21758   0.82899   0.62474   0.00000  Uiso   1.00
N183   N     0.06523   0.53677   0.81502   0.00000  Uiso   1.00
N184   N     0.43457   0.42694   0.98693   0.00000  Uiso   1.00
