data_job_01060
_audit_creation_date              2018-12-19
_audit_creation_method            'Materials Studio'
_symmetry_space_group_name_H-M    'P1'
_symmetry_Int_Tables_number       1
_symmetry_cell_setting            triclinic
loop_
_symmetry_equiv_pos_as_xyz
  x,y,z
_cell_length_a                    19.1240
_cell_length_b                    19.1240
_cell_length_c                    14.0988
_cell_angle_alpha                 90.0000
_cell_angle_beta                  90.0000
_cell_angle_gamma                 90.0000
loop_
_atom_site_label
_atom_site_type_symbol
_atom_site_fract_x
_atom_site_fract_y
_atom_site_fract_z
_atom_site_U_iso_or_equiv
_atom_site_adp_type
_atom_site_occupancy
C1     C     0.24615   0.74204   0.38284   0.00000  Uiso   1.00
C2     C     0.22213   0.67405   0.42901   0.00000  Uiso   1.00
C3     C     0.15447   0.64784   0.42791   0.00000  Uiso   1.00
C4     C     0.14314   0.58480   0.47428   0.00000  Uiso   1.00
C5     C     0.09757   0.48464   0.53904   0.00000  Uiso   1.00
C6     C     0.27964   0.78514   0.46169   0.00000  Uiso   1.00
C7     C     0.26033   0.85234   0.48806   0.00000  Uiso   1.00
C8     C     0.29743   0.88282   0.56193   0.00000  Uiso   1.00
C9     C     0.34116   0.95516   0.67739   0.00000  Uiso   1.00
C10    C     0.30535   0.72216   0.31560   0.00000  Uiso   1.00
C11    C     0.30767   0.73642   0.21913   0.00000  Uiso   1.00
C12    C     0.36642   0.71388   0.17000   0.00000  Uiso   1.00
C13    C     0.45008   0.68842   0.05863   0.00000  Uiso   1.00
C14    C     0.34636   0.67669   0.46714   0.00000  Uiso   1.00
C15    C     0.27657   0.63856   0.47480   0.00000  Uiso   1.00
C16    C     0.26535   0.57554   0.52117   0.00000  Uiso   1.00
C17    C     0.19768   0.54924   0.52014   0.00000  Uiso   1.00
C18    C     0.33407   0.74965   0.50748   0.00000  Uiso   1.00
C19    C     0.37121   0.78004   0.58132   0.00000  Uiso   1.00
C20    C     0.35196   0.84726   0.60780   0.00000  Uiso   1.00
C21    C     0.35978   0.68666   0.36138   0.00000  Uiso   1.00
C22    C     0.41855   0.66411   0.31240   0.00000  Uiso   1.00
C23    C     0.42095   0.67832   0.21587   0.00000  Uiso   1.00
H24    H     0.20377   0.76968   0.34720   0.00000  Uiso   1.00
H25    H     0.11235   0.67533   0.39248   0.00000  Uiso   1.00
H26    H     0.21821   0.87980   0.45261   0.00000  Uiso   1.00
H27    H     0.26553   0.76389   0.18373   0.00000  Uiso   1.00
H28    H     0.03500   0.55508   0.46290   0.00000  Uiso   1.00
H29    H     0.25821   0.98623   0.58967   0.00000  Uiso   1.00
H30    H     0.35802   0.74180   0.02267   0.00000  Uiso   1.00
H31    H     0.38875   0.64906   0.50278   0.00000  Uiso   1.00
H32    H     0.30748   0.54808   0.55660   0.00000  Uiso   1.00
H33    H     0.41333   0.75255   0.61673   0.00000  Uiso   1.00
H34    H     0.46066   0.63664   0.34785   0.00000  Uiso   1.00
H35    H     0.19337   0.45180   0.59611   0.00000  Uiso   1.00
H36    H     0.41659   0.88295   0.72288   0.00000  Uiso   1.00
H37    H     0.51639   0.63852   0.15588   0.00000  Uiso   1.00
O38    O     0.05739   0.43921   0.56213   0.00000  Uiso   1.00
O39    O     0.35024   0.00486   0.72843   0.00000  Uiso   1.00
O40    O     0.48118   0.68417   0.98454   0.00000  Uiso   1.00
N41    N     0.08343   0.54463   0.48685   0.00000  Uiso   1.00
N42    N     0.29211   0.94772   0.60538   0.00000  Uiso   1.00
N43    N     0.38543   0.71922   0.07529   0.00000  Uiso   1.00
N44    N     0.16865   0.48905   0.55853   0.00000  Uiso   1.00
N45    N     0.37733   0.89215   0.67706   0.00000  Uiso   1.00
N46    N     0.47065   0.66364   0.14697   0.00000  Uiso   1.00
C47    C     0.74615   0.24204   0.88284   0.00000  Uiso   1.00
C48    C     0.72213   0.17405   0.92901   0.00000  Uiso   1.00
C49    C     0.65447   0.14784   0.92791   0.00000  Uiso   1.00
C50    C     0.64314   0.08480   0.97428   0.00000  Uiso   1.00
C51    C     0.59757   0.98464   0.03904   0.00000  Uiso   1.00
C52    C     0.77964   0.28514   0.96169   0.00000  Uiso   1.00
C53    C     0.76033   0.35234   0.98806   0.00000  Uiso   1.00
C54    C     0.79743   0.38282   0.06193   0.00000  Uiso   1.00
C55    C     0.84116   0.45516   0.17739   0.00000  Uiso   1.00
C56    C     0.80535   0.22216   0.81560   0.00000  Uiso   1.00
C57    C     0.80767   0.23642   0.71913   0.00000  Uiso   1.00
C58    C     0.86642   0.21388   0.67000   0.00000  Uiso   1.00
C59    C     0.95008   0.18842   0.55863   0.00000  Uiso   1.00
C60    C     0.84636   0.17669   0.96714   0.00000  Uiso   1.00
C61    C     0.77657   0.13856   0.97480   0.00000  Uiso   1.00
C62    C     0.76535   0.07554   0.02117   0.00000  Uiso   1.00
C63    C     0.69768   0.04924   0.02014   0.00000  Uiso   1.00
C64    C     0.83407   0.24965   0.00748   0.00000  Uiso   1.00
C65    C     0.87121   0.28004   0.08132   0.00000  Uiso   1.00
C66    C     0.85196   0.34726   0.10780   0.00000  Uiso   1.00
C67    C     0.85978   0.18666   0.86138   0.00000  Uiso   1.00
C68    C     0.91855   0.16411   0.81240   0.00000  Uiso   1.00
C69    C     0.92095   0.17832   0.71587   0.00000  Uiso   1.00
H70    H     0.70377   0.26968   0.84720   0.00000  Uiso   1.00
H71    H     0.61235   0.17533   0.89248   0.00000  Uiso   1.00
H72    H     0.71821   0.37980   0.95261   0.00000  Uiso   1.00
H73    H     0.76553   0.26389   0.68373   0.00000  Uiso   1.00
H74    H     0.53500   0.05508   0.96290   0.00000  Uiso   1.00
H75    H     0.75821   0.48623   0.08967   0.00000  Uiso   1.00
H76    H     0.85802   0.24180   0.52267   0.00000  Uiso   1.00
H77    H     0.88875   0.14906   0.00278   0.00000  Uiso   1.00
H78    H     0.80748   0.04808   0.05660   0.00000  Uiso   1.00
H79    H     0.91333   0.25255   0.11673   0.00000  Uiso   1.00
H80    H     0.96066   0.13664   0.84785   0.00000  Uiso   1.00
H81    H     0.69337   0.95180   0.09611   0.00000  Uiso   1.00
H82    H     0.91659   0.38295   0.22288   0.00000  Uiso   1.00
H83    H     0.01639   0.13852   0.65588   0.00000  Uiso   1.00
O84    O     0.55739   0.93921   0.06213   0.00000  Uiso   1.00
O85    O     0.85024   0.50486   0.22843   0.00000  Uiso   1.00
O86    O     0.98118   0.18417   0.48454   0.00000  Uiso   1.00
N87    N     0.58343   0.04463   0.98685   0.00000  Uiso   1.00
N88    N     0.79211   0.44772   0.10538   0.00000  Uiso   1.00
N89    N     0.88543   0.21922   0.57529   0.00000  Uiso   1.00
N90    N     0.66865   0.98905   0.05853   0.00000  Uiso   1.00
N91    N     0.87733   0.39215   0.17706   0.00000  Uiso   1.00
N92    N     0.97065   0.16364   0.64697   0.00000  Uiso   1.00
C93    C     0.75385   0.25796   0.38284   0.00000  Uiso   1.00
C94    C     0.77787   0.32595   0.42901   0.00000  Uiso   1.00
C95    C     0.84553   0.35216   0.42791   0.00000  Uiso   1.00
C96    C     0.85686   0.41520   0.47428   0.00000  Uiso   1.00
C97    C     0.90243   0.51536   0.53904   0.00000  Uiso   1.00
C98    C     0.72036   0.21486   0.46169   0.00000  Uiso   1.00
C99    C     0.73967   0.14766   0.48806   0.00000  Uiso   1.00
C100   C     0.70257   0.11718   0.56193   0.00000  Uiso   1.00
C101   C     0.65884   0.04484   0.67739   0.00000  Uiso   1.00
C102   C     0.69465   0.27784   0.31560   0.00000  Uiso   1.00
C103   C     0.69233   0.26358   0.21913   0.00000  Uiso   1.00
C104   C     0.63358   0.28612   0.17000   0.00000  Uiso   1.00
C105   C     0.54992   0.31158   0.05863   0.00000  Uiso   1.00
C106   C     0.65364   0.32331   0.46714   0.00000  Uiso   1.00
C107   C     0.72343   0.36144   0.47480   0.00000  Uiso   1.00
C108   C     0.73465   0.42446   0.52117   0.00000  Uiso   1.00
C109   C     0.80232   0.45076   0.52014   0.00000  Uiso   1.00
C110   C     0.66593   0.25035   0.50748   0.00000  Uiso   1.00
C111   C     0.62879   0.21996   0.58132   0.00000  Uiso   1.00
C112   C     0.64804   0.15274   0.60780   0.00000  Uiso   1.00
C113   C     0.64022   0.31334   0.36138   0.00000  Uiso   1.00
C114   C     0.58145   0.33589   0.31240   0.00000  Uiso   1.00
C115   C     0.57905   0.32168   0.21587   0.00000  Uiso   1.00
H116   H     0.79623   0.23032   0.34720   0.00000  Uiso   1.00
H117   H     0.88765   0.32467   0.39248   0.00000  Uiso   1.00
H118   H     0.78179   0.12020   0.45261   0.00000  Uiso   1.00
H119   H     0.73447   0.23611   0.18373   0.00000  Uiso   1.00
H120   H     0.96500   0.44492   0.46290   0.00000  Uiso   1.00
H121   H     0.74179   0.01377   0.58967   0.00000  Uiso   1.00
H122   H     0.64198   0.25820   0.02267   0.00000  Uiso   1.00
H123   H     0.61125   0.35094   0.50278   0.00000  Uiso   1.00
H124   H     0.69252   0.45192   0.55660   0.00000  Uiso   1.00
H125   H     0.58667   0.24745   0.61673   0.00000  Uiso   1.00
H126   H     0.53934   0.36336   0.34785   0.00000  Uiso   1.00
H127   H     0.80663   0.54820   0.59611   0.00000  Uiso   1.00
H128   H     0.58341   0.11705   0.72288   0.00000  Uiso   1.00
H129   H     0.48361   0.36148   0.15588   0.00000  Uiso   1.00
O130   O     0.94261   0.56079   0.56213   0.00000  Uiso   1.00
O131   O     0.64976   0.99514   0.72843   0.00000  Uiso   1.00
O132   O     0.51882   0.31583   0.98454   0.00000  Uiso   1.00
N133   N     0.91657   0.45537   0.48685   0.00000  Uiso   1.00
N134   N     0.70789   0.05228   0.60538   0.00000  Uiso   1.00
N135   N     0.61457   0.28078   0.07529   0.00000  Uiso   1.00
N136   N     0.83135   0.51095   0.55853   0.00000  Uiso   1.00
N137   N     0.62267   0.10785   0.67706   0.00000  Uiso   1.00
N138   N     0.52935   0.33636   0.14697   0.00000  Uiso   1.00
C139   C     0.25385   0.75796   0.88284   0.00000  Uiso   1.00
C140   C     0.27787   0.82595   0.92901   0.00000  Uiso   1.00
C141   C     0.34553   0.85216   0.92791   0.00000  Uiso   1.00
C142   C     0.35686   0.91520   0.97428   0.00000  Uiso   1.00
C143   C     0.40243   0.01536   0.03904   0.00000  Uiso   1.00
C144   C     0.22036   0.71486   0.96169   0.00000  Uiso   1.00
C145   C     0.23967   0.64766   0.98806   0.00000  Uiso   1.00
C146   C     0.20257   0.61718   0.06193   0.00000  Uiso   1.00
C147   C     0.15884   0.54484   0.17739   0.00000  Uiso   1.00
C148   C     0.19465   0.77784   0.81560   0.00000  Uiso   1.00
C149   C     0.19233   0.76358   0.71913   0.00000  Uiso   1.00
C150   C     0.13358   0.78612   0.67000   0.00000  Uiso   1.00
C151   C     0.04992   0.81158   0.55863   0.00000  Uiso   1.00
C152   C     0.15364   0.82331   0.96714   0.00000  Uiso   1.00
C153   C     0.22343   0.86144   0.97480   0.00000  Uiso   1.00
C154   C     0.23465   0.92446   0.02117   0.00000  Uiso   1.00
C155   C     0.30232   0.95076   0.02014   0.00000  Uiso   1.00
C156   C     0.16593   0.75035   0.00748   0.00000  Uiso   1.00
C157   C     0.12879   0.71996   0.08132   0.00000  Uiso   1.00
C158   C     0.14804   0.65274   0.10780   0.00000  Uiso   1.00
C159   C     0.14022   0.81334   0.86138   0.00000  Uiso   1.00
C160   C     0.08145   0.83589   0.81240   0.00000  Uiso   1.00
C161   C     0.07905   0.82168   0.71587   0.00000  Uiso   1.00
H162   H     0.29623   0.73032   0.84720   0.00000  Uiso   1.00
H163   H     0.38765   0.82467   0.89248   0.00000  Uiso   1.00
H164   H     0.28179   0.62020   0.95261   0.00000  Uiso   1.00
H165   H     0.23447   0.73611   0.68373   0.00000  Uiso   1.00
H166   H     0.46500   0.94492   0.96290   0.00000  Uiso   1.00
H167   H     0.24179   0.51377   0.08967   0.00000  Uiso   1.00
H168   H     0.14198   0.75820   0.52267   0.00000  Uiso   1.00
H169   H     0.11125   0.85094   0.00278   0.00000  Uiso   1.00
H170   H     0.19252   0.95192   0.05660   0.00000  Uiso   1.00
H171   H     0.08667   0.74745   0.11673   0.00000  Uiso   1.00
H172   H     0.03934   0.86336   0.84785   0.00000  Uiso   1.00
H173   H     0.30663   0.04820   0.09611   0.00000  Uiso   1.00
H174   H     0.08341   0.61705   0.22288   0.00000  Uiso   1.00
H175   H     0.98361   0.86148   0.65588   0.00000  Uiso   1.00
O176   O     0.44261   0.06079   0.06213   0.00000  Uiso   1.00
O177   O     0.14976   0.49514   0.22843   0.00000  Uiso   1.00
O178   O     0.01882   0.81583   0.48454   0.00000  Uiso   1.00
N179   N     0.41657   0.95537   0.98685   0.00000  Uiso   1.00
N180   N     0.20789   0.55228   0.10538   0.00000  Uiso   1.00
N181   N     0.11457   0.78078   0.57529   0.00000  Uiso   1.00
N182   N     0.33135   0.01095   0.05853   0.00000  Uiso   1.00
N183   N     0.12267   0.60785   0.17706   0.00000  Uiso   1.00
N184   N     0.02935   0.83636   0.64697   0.00000  Uiso   1.00
C185   C     0.74204   0.75385   0.61716   0.00000  Uiso   1.00
C186   C     0.67405   0.77787   0.57099   0.00000  Uiso   1.00
C187   C     0.64784   0.84553   0.57209   0.00000  Uiso   1.00
C188   C     0.58480   0.85686   0.52572   0.00000  Uiso   1.00
C189   C     0.48464   0.90243   0.46096   0.00000  Uiso   1.00
C190   C     0.78514   0.72036   0.53831   0.00000  Uiso   1.00
C191   C     0.85234   0.73967   0.51194   0.00000  Uiso   1.00
C192   C     0.88282   0.70257   0.43807   0.00000  Uiso   1.00
C193   C     0.95516   0.65884   0.32261   0.00000  Uiso   1.00
C194   C     0.72216   0.69465   0.68440   0.00000  Uiso   1.00
C195   C     0.73642   0.69233   0.78087   0.00000  Uiso   1.00
C196   C     0.71388   0.63358   0.83000   0.00000  Uiso   1.00
C197   C     0.68842   0.54992   0.94137   0.00000  Uiso   1.00
C198   C     0.67669   0.65364   0.53286   0.00000  Uiso   1.00
C199   C     0.63856   0.72343   0.52520   0.00000  Uiso   1.00
C200   C     0.57554   0.73465   0.47883   0.00000  Uiso   1.00
C201   C     0.54924   0.80232   0.47986   0.00000  Uiso   1.00
C202   C     0.74965   0.66593   0.49252   0.00000  Uiso   1.00
C203   C     0.78004   0.62879   0.41868   0.00000  Uiso   1.00
C204   C     0.84726   0.64804   0.39220   0.00000  Uiso   1.00
C205   C     0.68666   0.64022   0.63862   0.00000  Uiso   1.00
C206   C     0.66411   0.58145   0.68760   0.00000  Uiso   1.00
C207   C     0.67832   0.57905   0.78413   0.00000  Uiso   1.00
H208   H     0.76968   0.79623   0.65280   0.00000  Uiso   1.00
H209   H     0.67533   0.88765   0.60752   0.00000  Uiso   1.00
H210   H     0.87980   0.78179   0.54739   0.00000  Uiso   1.00
H211   H     0.76389   0.73447   0.81627   0.00000  Uiso   1.00
H212   H     0.55508   0.96500   0.53710   0.00000  Uiso   1.00
H213   H     0.98623   0.74179   0.41033   0.00000  Uiso   1.00
H214   H     0.74180   0.64198   0.97733   0.00000  Uiso   1.00
H215   H     0.64906   0.61125   0.49722   0.00000  Uiso   1.00
H216   H     0.54808   0.69252   0.44340   0.00000  Uiso   1.00
H217   H     0.75255   0.58667   0.38327   0.00000  Uiso   1.00
H218   H     0.63664   0.53934   0.65215   0.00000  Uiso   1.00
H219   H     0.45180   0.80663   0.40389   0.00000  Uiso   1.00
H220   H     0.88295   0.58341   0.27712   0.00000  Uiso   1.00
H221   H     0.63852   0.48361   0.84412   0.00000  Uiso   1.00
O222   O     0.43921   0.94261   0.43787   0.00000  Uiso   1.00
O223   O     0.00486   0.64976   0.27157   0.00000  Uiso   1.00
O224   O     0.68417   0.51882   0.01546   0.00000  Uiso   1.00
N225   N     0.54463   0.91657   0.51315   0.00000  Uiso   1.00
N226   N     0.94772   0.70789   0.39462   0.00000  Uiso   1.00
N227   N     0.71922   0.61457   0.92471   0.00000  Uiso   1.00
N228   N     0.48905   0.83135   0.44147   0.00000  Uiso   1.00
N229   N     0.89215   0.62267   0.32294   0.00000  Uiso   1.00
N230   N     0.66364   0.52935   0.85303   0.00000  Uiso   1.00
C231   C     0.24204   0.25385   0.11716   0.00000  Uiso   1.00
C232   C     0.17405   0.27787   0.07099   0.00000  Uiso   1.00
C233   C     0.14784   0.34553   0.07209   0.00000  Uiso   1.00
C234   C     0.08480   0.35686   0.02572   0.00000  Uiso   1.00
C235   C     0.98464   0.40243   0.96096   0.00000  Uiso   1.00
C236   C     0.28514   0.22036   0.03831   0.00000  Uiso   1.00
C237   C     0.35234   0.23967   0.01194   0.00000  Uiso   1.00
C238   C     0.38282   0.20257   0.93807   0.00000  Uiso   1.00
C239   C     0.45516   0.15884   0.82261   0.00000  Uiso   1.00
C240   C     0.22216   0.19465   0.18440   0.00000  Uiso   1.00
C241   C     0.23642   0.19233   0.28087   0.00000  Uiso   1.00
C242   C     0.21388   0.13358   0.33000   0.00000  Uiso   1.00
C243   C     0.18842   0.04992   0.44137   0.00000  Uiso   1.00
C244   C     0.17669   0.15364   0.03286   0.00000  Uiso   1.00
C245   C     0.13856   0.22343   0.02520   0.00000  Uiso   1.00
C246   C     0.07554   0.23465   0.97883   0.00000  Uiso   1.00
C247   C     0.04924   0.30232   0.97986   0.00000  Uiso   1.00
C248   C     0.24965   0.16593   0.99252   0.00000  Uiso   1.00
C249   C     0.28004   0.12879   0.91868   0.00000  Uiso   1.00
C250   C     0.34726   0.14804   0.89220   0.00000  Uiso   1.00
C251   C     0.18666   0.14022   0.13862   0.00000  Uiso   1.00
C252   C     0.16411   0.08145   0.18760   0.00000  Uiso   1.00
C253   C     0.17832   0.07905   0.28413   0.00000  Uiso   1.00
H254   H     0.26968   0.29623   0.15280   0.00000  Uiso   1.00
H255   H     0.17533   0.38765   0.10752   0.00000  Uiso   1.00
H256   H     0.37980   0.28179   0.04739   0.00000  Uiso   1.00
H257   H     0.26389   0.23447   0.31627   0.00000  Uiso   1.00
H258   H     0.05508   0.46500   0.03710   0.00000  Uiso   1.00
H259   H     0.48623   0.24179   0.91033   0.00000  Uiso   1.00
H260   H     0.24180   0.14198   0.47733   0.00000  Uiso   1.00
H261   H     0.14906   0.11125   0.99722   0.00000  Uiso   1.00
H262   H     0.04808   0.19252   0.94340   0.00000  Uiso   1.00
H263   H     0.25255   0.08667   0.88327   0.00000  Uiso   1.00
H264   H     0.13664   0.03934   0.15215   0.00000  Uiso   1.00
H265   H     0.95180   0.30663   0.90389   0.00000  Uiso   1.00
H266   H     0.38295   0.08341   0.77712   0.00000  Uiso   1.00
H267   H     0.13852   0.98361   0.34412   0.00000  Uiso   1.00
O268   O     0.93921   0.44261   0.93787   0.00000  Uiso   1.00
O269   O     0.50486   0.14976   0.77157   0.00000  Uiso   1.00
O270   O     0.18417   0.01882   0.51546   0.00000  Uiso   1.00
N271   N     0.04463   0.41657   0.01315   0.00000  Uiso   1.00
N272   N     0.44772   0.20789   0.89462   0.00000  Uiso   1.00
N273   N     0.21922   0.11457   0.42471   0.00000  Uiso   1.00
N274   N     0.98905   0.33135   0.94147   0.00000  Uiso   1.00
N275   N     0.39215   0.12267   0.82294   0.00000  Uiso   1.00
N276   N     0.16364   0.02935   0.35303   0.00000  Uiso   1.00
C277   C     0.25796   0.24615   0.61716   0.00000  Uiso   1.00
C278   C     0.32595   0.22213   0.57099   0.00000  Uiso   1.00
C279   C     0.35216   0.15447   0.57209   0.00000  Uiso   1.00
C280   C     0.41520   0.14314   0.52572   0.00000  Uiso   1.00
C281   C     0.51536   0.09757   0.46096   0.00000  Uiso   1.00
C282   C     0.21486   0.27964   0.53831   0.00000  Uiso   1.00
C283   C     0.14766   0.26033   0.51194   0.00000  Uiso   1.00
C284   C     0.11718   0.29743   0.43807   0.00000  Uiso   1.00
C285   C     0.04484   0.34116   0.32261   0.00000  Uiso   1.00
C286   C     0.27784   0.30535   0.68440   0.00000  Uiso   1.00
C287   C     0.26358   0.30767   0.78087   0.00000  Uiso   1.00
C288   C     0.28612   0.36642   0.83000   0.00000  Uiso   1.00
C289   C     0.31158   0.45008   0.94137   0.00000  Uiso   1.00
C290   C     0.32331   0.34636   0.53286   0.00000  Uiso   1.00
C291   C     0.36144   0.27657   0.52520   0.00000  Uiso   1.00
C292   C     0.42446   0.26535   0.47883   0.00000  Uiso   1.00
C293   C     0.45076   0.19768   0.47986   0.00000  Uiso   1.00
C294   C     0.25035   0.33407   0.49252   0.00000  Uiso   1.00
C295   C     0.21996   0.37121   0.41868   0.00000  Uiso   1.00
C296   C     0.15274   0.35196   0.39220   0.00000  Uiso   1.00
C297   C     0.31334   0.35978   0.63862   0.00000  Uiso   1.00
C298   C     0.33589   0.41855   0.68760   0.00000  Uiso   1.00
C299   C     0.32168   0.42095   0.78413   0.00000  Uiso   1.00
H300   H     0.23032   0.20377   0.65280   0.00000  Uiso   1.00
H301   H     0.32467   0.11235   0.60752   0.00000  Uiso   1.00
H302   H     0.12020   0.21821   0.54739   0.00000  Uiso   1.00
H303   H     0.23611   0.26553   0.81627   0.00000  Uiso   1.00
H304   H     0.44492   0.03500   0.53710   0.00000  Uiso   1.00
H305   H     0.01377   0.25821   0.41033   0.00000  Uiso   1.00
H306   H     0.25820   0.35802   0.97733   0.00000  Uiso   1.00
H307   H     0.35094   0.38875   0.49722   0.00000  Uiso   1.00
H308   H     0.45192   0.30748   0.44340   0.00000  Uiso   1.00
H309   H     0.24745   0.41333   0.38327   0.00000  Uiso   1.00
H310   H     0.36336   0.46066   0.65215   0.00000  Uiso   1.00
H311   H     0.54820   0.19337   0.40389   0.00000  Uiso   1.00
H312   H     0.11705   0.41659   0.27712   0.00000  Uiso   1.00
H313   H     0.36148   0.51639   0.84412   0.00000  Uiso   1.00
O314   O     0.56079   0.05739   0.43787   0.00000  Uiso   1.00
O315   O     0.99514   0.35024   0.27157   0.00000  Uiso   1.00
O316   O     0.31583   0.48118   0.01546   0.00000  Uiso   1.00
N317   N     0.45537   0.08343   0.51315   0.00000  Uiso   1.00
N318   N     0.05228   0.29211   0.39462   0.00000  Uiso   1.00
N319   N     0.28078   0.38543   0.92471   0.00000  Uiso   1.00
N320   N     0.51095   0.16865   0.44147   0.00000  Uiso   1.00
N321   N     0.10785   0.37733   0.32294   0.00000  Uiso   1.00
N322   N     0.33636   0.47065   0.85303   0.00000  Uiso   1.00
C323   C     0.75796   0.74615   0.11716   0.00000  Uiso   1.00
C324   C     0.82595   0.72213   0.07099   0.00000  Uiso   1.00
C325   C     0.85216   0.65447   0.07209   0.00000  Uiso   1.00
C326   C     0.91520   0.64314   0.02572   0.00000  Uiso   1.00
C327   C     0.01536   0.59757   0.96096   0.00000  Uiso   1.00
C328   C     0.71486   0.77964   0.03831   0.00000  Uiso   1.00
C329   C     0.64766   0.76033   0.01194   0.00000  Uiso   1.00
C330   C     0.61718   0.79743   0.93807   0.00000  Uiso   1.00
C331   C     0.54484   0.84116   0.82261   0.00000  Uiso   1.00
C332   C     0.77784   0.80535   0.18440   0.00000  Uiso   1.00
C333   C     0.76358   0.80767   0.28087   0.00000  Uiso   1.00
C334   C     0.78612   0.86642   0.33000   0.00000  Uiso   1.00
C335   C     0.81158   0.95008   0.44137   0.00000  Uiso   1.00
C336   C     0.82331   0.84636   0.03286   0.00000  Uiso   1.00
C337   C     0.86144   0.77657   0.02520   0.00000  Uiso   1.00
C338   C     0.92446   0.76535   0.97883   0.00000  Uiso   1.00
C339   C     0.95076   0.69768   0.97986   0.00000  Uiso   1.00
C340   C     0.75035   0.83407   0.99252   0.00000  Uiso   1.00
C341   C     0.71996   0.87121   0.91868   0.00000  Uiso   1.00
C342   C     0.65274   0.85196   0.89220   0.00000  Uiso   1.00
C343   C     0.81334   0.85978   0.13862   0.00000  Uiso   1.00
C344   C     0.83589   0.91855   0.18760   0.00000  Uiso   1.00
C345   C     0.82168   0.92095   0.28413   0.00000  Uiso   1.00
H346   H     0.73032   0.70377   0.15280   0.00000  Uiso   1.00
H347   H     0.82467   0.61235   0.10752   0.00000  Uiso   1.00
H348   H     0.62020   0.71821   0.04739   0.00000  Uiso   1.00
H349   H     0.73611   0.76553   0.31627   0.00000  Uiso   1.00
H350   H     0.94492   0.53500   0.03710   0.00000  Uiso   1.00
H351   H     0.51377   0.75821   0.91033   0.00000  Uiso   1.00
H352   H     0.75820   0.85802   0.47733   0.00000  Uiso   1.00
H353   H     0.85094   0.88875   0.99722   0.00000  Uiso   1.00
H354   H     0.95192   0.80748   0.94340   0.00000  Uiso   1.00
H355   H     0.74745   0.91333   0.88327   0.00000  Uiso   1.00
H356   H     0.86336   0.96066   0.15215   0.00000  Uiso   1.00
H357   H     0.04820   0.69337   0.90389   0.00000  Uiso   1.00
H358   H     0.61705   0.91659   0.77712   0.00000  Uiso   1.00
H359   H     0.86148   0.01639   0.34412   0.00000  Uiso   1.00
O360   O     0.06079   0.55739   0.93787   0.00000  Uiso   1.00
O361   O     0.49514   0.85024   0.77157   0.00000  Uiso   1.00
O362   O     0.81583   0.98118   0.51546   0.00000  Uiso   1.00
N363   N     0.95537   0.58343   0.01315   0.00000  Uiso   1.00
N364   N     0.55228   0.79211   0.89462   0.00000  Uiso   1.00
N365   N     0.78078   0.88543   0.42471   0.00000  Uiso   1.00
N366   N     0.01095   0.66865   0.94147   0.00000  Uiso   1.00
N367   N     0.60785   0.87733   0.82294   0.00000  Uiso   1.00
N368   N     0.83636   0.97065   0.35303   0.00000  Uiso   1.00
