data_job_05446
_audit_creation_date              2018-12-19
_audit_creation_method            'Materials Studio'
_symmetry_space_group_name_H-M    'P1'
_symmetry_Int_Tables_number       1
_symmetry_cell_setting            triclinic
loop_
_symmetry_equiv_pos_as_xyz
  x,y,z
_cell_length_a                    18.9050
_cell_length_b                    18.9050
_cell_length_c                    12.2130
_cell_angle_alpha                 90.0000
_cell_angle_beta                  90.0000
_cell_angle_gamma                 120.0000
loop_
_atom_site_label
_atom_site_type_symbol
_atom_site_fract_x
_atom_site_fract_y
_atom_site_fract_z
_atom_site_U_iso_or_equiv
_atom_site_adp_type
_atom_site_occupancy
C1     C     0.97397   0.45976   0.61502   0.00000  Uiso   1.00
C2     C     0.99814   0.40264   0.55965   0.00000  Uiso   1.00
C3     C     0.07663   0.41442   0.55380   0.00000  Uiso   1.00
C4     C     0.08607   0.35513   0.49955   0.00000  Uiso   1.00
C5     C     0.13375   0.27689   0.42064   0.00000  Uiso   1.00
C6     C     0.93098   0.48217   0.52756   0.00000  Uiso   1.00
C7     C     0.95300   0.56083   0.49473   0.00000  Uiso   1.00
C8     C     0.90590   0.56848   0.41346   0.00000  Uiso   1.00
C9     C     0.84927   0.61372   0.28478   0.00000  Uiso   1.00
C10    C     0.90864   0.40795   0.69893   0.00000  Uiso   1.00
C11    C     0.91187   0.42421   0.81019   0.00000  Uiso   1.00
C12    C     0.84595   0.36939   0.87321   0.00000  Uiso   1.00
C13    C     0.75464   0.29939   0.01060   0.00000  Uiso   1.00
C14    C     0.85117   0.33350   0.52907   0.00000  Uiso   1.00
C15    C     0.93144   0.33406   0.51297   0.00000  Uiso   1.00
C16    C     0.94076   0.27473   0.45871   0.00000  Uiso   1.00
C17    C     0.01925   0.28642   0.45278   0.00000  Uiso   1.00
C18    C     0.86428   0.41360   0.48087   0.00000  Uiso   1.00
C19    C     0.81713   0.42114   0.39964   0.00000  Uiso   1.00
C20    C     0.83907   0.49978   0.36670   0.00000  Uiso   1.00
C21    C     0.84194   0.33937   0.65225   0.00000  Uiso   1.00
C22    C     0.77600   0.28452   0.71510   0.00000  Uiso   1.00
C23    C     0.77913   0.30069   0.82644   0.00000  Uiso   1.00
H24    H     0.02590   0.51316   0.65136   0.00000  Uiso   1.00
H25    H     0.12823   0.46751   0.58993   0.00000  Uiso   1.00
H26    H     0.00461   0.61389   0.53088   0.00000  Uiso   1.00
H27    H     0.96349   0.47729   0.84629   0.00000  Uiso   1.00
H28    H     0.21227   0.38667   0.50121   0.00000  Uiso   1.00
H29    H     0.95160   0.69532   0.37672   0.00000  Uiso   1.00
H30    H     0.86489   0.40728   0.04183   0.00000  Uiso   1.00
H31    H     0.79924   0.28011   0.49272   0.00000  Uiso   1.00
H32    H     0.88913   0.22167   0.42259   0.00000  Uiso   1.00
H33    H     0.76552   0.36805   0.36354   0.00000  Uiso   1.00
H34    H     0.72440   0.23145   0.67895   0.00000  Uiso   1.00
H35    H     0.01821   0.18714   0.36539   0.00000  Uiso   1.00
H36    H     0.75754   0.49579   0.24090   0.00000  Uiso   1.00
H37    H     0.67083   0.20775   0.90600   0.00000  Uiso   1.00
O38    O     0.17847   0.25268   0.39000   0.00000  Uiso   1.00
O39    O     0.83648   0.65762   0.22669   0.00000  Uiso   1.00
O40    O     0.72271   0.27971   0.09929   0.00000  Uiso   1.00
N41    N     0.15426   0.34772   0.47889   0.00000  Uiso   1.00
N42    N     0.91056   0.63629   0.36248   0.00000  Uiso   1.00
N43    N     0.82948   0.36701   0.98430   0.00000  Uiso   1.00
N44    N     0.04984   0.24036   0.40580   0.00000  Uiso   1.00
N45    N     0.80614   0.52893   0.28940   0.00000  Uiso   1.00
N46    N     0.72506   0.25964   0.91121   0.00000  Uiso   1.00
C47    C     0.54024   0.51421   0.61502   0.00000  Uiso   1.00
C48    C     0.59736   0.59550   0.55965   0.00000  Uiso   1.00
C49    C     0.58558   0.66220   0.55380   0.00000  Uiso   1.00
C50    C     0.64487   0.73094   0.49955   0.00000  Uiso   1.00
C51    C     0.72311   0.85686   0.42064   0.00000  Uiso   1.00
C52    C     0.51783   0.44881   0.52756   0.00000  Uiso   1.00
C53    C     0.43917   0.39217   0.49473   0.00000  Uiso   1.00
C54    C     0.43152   0.33741   0.41346   0.00000  Uiso   1.00
C55    C     0.38628   0.23555   0.28478   0.00000  Uiso   1.00
C56    C     0.59205   0.50069   0.69893   0.00000  Uiso   1.00
C57    C     0.57579   0.48765   0.81019   0.00000  Uiso   1.00
C58    C     0.63061   0.47656   0.87321   0.00000  Uiso   1.00
C59    C     0.70061   0.45526   0.01060   0.00000  Uiso   1.00
C60    C     0.66650   0.51767   0.52907   0.00000  Uiso   1.00
C61    C     0.66594   0.59737   0.51297   0.00000  Uiso   1.00
C62    C     0.72527   0.66603   0.45871   0.00000  Uiso   1.00
C63    C     0.71358   0.73283   0.45278   0.00000  Uiso   1.00
C64    C     0.58640   0.45068   0.48087   0.00000  Uiso   1.00
C65    C     0.57886   0.39599   0.39964   0.00000  Uiso   1.00
C66    C     0.50022   0.33929   0.36670   0.00000  Uiso   1.00
C67    C     0.66063   0.50257   0.65225   0.00000  Uiso   1.00
C68    C     0.71548   0.49149   0.71510   0.00000  Uiso   1.00
C69    C     0.69931   0.47844   0.82644   0.00000  Uiso   1.00
H70    H     0.48684   0.51274   0.65136   0.00000  Uiso   1.00
H71    H     0.53249   0.66072   0.58993   0.00000  Uiso   1.00
H72    H     0.38611   0.39072   0.53088   0.00000  Uiso   1.00
H73    H     0.52271   0.48620   0.84629   0.00000  Uiso   1.00
H74    H     0.61333   0.82560   0.50121   0.00000  Uiso   1.00
H75    H     0.30468   0.25628   0.37672   0.00000  Uiso   1.00
H76    H     0.59272   0.45761   0.04183   0.00000  Uiso   1.00
H77    H     0.71989   0.51913   0.49272   0.00000  Uiso   1.00
H78    H     0.77833   0.66746   0.42259   0.00000  Uiso   1.00
H79    H     0.63195   0.39746   0.36354   0.00000  Uiso   1.00
H80    H     0.76855   0.49294   0.67895   0.00000  Uiso   1.00
H81    H     0.81286   0.83107   0.36539   0.00000  Uiso   1.00
H82    H     0.50421   0.26175   0.24090   0.00000  Uiso   1.00
H83    H     0.79225   0.46308   0.90600   0.00000  Uiso   1.00
O84    O     0.74732   0.92579   0.39000   0.00000  Uiso   1.00
O85    O     0.34238   0.17885   0.22669   0.00000  Uiso   1.00
O86    O     0.72029   0.44300   0.09929   0.00000  Uiso   1.00
N87    N     0.65228   0.80654   0.47889   0.00000  Uiso   1.00
N88    N     0.36371   0.27426   0.36248   0.00000  Uiso   1.00
N89    N     0.63299   0.46247   0.98430   0.00000  Uiso   1.00
N90    N     0.75964   0.80948   0.40580   0.00000  Uiso   1.00
N91    N     0.47107   0.27721   0.28940   0.00000  Uiso   1.00
N92    N     0.74036   0.46542   0.91121   0.00000  Uiso   1.00
C93    C     0.48579   0.02603   0.61502   0.00000  Uiso   1.00
C94    C     0.40450   0.00186   0.55965   0.00000  Uiso   1.00
C95    C     0.33780   0.92337   0.55380   0.00000  Uiso   1.00
C96    C     0.26906   0.91393   0.49955   0.00000  Uiso   1.00
C97    C     0.14314   0.86625   0.42064   0.00000  Uiso   1.00
C98    C     0.55119   0.06902   0.52756   0.00000  Uiso   1.00
C99    C     0.60783   0.04700   0.49473   0.00000  Uiso   1.00
C100   C     0.66259   0.09410   0.41346   0.00000  Uiso   1.00
C101   C     0.76445   0.15073   0.28478   0.00000  Uiso   1.00
C102   C     0.49931   0.09136   0.69893   0.00000  Uiso   1.00
C103   C     0.51235   0.08813   0.81019   0.00000  Uiso   1.00
C104   C     0.52344   0.15405   0.87321   0.00000  Uiso   1.00
C105   C     0.54474   0.24536   0.01060   0.00000  Uiso   1.00
C106   C     0.48233   0.14883   0.52907   0.00000  Uiso   1.00
C107   C     0.40263   0.06856   0.51297   0.00000  Uiso   1.00
C108   C     0.33397   0.05924   0.45871   0.00000  Uiso   1.00
C109   C     0.26717   0.98075   0.45278   0.00000  Uiso   1.00
C110   C     0.54932   0.13572   0.48087   0.00000  Uiso   1.00
C111   C     0.60401   0.18287   0.39964   0.00000  Uiso   1.00
C112   C     0.66071   0.16093   0.36670   0.00000  Uiso   1.00
C113   C     0.49743   0.15806   0.65225   0.00000  Uiso   1.00
C114   C     0.50851   0.22400   0.71510   0.00000  Uiso   1.00
C115   C     0.52156   0.22087   0.82644   0.00000  Uiso   1.00
H116   H     0.48726   0.97410   0.65136   0.00000  Uiso   1.00
H117   H     0.33928   0.87177   0.58993   0.00000  Uiso   1.00
H118   H     0.60928   0.99539   0.53088   0.00000  Uiso   1.00
H119   H     0.51380   0.03651   0.84629   0.00000  Uiso   1.00
H120   H     0.17440   0.78773   0.50121   0.00000  Uiso   1.00
H121   H     0.74372   0.04840   0.37672   0.00000  Uiso   1.00
H122   H     0.54239   0.13511   0.04183   0.00000  Uiso   1.00
H123   H     0.48087   0.20076   0.49272   0.00000  Uiso   1.00
H124   H     0.33254   0.11087   0.42259   0.00000  Uiso   1.00
H125   H     0.60254   0.23448   0.36354   0.00000  Uiso   1.00
H126   H     0.50706   0.27560   0.67895   0.00000  Uiso   1.00
H127   H     0.16893   0.98179   0.36539   0.00000  Uiso   1.00
H128   H     0.73825   0.24246   0.24090   0.00000  Uiso   1.00
H129   H     0.53692   0.32917   0.90600   0.00000  Uiso   1.00
O130   O     0.07421   0.82153   0.39000   0.00000  Uiso   1.00
O131   O     0.82115   0.16352   0.22669   0.00000  Uiso   1.00
O132   O     0.55700   0.27729   0.09929   0.00000  Uiso   1.00
N133   N     0.19346   0.84574   0.47889   0.00000  Uiso   1.00
N134   N     0.72574   0.08944   0.36248   0.00000  Uiso   1.00
N135   N     0.53753   0.17052   0.98430   0.00000  Uiso   1.00
N136   N     0.19052   0.95016   0.40580   0.00000  Uiso   1.00
N137   N     0.72279   0.19386   0.28940   0.00000  Uiso   1.00
N138   N     0.53458   0.27494   0.91121   0.00000  Uiso   1.00
C139   C     0.02603   0.54024   0.11502   0.00000  Uiso   1.00
C140   C     0.00186   0.59736   0.05965   0.00000  Uiso   1.00
C141   C     0.92337   0.58558   0.05380   0.00000  Uiso   1.00
C142   C     0.91393   0.64487   0.99955   0.00000  Uiso   1.00
C143   C     0.86625   0.72311   0.92064   0.00000  Uiso   1.00
C144   C     0.06902   0.51783   0.02756   0.00000  Uiso   1.00
C145   C     0.04700   0.43917   0.99473   0.00000  Uiso   1.00
C146   C     0.09410   0.43152   0.91346   0.00000  Uiso   1.00
C147   C     0.15073   0.38628   0.78478   0.00000  Uiso   1.00
C148   C     0.09136   0.59205   0.19893   0.00000  Uiso   1.00
C149   C     0.08813   0.57579   0.31019   0.00000  Uiso   1.00
C150   C     0.15405   0.63061   0.37321   0.00000  Uiso   1.00
C151   C     0.24536   0.70061   0.51060   0.00000  Uiso   1.00
C152   C     0.14883   0.66650   0.02907   0.00000  Uiso   1.00
C153   C     0.06856   0.66594   0.01297   0.00000  Uiso   1.00
C154   C     0.05924   0.72527   0.95871   0.00000  Uiso   1.00
C155   C     0.98075   0.71358   0.95278   0.00000  Uiso   1.00
C156   C     0.13572   0.58640   0.98087   0.00000  Uiso   1.00
C157   C     0.18287   0.57886   0.89964   0.00000  Uiso   1.00
C158   C     0.16093   0.50022   0.86670   0.00000  Uiso   1.00
C159   C     0.15806   0.66063   0.15225   0.00000  Uiso   1.00
C160   C     0.22400   0.71548   0.21510   0.00000  Uiso   1.00
C161   C     0.22087   0.69931   0.32644   0.00000  Uiso   1.00
H162   H     0.97410   0.48684   0.15136   0.00000  Uiso   1.00
H163   H     0.87177   0.53249   0.08993   0.00000  Uiso   1.00
H164   H     0.99539   0.38611   0.03088   0.00000  Uiso   1.00
H165   H     0.03651   0.52271   0.34629   0.00000  Uiso   1.00
H166   H     0.78773   0.61333   0.00121   0.00000  Uiso   1.00
H167   H     0.04840   0.30468   0.87672   0.00000  Uiso   1.00
H168   H     0.13511   0.59272   0.54183   0.00000  Uiso   1.00
H169   H     0.20076   0.71989   0.99272   0.00000  Uiso   1.00
H170   H     0.11087   0.77833   0.92259   0.00000  Uiso   1.00
H171   H     0.23448   0.63195   0.86354   0.00000  Uiso   1.00
H172   H     0.27560   0.76855   0.17895   0.00000  Uiso   1.00
H173   H     0.98179   0.81286   0.86539   0.00000  Uiso   1.00
H174   H     0.24246   0.50421   0.74090   0.00000  Uiso   1.00
H175   H     0.32917   0.79225   0.40600   0.00000  Uiso   1.00
O176   O     0.82153   0.74732   0.89000   0.00000  Uiso   1.00
O177   O     0.16352   0.34238   0.72669   0.00000  Uiso   1.00
O178   O     0.27729   0.72029   0.59929   0.00000  Uiso   1.00
N179   N     0.84574   0.65228   0.97889   0.00000  Uiso   1.00
N180   N     0.08944   0.36371   0.86248   0.00000  Uiso   1.00
N181   N     0.17052   0.63299   0.48430   0.00000  Uiso   1.00
N182   N     0.95016   0.75964   0.90580   0.00000  Uiso   1.00
N183   N     0.19386   0.47107   0.78940   0.00000  Uiso   1.00
N184   N     0.27494   0.74036   0.41121   0.00000  Uiso   1.00
C185   C     0.45976   0.48579   0.11502   0.00000  Uiso   1.00
C186   C     0.40264   0.40450   0.05965   0.00000  Uiso   1.00
C187   C     0.41442   0.33780   0.05380   0.00000  Uiso   1.00
C188   C     0.35513   0.26906   0.99955   0.00000  Uiso   1.00
C189   C     0.27689   0.14314   0.92064   0.00000  Uiso   1.00
C190   C     0.48217   0.55119   0.02756   0.00000  Uiso   1.00
C191   C     0.56083   0.60783   0.99473   0.00000  Uiso   1.00
C192   C     0.56848   0.66259   0.91346   0.00000  Uiso   1.00
C193   C     0.61372   0.76445   0.78478   0.00000  Uiso   1.00
C194   C     0.40795   0.49931   0.19893   0.00000  Uiso   1.00
C195   C     0.42421   0.51235   0.31019   0.00000  Uiso   1.00
C196   C     0.36939   0.52344   0.37321   0.00000  Uiso   1.00
C197   C     0.29939   0.54474   0.51060   0.00000  Uiso   1.00
C198   C     0.33350   0.48233   0.02907   0.00000  Uiso   1.00
C199   C     0.33406   0.40263   0.01297   0.00000  Uiso   1.00
C200   C     0.27473   0.33397   0.95871   0.00000  Uiso   1.00
C201   C     0.28642   0.26717   0.95278   0.00000  Uiso   1.00
C202   C     0.41360   0.54932   0.98087   0.00000  Uiso   1.00
C203   C     0.42114   0.60401   0.89964   0.00000  Uiso   1.00
C204   C     0.49978   0.66071   0.86670   0.00000  Uiso   1.00
C205   C     0.33937   0.49743   0.15225   0.00000  Uiso   1.00
C206   C     0.28452   0.50851   0.21510   0.00000  Uiso   1.00
C207   C     0.30069   0.52156   0.32644   0.00000  Uiso   1.00
H208   H     0.51316   0.48726   0.15136   0.00000  Uiso   1.00
H209   H     0.46751   0.33928   0.08993   0.00000  Uiso   1.00
H210   H     0.61389   0.60928   0.03088   0.00000  Uiso   1.00
H211   H     0.47729   0.51380   0.34629   0.00000  Uiso   1.00
H212   H     0.38667   0.17440   0.00121   0.00000  Uiso   1.00
H213   H     0.69532   0.74372   0.87672   0.00000  Uiso   1.00
H214   H     0.40728   0.54239   0.54183   0.00000  Uiso   1.00
H215   H     0.28011   0.48087   0.99272   0.00000  Uiso   1.00
H216   H     0.22167   0.33254   0.92259   0.00000  Uiso   1.00
H217   H     0.36805   0.60254   0.86354   0.00000  Uiso   1.00
H218   H     0.23145   0.50706   0.17895   0.00000  Uiso   1.00
H219   H     0.18714   0.16893   0.86539   0.00000  Uiso   1.00
H220   H     0.49579   0.73825   0.74090   0.00000  Uiso   1.00
H221   H     0.20775   0.53692   0.40600   0.00000  Uiso   1.00
O222   O     0.25268   0.07421   0.89000   0.00000  Uiso   1.00
O223   O     0.65762   0.82115   0.72669   0.00000  Uiso   1.00
O224   O     0.27971   0.55700   0.59929   0.00000  Uiso   1.00
N225   N     0.34772   0.19346   0.97889   0.00000  Uiso   1.00
N226   N     0.63629   0.72574   0.86248   0.00000  Uiso   1.00
N227   N     0.36701   0.53753   0.48430   0.00000  Uiso   1.00
N228   N     0.24036   0.19052   0.90580   0.00000  Uiso   1.00
N229   N     0.52893   0.72279   0.78940   0.00000  Uiso   1.00
N230   N     0.25964   0.53458   0.41121   0.00000  Uiso   1.00
C231   C     0.51421   0.97397   0.11502   0.00000  Uiso   1.00
C232   C     0.59550   0.99814   0.05965   0.00000  Uiso   1.00
C233   C     0.66220   0.07663   0.05380   0.00000  Uiso   1.00
C234   C     0.73094   0.08607   0.99955   0.00000  Uiso   1.00
C235   C     0.85686   0.13375   0.92064   0.00000  Uiso   1.00
C236   C     0.44881   0.93098   0.02756   0.00000  Uiso   1.00
C237   C     0.39217   0.95300   0.99473   0.00000  Uiso   1.00
C238   C     0.33741   0.90590   0.91346   0.00000  Uiso   1.00
C239   C     0.23555   0.84927   0.78478   0.00000  Uiso   1.00
C240   C     0.50069   0.90864   0.19893   0.00000  Uiso   1.00
C241   C     0.48765   0.91187   0.31019   0.00000  Uiso   1.00
C242   C     0.47656   0.84595   0.37321   0.00000  Uiso   1.00
C243   C     0.45526   0.75464   0.51060   0.00000  Uiso   1.00
C244   C     0.51767   0.85117   0.02907   0.00000  Uiso   1.00
C245   C     0.59737   0.93144   0.01297   0.00000  Uiso   1.00
C246   C     0.66603   0.94076   0.95871   0.00000  Uiso   1.00
C247   C     0.73283   0.01925   0.95278   0.00000  Uiso   1.00
C248   C     0.45068   0.86428   0.98087   0.00000  Uiso   1.00
C249   C     0.39599   0.81713   0.89964   0.00000  Uiso   1.00
C250   C     0.33929   0.83907   0.86670   0.00000  Uiso   1.00
C251   C     0.50257   0.84194   0.15225   0.00000  Uiso   1.00
C252   C     0.49149   0.77600   0.21510   0.00000  Uiso   1.00
C253   C     0.47844   0.77913   0.32644   0.00000  Uiso   1.00
H254   H     0.51274   0.02590   0.15136   0.00000  Uiso   1.00
H255   H     0.66072   0.12823   0.08993   0.00000  Uiso   1.00
H256   H     0.39072   0.00461   0.03088   0.00000  Uiso   1.00
H257   H     0.48620   0.96349   0.34629   0.00000  Uiso   1.00
H258   H     0.82560   0.21227   0.00121   0.00000  Uiso   1.00
H259   H     0.25628   0.95160   0.87672   0.00000  Uiso   1.00
H260   H     0.45761   0.86489   0.54183   0.00000  Uiso   1.00
H261   H     0.51913   0.79924   0.99272   0.00000  Uiso   1.00
H262   H     0.66746   0.88913   0.92259   0.00000  Uiso   1.00
H263   H     0.39746   0.76552   0.86354   0.00000  Uiso   1.00
H264   H     0.49294   0.72440   0.17895   0.00000  Uiso   1.00
H265   H     0.83107   0.01821   0.86539   0.00000  Uiso   1.00
H266   H     0.26175   0.75754   0.74090   0.00000  Uiso   1.00
H267   H     0.46308   0.67083   0.40600   0.00000  Uiso   1.00
O268   O     0.92579   0.17847   0.89000   0.00000  Uiso   1.00
O269   O     0.17885   0.83648   0.72669   0.00000  Uiso   1.00
O270   O     0.44300   0.72271   0.59929   0.00000  Uiso   1.00
N271   N     0.80654   0.15426   0.97889   0.00000  Uiso   1.00
N272   N     0.27426   0.91056   0.86248   0.00000  Uiso   1.00
N273   N     0.46247   0.82948   0.48430   0.00000  Uiso   1.00
N274   N     0.80948   0.04984   0.90580   0.00000  Uiso   1.00
N275   N     0.27721   0.80614   0.78940   0.00000  Uiso   1.00
N276   N     0.46542   0.72506   0.41121   0.00000  Uiso   1.00
