data_job_06056
_audit_creation_date              2018-12-19
_audit_creation_method            'Materials Studio'
_symmetry_space_group_name_H-M    'P1'
_symmetry_Int_Tables_number       1
_symmetry_cell_setting            triclinic
loop_
_symmetry_equiv_pos_as_xyz
  x,y,z
_cell_length_a                    16.6490
_cell_length_b                    16.2800
_cell_length_c                    15.5764
_cell_angle_alpha                 98.8600
_cell_angle_beta                  99.0432
_cell_angle_gamma                 98.2440
loop_
_atom_site_label
_atom_site_type_symbol
_atom_site_fract_x
_atom_site_fract_y
_atom_site_fract_z
_atom_site_U_iso_or_equiv
_atom_site_adp_type
_atom_site_occupancy
C1     C     0.74164   0.11647   0.24374   0.00000  Uiso   1.00
C2     C     0.73846   0.04833   0.16365   0.00000  Uiso   1.00
C3     C     0.78964   0.98825   0.15831   0.00000  Uiso   1.00
C4     C     0.77688   0.93143   0.07927   0.00000  Uiso   1.00
C5     C     0.78137   0.82517   0.96572   0.00000  Uiso   1.00
C6     C     0.75308   0.20031   0.21119   0.00000  Uiso   1.00
C7     C     0.81655   0.26801   0.24582   0.00000  Uiso   1.00
C8     C     0.81609   0.33912   0.20679   0.00000  Uiso   1.00
C9     C     0.84324   0.46884   0.16709   0.00000  Uiso   1.00
C10    C     0.65548   0.10482   0.26667   0.00000  Uiso   1.00
C11    C     0.63688   0.09225   0.34796   0.00000  Uiso   1.00
C12    C     0.55424   0.08299   0.35565   0.00000  Uiso   1.00
C13    C     0.42985   0.06443   0.40208   0.00000  Uiso   1.00
C14    C     0.62796   0.12238   0.11285   0.00000  Uiso   1.00
C15    C     0.67672   0.05155   0.09256   0.00000  Uiso   1.00
C16    C     0.66387   0.99479   0.01350   0.00000  Uiso   1.00
C17    C     0.71503   0.93464   0.00805   0.00000  Uiso   1.00
C18    C     0.69134   0.20352   0.14009   0.00000  Uiso   1.00
C19    C     0.69078   0.27455   0.10101   0.00000  Uiso   1.00
C20    C     0.75423   0.34234   0.13557   0.00000  Uiso   1.00
C21    C     0.59373   0.10803   0.19557   0.00000  Uiso   1.00
C22    C     0.51111   0.09879   0.20314   0.00000  Uiso   1.00
C23    C     0.49239   0.08620   0.28443   0.00000  Uiso   1.00
H24    H     0.78971   0.11397   0.29909   0.00000  Uiso   1.00
H25    H     0.83743   0.98580   0.21335   0.00000  Uiso   1.00
H26    H     0.86432   0.26551   0.30085   0.00000  Uiso   1.00
H27    H     0.68468   0.08977   0.40296   0.00000  Uiso   1.00
H28    H     0.86311   0.84512   0.08692   0.00000  Uiso   1.00
H29    H     0.91981   0.43493   0.27144   0.00000  Uiso   1.00
H30    H     0.54100   0.06435   0.48678   0.00000  Uiso   1.00
H31    H     0.57989   0.12488   0.05749   0.00000  Uiso   1.00
H32    H     0.61609   0.99729   0.95849   0.00000  Uiso   1.00
H33    H     0.64299   0.27702   0.04600   0.00000  Uiso   1.00
H34    H     0.46334   0.10127   0.14811   0.00000  Uiso   1.00
H35    H     0.68347   0.85445   0.88007   0.00000  Uiso   1.00
H36    H     0.74017   0.44427   0.06460   0.00000  Uiso   1.00
H37    H     0.36136   0.07369   0.27993   0.00000  Uiso   1.00
O38    O     0.80091   0.76568   0.92272   0.00000  Uiso   1.00
O39    O     0.87528   0.53949   0.16482   0.00000  Uiso   1.00
O40    O     0.37829   0.05330   0.44733   0.00000  Uiso   1.00
N41    N     0.81586   0.86482   0.05183   0.00000  Uiso   1.00
N42    N     0.86887   0.41625   0.22434   0.00000  Uiso   1.00
N43    N     0.51472   0.06981   0.42567   0.00000  Uiso   1.00
N44    N     0.71919   0.86984   0.94053   0.00000  Uiso   1.00
N45    N     0.77221   0.42127   0.11304   0.00000  Uiso   1.00
N46    N     0.41805   0.07483   0.31437   0.00000  Uiso   1.00
C47    C     0.24258   0.74193   0.12016   0.00000  Uiso   1.00
C48    C     0.16771   0.73876   0.04862   0.00000  Uiso   1.00
C49    C     0.16234   0.79085   0.98605   0.00000  Uiso   1.00
C50    C     0.08851   0.77793   0.92629   0.00000  Uiso   1.00
C51    C     0.98228   0.78259   0.81481   0.00000  Uiso   1.00
C52    C     0.21203   0.75414   0.20780   0.00000  Uiso   1.00
C53    C     0.24393   0.81915   0.27907   0.00000  Uiso   1.00
C54    C     0.20741   0.81917   0.35331   0.00000  Uiso   1.00
C55    C     0.17003   0.84767   0.48898   0.00000  Uiso   1.00
C56    C     0.26469   0.65369   0.10758   0.00000  Uiso   1.00
C57    C     0.34088   0.63423   0.09461   0.00000  Uiso   1.00
C58    C     0.34870   0.54968   0.08449   0.00000  Uiso   1.00
C59    C     0.39309   0.42221   0.06456   0.00000  Uiso   1.00
C60    C     0.12102   0.62636   0.12529   0.00000  Uiso   1.00
C61    C     0.10168   0.67599   0.05141   0.00000  Uiso   1.00
C62    C     0.02784   0.66298   0.99172   0.00000  Uiso   1.00
C63    C     0.02236   0.71504   0.92907   0.00000  Uiso   1.00
C64    C     0.14600   0.69137   0.21059   0.00000  Uiso   1.00
C65    C     0.10943   0.69129   0.28474   0.00000  Uiso   1.00
C66    C     0.14126   0.75629   0.35610   0.00000  Uiso   1.00
C67    C     0.19866   0.59091   0.11037   0.00000  Uiso   1.00
C68    C     0.20638   0.50637   0.10028   0.00000  Uiso   1.00
C69    C     0.28256   0.48679   0.08728   0.00000  Uiso   1.00
H70    H     0.29399   0.79080   0.11800   0.00000  Uiso   1.00
H71    H     0.21345   0.83943   0.98392   0.00000  Uiso   1.00
H72    H     0.29503   0.86772   0.27690   0.00000  Uiso   1.00
H73    H     0.39196   0.68283   0.09246   0.00000  Uiso   1.00
H74    H     0.09503   0.86567   0.83652   0.00000  Uiso   1.00
H75    H     0.26707   0.92531   0.45428   0.00000  Uiso   1.00
H76    H     0.47146   0.53544   0.06537   0.00000  Uiso   1.00
H77    H     0.06961   0.57748   0.12746   0.00000  Uiso   1.00
H78    H     0.97675   0.61440   0.99389   0.00000  Uiso   1.00
H79    H     0.05834   0.64270   0.28687   0.00000  Uiso   1.00
H80    H     0.15527   0.45781   0.10243   0.00000  Uiso   1.00
H81    H     0.90292   0.68304   0.84462   0.00000  Uiso   1.00
H82    H     0.07496   0.74268   0.46238   0.00000  Uiso   1.00
H83    H     0.27935   0.35280   0.07346   0.00000  Uiso   1.00
O84    O     0.94193   0.80251   0.75256   0.00000  Uiso   1.00
O85    O     0.16765   0.88075   0.56304   0.00000  Uiso   1.00
O86    O     0.43581   0.36924   0.05279   0.00000  Uiso   1.00
N87    N     0.06256   0.81761   0.85675   0.00000  Uiso   1.00
N88    N     0.22340   0.87338   0.43431   0.00000  Uiso   1.00
N89    N     0.41450   0.50888   0.07073   0.00000  Uiso   1.00
N90    N     0.95919   0.71934   0.86110   0.00000  Uiso   1.00
N91    N     0.12003   0.77511   0.43867   0.00000  Uiso   1.00
N92    N     0.31113   0.41061   0.07509   0.00000  Uiso   1.00
C93    C     0.11462   0.24260   0.74264   0.00000  Uiso   1.00
C94    C     0.04828   0.16638   0.73868   0.00000  Uiso   1.00
C95    C     0.98978   0.16141   0.79291   0.00000  Uiso   1.00
C96    C     0.93445   0.08616   0.77880   0.00000  Uiso   1.00
C97    C     0.83098   0.97811   0.78273   0.00000  Uiso   1.00
C98    C     0.19683   0.21100   0.75553   0.00000  Uiso   1.00
C99    C     0.26324   0.24356   0.82394   0.00000  Uiso   1.00
C100   C     0.33295   0.20587   0.82400   0.00000  Uiso   1.00
C101   C     0.46014   0.16714   0.85406   0.00000  Uiso   1.00
C102   C     0.10271   0.26488   0.65043   0.00000  Uiso   1.00
C103   C     0.09000   0.34274   0.63046   0.00000  Uiso   1.00
C104   C     0.08049   0.35042   0.54204   0.00000  Uiso   1.00
C105   C     0.06154   0.39534   0.40891   0.00000  Uiso   1.00
C106   C     0.12037   0.11780   0.62112   0.00000  Uiso   1.00
C107   C     0.05141   0.09859   0.67268   0.00000  Uiso   1.00
C108   C     0.99614   0.02333   0.65848   0.00000  Uiso   1.00
C109   C     0.93757   0.01825   0.71268   0.00000  Uiso   1.00
C110   C     0.19996   0.14322   0.68954   0.00000  Uiso   1.00
C111   C     0.26959   0.10548   0.68950   0.00000  Uiso   1.00
C112   C     0.33609   0.13797   0.75789   0.00000  Uiso   1.00
C113   C     0.10583   0.19709   0.58443   0.00000  Uiso   1.00
C114   C     0.09635   0.20466   0.49602   0.00000  Uiso   1.00
C115   C     0.08362   0.28252   0.47592   0.00000  Uiso   1.00
H116   H     0.11220   0.29537   0.79402   0.00000  Uiso   1.00
H117   H     0.98739   0.21388   0.84399   0.00000  Uiso   1.00
H118   H     0.26080   0.29602   0.87500   0.00000  Uiso   1.00
H119   H     0.08758   0.39518   0.68155   0.00000  Uiso   1.00
H120   H     0.85041   0.09363   0.87030   0.00000  Uiso   1.00
H121   H     0.42693   0.26684   0.93567   0.00000  Uiso   1.00
H122   H     0.06167   0.47595   0.52775   0.00000  Uiso   1.00
H123   H     0.12281   0.06502   0.56974   0.00000  Uiso   1.00
H124   H     0.99857   0.97089   0.60740   0.00000  Uiso   1.00
H125   H     0.27199   0.05303   0.63841   0.00000  Uiso   1.00
H126   H     0.09877   0.15219   0.44496   0.00000  Uiso   1.00
H127   H     0.85949   0.89640   0.67828   0.00000  Uiso   1.00
H128   H     0.43601   0.06962   0.74365   0.00000  Uiso   1.00
H129   H     0.07075   0.27873   0.33573   0.00000  Uiso   1.00
O130   O     0.77306   0.93724   0.80313   0.00000  Uiso   1.00
O131   O     0.52943   0.16450   0.88888   0.00000  Uiso   1.00
O132   O     0.05021   0.43884   0.35371   0.00000  Uiso   1.00
N133   N     0.86959   0.06013   0.81993   0.00000  Uiso   1.00
N134   N     0.40859   0.22207   0.88105   0.00000  Uiso   1.00
N135   N     0.06712   0.41758   0.49969   0.00000  Uiso   1.00
N136   N     0.87447   0.95401   0.71660   0.00000  Uiso   1.00
N137   N     0.41348   0.11595   0.77773   0.00000  Uiso   1.00
N138   N     0.07201   0.31145   0.39636   0.00000  Uiso   1.00
C139   C     0.25836   0.88353   0.75626   0.00000  Uiso   1.00
C140   C     0.26154   0.95167   0.83635   0.00000  Uiso   1.00
C141   C     0.21035   0.01175   0.84169   0.00000  Uiso   1.00
C142   C     0.22311   0.06857   0.92073   0.00000  Uiso   1.00
C143   C     0.21863   0.17483   0.03428   0.00000  Uiso   1.00
C144   C     0.24692   0.79969   0.78881   0.00000  Uiso   1.00
C145   C     0.18345   0.73198   0.75418   0.00000  Uiso   1.00
C146   C     0.18391   0.66087   0.79320   0.00000  Uiso   1.00
C147   C     0.15676   0.53116   0.83291   0.00000  Uiso   1.00
C148   C     0.34452   0.89518   0.73333   0.00000  Uiso   1.00
C149   C     0.36312   0.90775   0.65204   0.00000  Uiso   1.00
C150   C     0.44576   0.91701   0.64435   0.00000  Uiso   1.00
C151   C     0.57015   0.93557   0.59792   0.00000  Uiso   1.00
C152   C     0.37204   0.87762   0.88715   0.00000  Uiso   1.00
C153   C     0.32328   0.94845   0.90744   0.00000  Uiso   1.00
C154   C     0.33613   0.00521   0.98650   0.00000  Uiso   1.00
C155   C     0.28497   0.06536   0.99195   0.00000  Uiso   1.00
C156   C     0.30866   0.79648   0.85991   0.00000  Uiso   1.00
C157   C     0.30922   0.72545   0.89899   0.00000  Uiso   1.00
C158   C     0.24577   0.65766   0.86443   0.00000  Uiso   1.00
C159   C     0.40627   0.89197   0.80443   0.00000  Uiso   1.00
C160   C     0.48889   0.90121   0.79686   0.00000  Uiso   1.00
C161   C     0.50761   0.91380   0.71557   0.00000  Uiso   1.00
H162   H     0.21028   0.88602   0.70091   0.00000  Uiso   1.00
H163   H     0.16257   0.01420   0.78665   0.00000  Uiso   1.00
H164   H     0.13568   0.73449   0.69915   0.00000  Uiso   1.00
H165   H     0.31532   0.91023   0.59704   0.00000  Uiso   1.00
H166   H     0.13688   0.15488   0.91308   0.00000  Uiso   1.00
H167   H     0.08019   0.56507   0.72856   0.00000  Uiso   1.00
H168   H     0.45900   0.93565   0.51322   0.00000  Uiso   1.00
H169   H     0.42011   0.87512   0.94250   0.00000  Uiso   1.00
H170   H     0.38391   0.00271   0.04151   0.00000  Uiso   1.00
H171   H     0.35701   0.72298   0.95400   0.00000  Uiso   1.00
H172   H     0.53665   0.89873   0.85189   0.00000  Uiso   1.00
H173   H     0.31653   0.14555   0.11993   0.00000  Uiso   1.00
H174   H     0.25983   0.55573   0.93540   0.00000  Uiso   1.00
H175   H     0.63864   0.92631   0.72007   0.00000  Uiso   1.00
O176   O     0.19909   0.23432   0.07728   0.00000  Uiso   1.00
O177   O     0.12472   0.46050   0.83518   0.00000  Uiso   1.00
O178   O     0.62171   0.94670   0.55267   0.00000  Uiso   1.00
N179   N     0.18414   0.13518   0.94817   0.00000  Uiso   1.00
N180   N     0.13113   0.58375   0.77566   0.00000  Uiso   1.00
N181   N     0.48528   0.93019   0.57433   0.00000  Uiso   1.00
N182   N     0.28081   0.13016   0.05947   0.00000  Uiso   1.00
N183   N     0.22779   0.57873   0.88696   0.00000  Uiso   1.00
N184   N     0.58195   0.92517   0.68563   0.00000  Uiso   1.00
C185   C     0.75742   0.25807   0.87984   0.00000  Uiso   1.00
C186   C     0.83229   0.26124   0.95138   0.00000  Uiso   1.00
C187   C     0.83766   0.20915   0.01395   0.00000  Uiso   1.00
C188   C     0.91149   0.22207   0.07371   0.00000  Uiso   1.00
C189   C     0.01772   0.21741   0.18519   0.00000  Uiso   1.00
C190   C     0.78797   0.24586   0.79220   0.00000  Uiso   1.00
C191   C     0.75607   0.18085   0.72093   0.00000  Uiso   1.00
C192   C     0.79259   0.18083   0.64669   0.00000  Uiso   1.00
C193   C     0.82997   0.15233   0.51102   0.00000  Uiso   1.00
C194   C     0.73531   0.34631   0.89242   0.00000  Uiso   1.00
C195   C     0.65912   0.36577   0.90539   0.00000  Uiso   1.00
C196   C     0.65130   0.45032   0.91551   0.00000  Uiso   1.00
C197   C     0.60691   0.57779   0.93544   0.00000  Uiso   1.00
C198   C     0.87898   0.37364   0.87471   0.00000  Uiso   1.00
C199   C     0.89832   0.32401   0.94859   0.00000  Uiso   1.00
C200   C     0.97216   0.33702   0.00828   0.00000  Uiso   1.00
C201   C     0.97764   0.28496   0.07093   0.00000  Uiso   1.00
C202   C     0.85400   0.30863   0.78941   0.00000  Uiso   1.00
C203   C     0.89057   0.30871   0.71526   0.00000  Uiso   1.00
C204   C     0.85874   0.24371   0.64390   0.00000  Uiso   1.00
C205   C     0.80134   0.40909   0.88963   0.00000  Uiso   1.00
C206   C     0.79362   0.49363   0.89972   0.00000  Uiso   1.00
C207   C     0.71744   0.51321   0.91271   0.00000  Uiso   1.00
H208   H     0.70601   0.20920   0.88200   0.00000  Uiso   1.00
H209   H     0.78655   0.16057   0.01608   0.00000  Uiso   1.00
H210   H     0.70497   0.13228   0.72310   0.00000  Uiso   1.00
H211   H     0.60804   0.31717   0.90754   0.00000  Uiso   1.00
H212   H     0.90497   0.13433   0.16348   0.00000  Uiso   1.00
H213   H     0.73293   0.07469   0.54572   0.00000  Uiso   1.00
H214   H     0.52853   0.46456   0.93463   0.00000  Uiso   1.00
H215   H     0.93039   0.42252   0.87254   0.00000  Uiso   1.00
H216   H     0.02325   0.38560   0.00611   0.00000  Uiso   1.00
H217   H     0.94166   0.35730   0.71313   0.00000  Uiso   1.00
H218   H     0.84473   0.54219   0.89757   0.00000  Uiso   1.00
H219   H     0.09708   0.31696   0.15538   0.00000  Uiso   1.00
H220   H     0.92504   0.25732   0.53762   0.00000  Uiso   1.00
H221   H     0.72065   0.64720   0.92653   0.00000  Uiso   1.00
O222   O     0.05807   0.19749   0.24744   0.00000  Uiso   1.00
O223   O     0.83235   0.11925   0.43696   0.00000  Uiso   1.00
O224   O     0.56419   0.63076   0.94721   0.00000  Uiso   1.00
N225   N     0.93744   0.18239   0.14325   0.00000  Uiso   1.00
N226   N     0.77660   0.12662   0.56569   0.00000  Uiso   1.00
N227   N     0.58550   0.49112   0.92927   0.00000  Uiso   1.00
N228   N     0.04081   0.28066   0.13890   0.00000  Uiso   1.00
N229   N     0.87997   0.22489   0.56133   0.00000  Uiso   1.00
N230   N     0.68887   0.58939   0.92491   0.00000  Uiso   1.00
C231   C     0.88538   0.75740   0.25736   0.00000  Uiso   1.00
C232   C     0.95172   0.83362   0.26132   0.00000  Uiso   1.00
C233   C     0.01022   0.83859   0.20708   0.00000  Uiso   1.00
C234   C     0.06555   0.91384   0.22120   0.00000  Uiso   1.00
C235   C     0.16902   0.02189   0.21727   0.00000  Uiso   1.00
C236   C     0.80317   0.78900   0.24447   0.00000  Uiso   1.00
C237   C     0.73676   0.75644   0.17606   0.00000  Uiso   1.00
C238   C     0.66705   0.79413   0.17600   0.00000  Uiso   1.00
C239   C     0.53986   0.83286   0.14594   0.00000  Uiso   1.00
C240   C     0.89729   0.73512   0.34957   0.00000  Uiso   1.00
C241   C     0.91000   0.65726   0.36954   0.00000  Uiso   1.00
C242   C     0.91951   0.64958   0.45796   0.00000  Uiso   1.00
C243   C     0.93846   0.60465   0.59109   0.00000  Uiso   1.00
C244   C     0.87963   0.88220   0.37888   0.00000  Uiso   1.00
C245   C     0.94859   0.90141   0.32732   0.00000  Uiso   1.00
C246   C     0.00386   0.97667   0.34152   0.00000  Uiso   1.00
C247   C     0.06243   0.98175   0.28732   0.00000  Uiso   1.00
C248   C     0.80004   0.85678   0.31046   0.00000  Uiso   1.00
C249   C     0.73041   0.89452   0.31050   0.00000  Uiso   1.00
C250   C     0.66391   0.86203   0.24211   0.00000  Uiso   1.00
C251   C     0.89417   0.80291   0.41557   0.00000  Uiso   1.00
C252   C     0.90365   0.79534   0.50398   0.00000  Uiso   1.00
C253   C     0.91638   0.71748   0.52408   0.00000  Uiso   1.00
H254   H     0.88780   0.70463   0.20598   0.00000  Uiso   1.00
H255   H     0.01261   0.78612   0.15601   0.00000  Uiso   1.00
H256   H     0.73920   0.70398   0.12500   0.00000  Uiso   1.00
H257   H     0.91242   0.60482   0.31845   0.00000  Uiso   1.00
H258   H     0.14959   0.90637   0.12970   0.00000  Uiso   1.00
H259   H     0.57307   0.73316   0.06433   0.00000  Uiso   1.00
H260   H     0.93833   0.52405   0.47225   0.00000  Uiso   1.00
H261   H     0.87719   0.93498   0.43026   0.00000  Uiso   1.00
H262   H     0.00143   0.02911   0.39260   0.00000  Uiso   1.00
H263   H     0.72801   0.94697   0.36159   0.00000  Uiso   1.00
H264   H     0.90123   0.84781   0.55503   0.00000  Uiso   1.00
H265   H     0.14051   0.10360   0.32172   0.00000  Uiso   1.00
H266   H     0.56399   0.93038   0.25635   0.00000  Uiso   1.00
H267   H     0.92925   0.72127   0.66427   0.00000  Uiso   1.00
O268   O     0.22694   0.06276   0.19687   0.00000  Uiso   1.00
O269   O     0.47057   0.83549   0.11112   0.00000  Uiso   1.00
O270   O     0.94979   0.56116   0.64629   0.00000  Uiso   1.00
N271   N     0.13041   0.93987   0.18007   0.00000  Uiso   1.00
N272   N     0.59141   0.77793   0.11895   0.00000  Uiso   1.00
N273   N     0.93288   0.58242   0.50031   0.00000  Uiso   1.00
N274   N     0.12553   0.04599   0.28340   0.00000  Uiso   1.00
N275   N     0.58652   0.88405   0.22227   0.00000  Uiso   1.00
N276   N     0.92799   0.68855   0.60364   0.00000  Uiso   1.00
