data_job_02682
_audit_creation_date              2018-12-19
_audit_creation_method            'Materials Studio'
_symmetry_space_group_name_H-M    'P1'
_symmetry_Int_Tables_number       1
_symmetry_cell_setting            triclinic
loop_
_symmetry_equiv_pos_as_xyz
  x,y,z
_cell_length_a                    22.4941
_cell_length_b                    22.4941
_cell_length_c                    10.2558
_cell_angle_alpha                 90.0000
_cell_angle_beta                  90.0000
_cell_angle_gamma                 90.0000
loop_
_atom_site_label
_atom_site_type_symbol
_atom_site_fract_x
_atom_site_fract_y
_atom_site_fract_z
_atom_site_U_iso_or_equiv
_atom_site_adp_type
_atom_site_occupancy
C1     C     0.67720   0.75846   0.53166   0.00000  Uiso   1.00
C2     C     0.64477   0.80973   0.59803   0.00000  Uiso   1.00
C3     C     0.66178   0.86902   0.59474   0.00000  Uiso   1.00
C4     C     0.62618   0.90915   0.66171   0.00000  Uiso   1.00
C5     C     0.58357   0.99157   0.75451   0.00000  Uiso   1.00
C6     C     0.69124   0.71370   0.63900   0.00000  Uiso   1.00
C7     C     0.74731   0.69224   0.67014   0.00000  Uiso   1.00
C8     C     0.75083   0.65152   0.77159   0.00000  Uiso   1.00
C9     C     0.78036   0.58482   0.92793   0.00000  Uiso   1.00
C10    C     0.63155   0.72855   0.44349   0.00000  Uiso   1.00
C11    C     0.63744   0.71955   0.31024   0.00000  Uiso   1.00
C12    C     0.59070   0.69132   0.24708   0.00000  Uiso   1.00
C13    C     0.52755   0.64767   0.09985   0.00000  Uiso   1.00
C14    C     0.58374   0.72431   0.65645   0.00000  Uiso   1.00
C15    C     0.59401   0.79118   0.66581   0.00000  Uiso   1.00
C16    C     0.55838   0.83123   0.73280   0.00000  Uiso   1.00
C17    C     0.57533   0.89056   0.72961   0.00000  Uiso   1.00
C18    C     0.64048   0.69515   0.70678   0.00000  Uiso   1.00
C19    C     0.64392   0.65445   0.80821   0.00000  Uiso   1.00
C20    C     0.69998   0.63293   0.83950   0.00000  Uiso   1.00
C21    C     0.58078   0.70999   0.51126   0.00000  Uiso   1.00
C22    C     0.53404   0.68176   0.44831   0.00000  Uiso   1.00
C23    C     0.53985   0.67273   0.31499   0.00000  Uiso   1.00
H24    H     0.71672   0.77290   0.47890   0.00000  Uiso   1.00
H25    H     0.70107   0.88336   0.54228   0.00000  Uiso   1.00
H26    H     0.78659   0.70660   0.61766   0.00000  Uiso   1.00
H27    H     0.67673   0.73391   0.25782   0.00000  Uiso   1.00
H28    H     0.66134   0.99763   0.64249   0.00000  Uiso   1.00
H29    H     0.84166   0.62491   0.80140   0.00000  Uiso   1.00
H30    H     0.61000   0.68250   0.04259   0.00000  Uiso   1.00
H31    H     0.54422   0.70986   0.70923   0.00000  Uiso   1.00
H32    H     0.51910   0.81686   0.78525   0.00000  Uiso   1.00
H33    H     0.60462   0.64010   0.86063   0.00000  Uiso   1.00
H34    H     0.49476   0.66741   0.50079   0.00000  Uiso   1.00
H35    H     0.51365   0.94366   0.83970   0.00000  Uiso   1.00
H36    H     0.69397   0.57094   0.99861   0.00000  Uiso   1.00
H37    H     0.46231   0.62853   0.23980   0.00000  Uiso   1.00
O38    O     0.57409   0.04216   0.78698   0.00000  Uiso   1.00
O39    O     0.81067   0.55317   0.99545   0.00000  Uiso   1.00
O40    O     0.50673   0.62873   0.99992   0.00000  Uiso   1.00
N41    N     0.63002   0.97025   0.67845   0.00000  Uiso   1.00
N42    N     0.79861   0.62178   0.82703   0.00000  Uiso   1.00
N43    N     0.58203   0.67561   0.11762   0.00000  Uiso   1.00
N44    N     0.55055   0.94120   0.78456   0.00000  Uiso   1.00
N45    N     0.71914   0.59274   0.93315   0.00000  Uiso   1.00
N46    N     0.50256   0.64657   0.22373   0.00000  Uiso   1.00
C47    C     0.32280   0.24154   0.53166   0.00000  Uiso   1.00
C48    C     0.35523   0.19027   0.59803   0.00000  Uiso   1.00
C49    C     0.33822   0.13098   0.59474   0.00000  Uiso   1.00
C50    C     0.37382   0.09085   0.66171   0.00000  Uiso   1.00
C51    C     0.41643   0.00843   0.75451   0.00000  Uiso   1.00
C52    C     0.30876   0.28630   0.63900   0.00000  Uiso   1.00
C53    C     0.25269   0.30776   0.67014   0.00000  Uiso   1.00
C54    C     0.24917   0.34848   0.77159   0.00000  Uiso   1.00
C55    C     0.21964   0.41518   0.92793   0.00000  Uiso   1.00
C56    C     0.36845   0.27145   0.44349   0.00000  Uiso   1.00
C57    C     0.36256   0.28045   0.31024   0.00000  Uiso   1.00
C58    C     0.40930   0.30868   0.24708   0.00000  Uiso   1.00
C59    C     0.47245   0.35233   0.09985   0.00000  Uiso   1.00
C60    C     0.41626   0.27569   0.65645   0.00000  Uiso   1.00
C61    C     0.40599   0.20882   0.66581   0.00000  Uiso   1.00
C62    C     0.44162   0.16877   0.73280   0.00000  Uiso   1.00
C63    C     0.42467   0.10944   0.72961   0.00000  Uiso   1.00
C64    C     0.35952   0.30485   0.70678   0.00000  Uiso   1.00
C65    C     0.35608   0.34555   0.80821   0.00000  Uiso   1.00
C66    C     0.30002   0.36707   0.83950   0.00000  Uiso   1.00
C67    C     0.41922   0.29001   0.51126   0.00000  Uiso   1.00
C68    C     0.46596   0.31824   0.44831   0.00000  Uiso   1.00
C69    C     0.46015   0.32727   0.31499   0.00000  Uiso   1.00
H70    H     0.28328   0.22710   0.47890   0.00000  Uiso   1.00
H71    H     0.29893   0.11664   0.54228   0.00000  Uiso   1.00
H72    H     0.21341   0.29340   0.61766   0.00000  Uiso   1.00
H73    H     0.32327   0.26609   0.25782   0.00000  Uiso   1.00
H74    H     0.33866   0.00237   0.64249   0.00000  Uiso   1.00
H75    H     0.15834   0.37509   0.80140   0.00000  Uiso   1.00
H76    H     0.39000   0.31750   0.04259   0.00000  Uiso   1.00
H77    H     0.45578   0.29014   0.70923   0.00000  Uiso   1.00
H78    H     0.48090   0.18314   0.78525   0.00000  Uiso   1.00
H79    H     0.39538   0.35990   0.86063   0.00000  Uiso   1.00
H80    H     0.50524   0.33259   0.50079   0.00000  Uiso   1.00
H81    H     0.48635   0.05634   0.83970   0.00000  Uiso   1.00
H82    H     0.30603   0.42906   0.99861   0.00000  Uiso   1.00
H83    H     0.53769   0.37147   0.23980   0.00000  Uiso   1.00
O84    O     0.42591   0.95784   0.78698   0.00000  Uiso   1.00
O85    O     0.18933   0.44683   0.99545   0.00000  Uiso   1.00
O86    O     0.49327   0.37127   0.99992   0.00000  Uiso   1.00
N87    N     0.36998   0.02975   0.67845   0.00000  Uiso   1.00
N88    N     0.20139   0.37822   0.82703   0.00000  Uiso   1.00
N89    N     0.41797   0.32439   0.11762   0.00000  Uiso   1.00
N90    N     0.44945   0.05880   0.78456   0.00000  Uiso   1.00
N91    N     0.28086   0.40726   0.93315   0.00000  Uiso   1.00
N92    N     0.49744   0.35343   0.22373   0.00000  Uiso   1.00
C93    C     0.75846   0.32280   0.46834   0.00000  Uiso   1.00
C94    C     0.80973   0.35523   0.40197   0.00000  Uiso   1.00
C95    C     0.86902   0.33822   0.40526   0.00000  Uiso   1.00
C96    C     0.90915   0.37382   0.33829   0.00000  Uiso   1.00
C97    C     0.99157   0.41643   0.24549   0.00000  Uiso   1.00
C98    C     0.71370   0.30876   0.36100   0.00000  Uiso   1.00
C99    C     0.69224   0.25269   0.32986   0.00000  Uiso   1.00
C100   C     0.65152   0.24917   0.22841   0.00000  Uiso   1.00
C101   C     0.58482   0.21964   0.07207   0.00000  Uiso   1.00
C102   C     0.72855   0.36845   0.55651   0.00000  Uiso   1.00
C103   C     0.71955   0.36256   0.68976   0.00000  Uiso   1.00
C104   C     0.69132   0.40930   0.75292   0.00000  Uiso   1.00
C105   C     0.64767   0.47245   0.90015   0.00000  Uiso   1.00
C106   C     0.72431   0.41626   0.34355   0.00000  Uiso   1.00
C107   C     0.79118   0.40599   0.33419   0.00000  Uiso   1.00
C108   C     0.83123   0.44162   0.26720   0.00000  Uiso   1.00
C109   C     0.89056   0.42467   0.27039   0.00000  Uiso   1.00
C110   C     0.69515   0.35952   0.29322   0.00000  Uiso   1.00
C111   C     0.65445   0.35608   0.19179   0.00000  Uiso   1.00
C112   C     0.63293   0.30002   0.16050   0.00000  Uiso   1.00
C113   C     0.70999   0.41922   0.48874   0.00000  Uiso   1.00
C114   C     0.68176   0.46596   0.55169   0.00000  Uiso   1.00
C115   C     0.67273   0.46015   0.68501   0.00000  Uiso   1.00
H116   H     0.77290   0.28328   0.52110   0.00000  Uiso   1.00
H117   H     0.88336   0.29893   0.45772   0.00000  Uiso   1.00
H118   H     0.70660   0.21341   0.38234   0.00000  Uiso   1.00
H119   H     0.73391   0.32327   0.74218   0.00000  Uiso   1.00
H120   H     0.99763   0.33866   0.35751   0.00000  Uiso   1.00
H121   H     0.62491   0.15834   0.19860   0.00000  Uiso   1.00
H122   H     0.68250   0.39000   0.95741   0.00000  Uiso   1.00
H123   H     0.70986   0.45578   0.29077   0.00000  Uiso   1.00
H124   H     0.81686   0.48090   0.21475   0.00000  Uiso   1.00
H125   H     0.64010   0.39538   0.13937   0.00000  Uiso   1.00
H126   H     0.66741   0.50524   0.49921   0.00000  Uiso   1.00
H127   H     0.94366   0.48635   0.16030   0.00000  Uiso   1.00
H128   H     0.57094   0.30603   0.00139   0.00000  Uiso   1.00
H129   H     0.62853   0.53769   0.76020   0.00000  Uiso   1.00
O130   O     0.04216   0.42591   0.21302   0.00000  Uiso   1.00
O131   O     0.55317   0.18933   0.00455   0.00000  Uiso   1.00
O132   O     0.62873   0.49327   0.00008   0.00000  Uiso   1.00
N133   N     0.97025   0.36998   0.32155   0.00000  Uiso   1.00
N134   N     0.62178   0.20139   0.17297   0.00000  Uiso   1.00
N135   N     0.67561   0.41797   0.88238   0.00000  Uiso   1.00
N136   N     0.94120   0.44945   0.21544   0.00000  Uiso   1.00
N137   N     0.59274   0.28086   0.06685   0.00000  Uiso   1.00
N138   N     0.64657   0.49744   0.77627   0.00000  Uiso   1.00
C139   C     0.24154   0.67720   0.46834   0.00000  Uiso   1.00
C140   C     0.19027   0.64477   0.40197   0.00000  Uiso   1.00
C141   C     0.13098   0.66178   0.40526   0.00000  Uiso   1.00
C142   C     0.09085   0.62618   0.33829   0.00000  Uiso   1.00
C143   C     0.00843   0.58357   0.24549   0.00000  Uiso   1.00
C144   C     0.28630   0.69124   0.36100   0.00000  Uiso   1.00
C145   C     0.30776   0.74731   0.32986   0.00000  Uiso   1.00
C146   C     0.34848   0.75083   0.22841   0.00000  Uiso   1.00
C147   C     0.41518   0.78036   0.07207   0.00000  Uiso   1.00
C148   C     0.27145   0.63155   0.55651   0.00000  Uiso   1.00
C149   C     0.28045   0.63744   0.68976   0.00000  Uiso   1.00
C150   C     0.30868   0.59070   0.75292   0.00000  Uiso   1.00
C151   C     0.35233   0.52755   0.90015   0.00000  Uiso   1.00
C152   C     0.27569   0.58374   0.34355   0.00000  Uiso   1.00
C153   C     0.20882   0.59401   0.33419   0.00000  Uiso   1.00
C154   C     0.16877   0.55838   0.26720   0.00000  Uiso   1.00
C155   C     0.10944   0.57533   0.27039   0.00000  Uiso   1.00
C156   C     0.30485   0.64048   0.29322   0.00000  Uiso   1.00
C157   C     0.34555   0.64392   0.19179   0.00000  Uiso   1.00
C158   C     0.36707   0.69998   0.16050   0.00000  Uiso   1.00
C159   C     0.29001   0.58078   0.48874   0.00000  Uiso   1.00
C160   C     0.31824   0.53404   0.55169   0.00000  Uiso   1.00
C161   C     0.32727   0.53985   0.68501   0.00000  Uiso   1.00
H162   H     0.22710   0.71672   0.52110   0.00000  Uiso   1.00
H163   H     0.11664   0.70107   0.45772   0.00000  Uiso   1.00
H164   H     0.29340   0.78659   0.38234   0.00000  Uiso   1.00
H165   H     0.26609   0.67673   0.74218   0.00000  Uiso   1.00
H166   H     0.00237   0.66134   0.35751   0.00000  Uiso   1.00
H167   H     0.37509   0.84166   0.19860   0.00000  Uiso   1.00
H168   H     0.31750   0.61000   0.95741   0.00000  Uiso   1.00
H169   H     0.29014   0.54422   0.29077   0.00000  Uiso   1.00
H170   H     0.18314   0.51910   0.21475   0.00000  Uiso   1.00
H171   H     0.35990   0.60462   0.13937   0.00000  Uiso   1.00
H172   H     0.33259   0.49476   0.49921   0.00000  Uiso   1.00
H173   H     0.05634   0.51365   0.16030   0.00000  Uiso   1.00
H174   H     0.42906   0.69397   0.00139   0.00000  Uiso   1.00
H175   H     0.37147   0.46231   0.76020   0.00000  Uiso   1.00
O176   O     0.95784   0.57409   0.21302   0.00000  Uiso   1.00
O177   O     0.44683   0.81067   0.00455   0.00000  Uiso   1.00
O178   O     0.37127   0.50673   0.00008   0.00000  Uiso   1.00
N179   N     0.02975   0.63002   0.32155   0.00000  Uiso   1.00
N180   N     0.37822   0.79861   0.17297   0.00000  Uiso   1.00
N181   N     0.32439   0.58203   0.88238   0.00000  Uiso   1.00
N182   N     0.05880   0.55055   0.21544   0.00000  Uiso   1.00
N183   N     0.40726   0.71914   0.06685   0.00000  Uiso   1.00
N184   N     0.35343   0.50256   0.77627   0.00000  Uiso   1.00
C185   C     0.82280   0.25846   0.96834   0.00000  Uiso   1.00
C186   C     0.85523   0.30973   0.90197   0.00000  Uiso   1.00
C187   C     0.83822   0.36902   0.90526   0.00000  Uiso   1.00
C188   C     0.87382   0.40915   0.83829   0.00000  Uiso   1.00
C189   C     0.91643   0.49157   0.74549   0.00000  Uiso   1.00
C190   C     0.80876   0.21370   0.86100   0.00000  Uiso   1.00
C191   C     0.75269   0.19224   0.82986   0.00000  Uiso   1.00
C192   C     0.74917   0.15152   0.72841   0.00000  Uiso   1.00
C193   C     0.71964   0.08482   0.57207   0.00000  Uiso   1.00
C194   C     0.86845   0.22855   0.05651   0.00000  Uiso   1.00
C195   C     0.86256   0.21955   0.18976   0.00000  Uiso   1.00
C196   C     0.90930   0.19132   0.25292   0.00000  Uiso   1.00
C197   C     0.97245   0.14767   0.40015   0.00000  Uiso   1.00
C198   C     0.91626   0.22431   0.84355   0.00000  Uiso   1.00
C199   C     0.90599   0.29118   0.83419   0.00000  Uiso   1.00
C200   C     0.94162   0.33123   0.76720   0.00000  Uiso   1.00
C201   C     0.92467   0.39056   0.77039   0.00000  Uiso   1.00
C202   C     0.85952   0.19515   0.79322   0.00000  Uiso   1.00
C203   C     0.85608   0.15445   0.69179   0.00000  Uiso   1.00
C204   C     0.80002   0.13293   0.66050   0.00000  Uiso   1.00
C205   C     0.91922   0.20999   0.98874   0.00000  Uiso   1.00
C206   C     0.96596   0.18176   0.05169   0.00000  Uiso   1.00
C207   C     0.96015   0.17273   0.18501   0.00000  Uiso   1.00
H208   H     0.78328   0.27290   0.02110   0.00000  Uiso   1.00
H209   H     0.79893   0.38336   0.95772   0.00000  Uiso   1.00
H210   H     0.71341   0.20660   0.88234   0.00000  Uiso   1.00
H211   H     0.82327   0.23391   0.24218   0.00000  Uiso   1.00
H212   H     0.83866   0.49763   0.85751   0.00000  Uiso   1.00
H213   H     0.65834   0.12491   0.69860   0.00000  Uiso   1.00
H214   H     0.89000   0.18250   0.45741   0.00000  Uiso   1.00
H215   H     0.95578   0.20986   0.79077   0.00000  Uiso   1.00
H216   H     0.98090   0.31686   0.71475   0.00000  Uiso   1.00
H217   H     0.89538   0.14010   0.63937   0.00000  Uiso   1.00
H218   H     0.00524   0.16741   0.99921   0.00000  Uiso   1.00
H219   H     0.98635   0.44366   0.66030   0.00000  Uiso   1.00
H220   H     0.80603   0.07094   0.50139   0.00000  Uiso   1.00
H221   H     0.03769   0.12853   0.26020   0.00000  Uiso   1.00
O222   O     0.92591   0.54216   0.71302   0.00000  Uiso   1.00
O223   O     0.68933   0.05317   0.50455   0.00000  Uiso   1.00
O224   O     0.99327   0.12873   0.50008   0.00000  Uiso   1.00
N225   N     0.86998   0.47025   0.82155   0.00000  Uiso   1.00
N226   N     0.70139   0.12178   0.67297   0.00000  Uiso   1.00
N227   N     0.91797   0.17561   0.38238   0.00000  Uiso   1.00
N228   N     0.94945   0.44120   0.71544   0.00000  Uiso   1.00
N229   N     0.78086   0.09274   0.56685   0.00000  Uiso   1.00
N230   N     0.99744   0.14657   0.27627   0.00000  Uiso   1.00
C231   C     0.17720   0.74154   0.96834   0.00000  Uiso   1.00
C232   C     0.14477   0.69027   0.90197   0.00000  Uiso   1.00
C233   C     0.16178   0.63098   0.90526   0.00000  Uiso   1.00
C234   C     0.12618   0.59085   0.83829   0.00000  Uiso   1.00
C235   C     0.08357   0.50843   0.74549   0.00000  Uiso   1.00
C236   C     0.19124   0.78630   0.86100   0.00000  Uiso   1.00
C237   C     0.24731   0.80776   0.82986   0.00000  Uiso   1.00
C238   C     0.25083   0.84848   0.72841   0.00000  Uiso   1.00
C239   C     0.28036   0.91518   0.57207   0.00000  Uiso   1.00
C240   C     0.13155   0.77145   0.05651   0.00000  Uiso   1.00
C241   C     0.13744   0.78045   0.18976   0.00000  Uiso   1.00
C242   C     0.09070   0.80868   0.25292   0.00000  Uiso   1.00
C243   C     0.02755   0.85233   0.40015   0.00000  Uiso   1.00
C244   C     0.08374   0.77569   0.84355   0.00000  Uiso   1.00
C245   C     0.09401   0.70882   0.83419   0.00000  Uiso   1.00
C246   C     0.05838   0.66877   0.76720   0.00000  Uiso   1.00
C247   C     0.07533   0.60944   0.77039   0.00000  Uiso   1.00
C248   C     0.14048   0.80485   0.79322   0.00000  Uiso   1.00
C249   C     0.14392   0.84555   0.69179   0.00000  Uiso   1.00
C250   C     0.19998   0.86707   0.66050   0.00000  Uiso   1.00
C251   C     0.08078   0.79001   0.98874   0.00000  Uiso   1.00
C252   C     0.03404   0.81824   0.05169   0.00000  Uiso   1.00
C253   C     0.03985   0.82727   0.18501   0.00000  Uiso   1.00
H254   H     0.21672   0.72710   0.02110   0.00000  Uiso   1.00
H255   H     0.20107   0.61664   0.95772   0.00000  Uiso   1.00
H256   H     0.28659   0.79340   0.88234   0.00000  Uiso   1.00
H257   H     0.17673   0.76609   0.24218   0.00000  Uiso   1.00
H258   H     0.16134   0.50237   0.85751   0.00000  Uiso   1.00
H259   H     0.34166   0.87509   0.69860   0.00000  Uiso   1.00
H260   H     0.11000   0.81750   0.45741   0.00000  Uiso   1.00
H261   H     0.04422   0.79014   0.79077   0.00000  Uiso   1.00
H262   H     0.01910   0.68314   0.71475   0.00000  Uiso   1.00
H263   H     0.10462   0.85990   0.63937   0.00000  Uiso   1.00
H264   H     0.99476   0.83259   0.99921   0.00000  Uiso   1.00
H265   H     0.01365   0.55634   0.66030   0.00000  Uiso   1.00
H266   H     0.19397   0.92906   0.50139   0.00000  Uiso   1.00
H267   H     0.96231   0.87147   0.26020   0.00000  Uiso   1.00
O268   O     0.07409   0.45784   0.71302   0.00000  Uiso   1.00
O269   O     0.31067   0.94683   0.50455   0.00000  Uiso   1.00
O270   O     0.00673   0.87127   0.50008   0.00000  Uiso   1.00
N271   N     0.13002   0.52975   0.82155   0.00000  Uiso   1.00
N272   N     0.29861   0.87822   0.67297   0.00000  Uiso   1.00
N273   N     0.08203   0.82439   0.38238   0.00000  Uiso   1.00
N274   N     0.05055   0.55880   0.71544   0.00000  Uiso   1.00
N275   N     0.21914   0.90726   0.56685   0.00000  Uiso   1.00
N276   N     0.00256   0.85343   0.27627   0.00000  Uiso   1.00
C277   C     0.74154   0.82280   0.03166   0.00000  Uiso   1.00
C278   C     0.69027   0.85523   0.09803   0.00000  Uiso   1.00
C279   C     0.63098   0.83822   0.09474   0.00000  Uiso   1.00
C280   C     0.59085   0.87382   0.16171   0.00000  Uiso   1.00
C281   C     0.50843   0.91643   0.25451   0.00000  Uiso   1.00
C282   C     0.78630   0.80876   0.13900   0.00000  Uiso   1.00
C283   C     0.80776   0.75269   0.17014   0.00000  Uiso   1.00
C284   C     0.84848   0.74917   0.27159   0.00000  Uiso   1.00
C285   C     0.91518   0.71964   0.42793   0.00000  Uiso   1.00
C286   C     0.77145   0.86845   0.94349   0.00000  Uiso   1.00
C287   C     0.78045   0.86256   0.81024   0.00000  Uiso   1.00
C288   C     0.80868   0.90930   0.74708   0.00000  Uiso   1.00
C289   C     0.85233   0.97245   0.59985   0.00000  Uiso   1.00
C290   C     0.77569   0.91626   0.15645   0.00000  Uiso   1.00
C291   C     0.70882   0.90599   0.16581   0.00000  Uiso   1.00
C292   C     0.66877   0.94162   0.23280   0.00000  Uiso   1.00
C293   C     0.60944   0.92467   0.22961   0.00000  Uiso   1.00
C294   C     0.80485   0.85952   0.20678   0.00000  Uiso   1.00
C295   C     0.84555   0.85608   0.30821   0.00000  Uiso   1.00
C296   C     0.86707   0.80002   0.33950   0.00000  Uiso   1.00
C297   C     0.79001   0.91922   0.01126   0.00000  Uiso   1.00
C298   C     0.81824   0.96596   0.94831   0.00000  Uiso   1.00
C299   C     0.82727   0.96015   0.81499   0.00000  Uiso   1.00
H300   H     0.72710   0.78328   0.97890   0.00000  Uiso   1.00
H301   H     0.61664   0.79893   0.04228   0.00000  Uiso   1.00
H302   H     0.79340   0.71341   0.11766   0.00000  Uiso   1.00
H303   H     0.76609   0.82327   0.75782   0.00000  Uiso   1.00
H304   H     0.50237   0.83866   0.14249   0.00000  Uiso   1.00
H305   H     0.87509   0.65834   0.30140   0.00000  Uiso   1.00
H306   H     0.81750   0.89000   0.54259   0.00000  Uiso   1.00
H307   H     0.79014   0.95578   0.20923   0.00000  Uiso   1.00
H308   H     0.68314   0.98090   0.28525   0.00000  Uiso   1.00
H309   H     0.85990   0.89538   0.36063   0.00000  Uiso   1.00
H310   H     0.83259   0.00524   0.00079   0.00000  Uiso   1.00
H311   H     0.55634   0.98635   0.33970   0.00000  Uiso   1.00
H312   H     0.92906   0.80603   0.49861   0.00000  Uiso   1.00
H313   H     0.87147   0.03769   0.73980   0.00000  Uiso   1.00
O314   O     0.45784   0.92591   0.28698   0.00000  Uiso   1.00
O315   O     0.94683   0.68933   0.49545   0.00000  Uiso   1.00
O316   O     0.87127   0.99327   0.49992   0.00000  Uiso   1.00
N317   N     0.52975   0.86998   0.17845   0.00000  Uiso   1.00
N318   N     0.87822   0.70139   0.32703   0.00000  Uiso   1.00
N319   N     0.82439   0.91797   0.61762   0.00000  Uiso   1.00
N320   N     0.55880   0.94945   0.28456   0.00000  Uiso   1.00
N321   N     0.90726   0.78086   0.43315   0.00000  Uiso   1.00
N322   N     0.85343   0.99744   0.72373   0.00000  Uiso   1.00
C323   C     0.25846   0.17720   0.03166   0.00000  Uiso   1.00
C324   C     0.30973   0.14477   0.09803   0.00000  Uiso   1.00
C325   C     0.36902   0.16178   0.09474   0.00000  Uiso   1.00
C326   C     0.40915   0.12618   0.16171   0.00000  Uiso   1.00
C327   C     0.49157   0.08357   0.25451   0.00000  Uiso   1.00
C328   C     0.21370   0.19124   0.13900   0.00000  Uiso   1.00
C329   C     0.19224   0.24731   0.17014   0.00000  Uiso   1.00
C330   C     0.15152   0.25083   0.27159   0.00000  Uiso   1.00
C331   C     0.08482   0.28036   0.42793   0.00000  Uiso   1.00
C332   C     0.22855   0.13155   0.94349   0.00000  Uiso   1.00
C333   C     0.21955   0.13744   0.81024   0.00000  Uiso   1.00
C334   C     0.19132   0.09070   0.74708   0.00000  Uiso   1.00
C335   C     0.14767   0.02755   0.59985   0.00000  Uiso   1.00
C336   C     0.22431   0.08374   0.15645   0.00000  Uiso   1.00
C337   C     0.29118   0.09401   0.16581   0.00000  Uiso   1.00
C338   C     0.33123   0.05838   0.23280   0.00000  Uiso   1.00
C339   C     0.39056   0.07533   0.22961   0.00000  Uiso   1.00
C340   C     0.19515   0.14048   0.20678   0.00000  Uiso   1.00
C341   C     0.15445   0.14392   0.30821   0.00000  Uiso   1.00
C342   C     0.13293   0.19998   0.33950   0.00000  Uiso   1.00
C343   C     0.20999   0.08078   0.01126   0.00000  Uiso   1.00
C344   C     0.18176   0.03404   0.94831   0.00000  Uiso   1.00
C345   C     0.17273   0.03985   0.81499   0.00000  Uiso   1.00
H346   H     0.27290   0.21672   0.97890   0.00000  Uiso   1.00
H347   H     0.38336   0.20107   0.04228   0.00000  Uiso   1.00
H348   H     0.20660   0.28659   0.11766   0.00000  Uiso   1.00
H349   H     0.23391   0.17673   0.75782   0.00000  Uiso   1.00
H350   H     0.49763   0.16134   0.14249   0.00000  Uiso   1.00
H351   H     0.12491   0.34166   0.30140   0.00000  Uiso   1.00
H352   H     0.18250   0.11000   0.54259   0.00000  Uiso   1.00
H353   H     0.20986   0.04422   0.20923   0.00000  Uiso   1.00
H354   H     0.31686   0.01910   0.28525   0.00000  Uiso   1.00
H355   H     0.14010   0.10462   0.36063   0.00000  Uiso   1.00
H356   H     0.16741   0.99476   0.00079   0.00000  Uiso   1.00
H357   H     0.44366   0.01365   0.33970   0.00000  Uiso   1.00
H358   H     0.07094   0.19397   0.49861   0.00000  Uiso   1.00
H359   H     0.12853   0.96231   0.73980   0.00000  Uiso   1.00
O360   O     0.54216   0.07409   0.28698   0.00000  Uiso   1.00
O361   O     0.05317   0.31067   0.49545   0.00000  Uiso   1.00
O362   O     0.12873   0.00673   0.49992   0.00000  Uiso   1.00
N363   N     0.47025   0.13002   0.17845   0.00000  Uiso   1.00
N364   N     0.12178   0.29861   0.32703   0.00000  Uiso   1.00
N365   N     0.17561   0.08203   0.61762   0.00000  Uiso   1.00
N366   N     0.44120   0.05055   0.28456   0.00000  Uiso   1.00
N367   N     0.09274   0.21914   0.43315   0.00000  Uiso   1.00
N368   N     0.14657   0.00256   0.72373   0.00000  Uiso   1.00
