data_job_07002
_audit_creation_date              2018-12-19
_audit_creation_method            'Materials Studio'
_symmetry_space_group_name_H-M    'P1'
_symmetry_Int_Tables_number       1
_symmetry_cell_setting            triclinic
loop_
_symmetry_equiv_pos_as_xyz
  x,y,z
_cell_length_a                    20.2456
_cell_length_b                    21.8026
_cell_length_c                    22.1566
_cell_angle_alpha                 111.1480
_cell_angle_beta                  115.0484
_cell_angle_gamma                 79.8739
loop_
_atom_site_label
_atom_site_type_symbol
_atom_site_fract_x
_atom_site_fract_y
_atom_site_fract_z
_atom_site_U_iso_or_equiv
_atom_site_adp_type
_atom_site_occupancy
C1     C     0.36749   0.15101   0.85626   0.00000  Uiso   1.00
C2     C     0.33212   0.10164   0.86693   0.00000  Uiso   1.00
C3     C     0.33850   0.03367   0.84055   0.00000  Uiso   1.00
C4     C     0.30193   0.99707   0.85615   0.00000  Uiso   1.00
C5     C     0.25328   0.91579   0.86652   0.00000  Uiso   1.00
C6     C     0.30543   0.19473   0.82327   0.00000  Uiso   1.00
C7     C     0.28938   0.20503   0.76018   0.00000  Uiso   1.00
C8     C     0.23036   0.24679   0.73902   0.00000  Uiso   1.00
C9     C     0.14031   0.31007   0.68163   0.00000  Uiso   1.00
C10    C     0.41265   0.19495   0.92972   0.00000  Uiso   1.00
C11    C     0.48675   0.20545   0.95613   0.00000  Uiso   1.00
C12    C     0.51800   0.24741   0.02459   0.00000  Uiso   1.00
C13    C     0.59442   0.31104   0.13248   0.00000  Uiso   1.00
C14    C     0.29122   0.20687   0.93087   0.00000  Uiso   1.00
C15    C     0.29069   0.13198   0.90746   0.00000  Uiso   1.00
C16    C     0.25411   0.09547   0.92310   0.00000  Uiso   1.00
C17    C     0.26043   0.02746   0.89675   0.00000  Uiso   1.00
C18    C     0.26401   0.22507   0.86379   0.00000  Uiso   1.00
C19    C     0.20500   0.26683   0.84273   0.00000  Uiso   1.00
C20    C     0.18886   0.27719   0.77962   0.00000  Uiso   1.00
C21    C     0.37123   0.22529   0.97024   0.00000  Uiso   1.00
C22    C     0.40237   0.26725   0.03868   0.00000  Uiso   1.00
C23    C     0.47650   0.27781   0.06519   0.00000  Uiso   1.00
H24    H     0.39974   0.12739   0.82471   0.00000  Uiso   1.00
H25    H     0.37056   0.01021   0.80919   0.00000  Uiso   1.00
H26    H     0.32146   0.18155   0.72883   0.00000  Uiso   1.00
H27    H     0.51879   0.18196   0.92475   0.00000  Uiso   1.00
H28    H     0.31990   0.89367   0.80983   0.00000  Uiso   1.00
H29    H     0.21639   0.25496   0.64041   0.00000  Uiso   1.00
H30    H     0.63251   0.25584   0.05354   0.00000  Uiso   1.00
H31    H     0.25897   0.23049   0.96242   0.00000  Uiso   1.00
H32    H     0.22206   0.11897   0.95446   0.00000  Uiso   1.00
H33    H     0.17296   0.29030   0.87410   0.00000  Uiso   1.00
H34    H     0.37029   0.29072   0.07002   0.00000  Uiso   1.00
H35    H     0.19937   0.98194   0.92773   0.00000  Uiso   1.00
H36    H     0.09586   0.34323   0.75831   0.00000  Uiso   1.00
H37    H     0.51198   0.34411   0.17145   0.00000  Uiso   1.00
O38    O     0.23788   0.86258   0.86104   0.00000  Uiso   1.00
O39    O     0.10208   0.33659   0.63877   0.00000  Uiso   1.00
O40    O     0.64802   0.33774   0.18079   0.00000  Uiso   1.00
N41    N     0.29661   0.92975   0.83868   0.00000  Uiso   1.00
N42    N     0.19983   0.26753   0.68028   0.00000  Uiso   1.00
N43    N     0.58886   0.26837   0.06652   0.00000  Uiso   1.00
N44    N     0.23176   0.97725   0.90213   0.00000  Uiso   1.00
N45    N     0.13497   0.31502   0.74372   0.00000  Uiso   1.00
N46    N     0.52401   0.31586   0.12996   0.00000  Uiso   1.00
C47    C     0.78038   0.34995   0.50819   0.00000  Uiso   1.00
C48    C     0.83655   0.39771   0.57016   0.00000  Uiso   1.00
C49    C     0.91151   0.39132   0.58929   0.00000  Uiso   1.00
C50    C     0.95359   0.44026   0.64765   0.00000  Uiso   1.00
C51    C     0.04564   0.50629   0.73815   0.00000  Uiso   1.00
C52    C     0.73692   0.32883   0.53892   0.00000  Uiso   1.00
C53    C     0.72811   0.26453   0.53176   0.00000  Uiso   1.00
C54    C     0.68632   0.25548   0.56381   0.00000  Uiso   1.00
C55    C     0.62365   0.21457   0.60575   0.00000  Uiso   1.00
C56    C     0.72755   0.39063   0.46323   0.00000  Uiso   1.00
C57    C     0.71085   0.37828   0.39242   0.00000  Uiso   1.00
C58    C     0.66115   0.42126   0.36075   0.00000  Uiso   1.00
C59    C     0.58394   0.47631   0.28516   0.00000  Uiso   1.00
C60    C     0.72182   0.44822   0.57784   0.00000  Uiso   1.00
C61    C     0.80474   0.45109   0.60799   0.00000  Uiso   1.00
C62    C     0.84672   0.50005   0.66634   0.00000  Uiso   1.00
C63    C     0.92173   0.49373   0.68555   0.00000  Uiso   1.00
C64    C     0.70511   0.38221   0.57675   0.00000  Uiso   1.00
C65    C     0.66332   0.37325   0.60881   0.00000  Uiso   1.00
C66    C     0.65445   0.30895   0.60171   0.00000  Uiso   1.00
C67    C     0.69574   0.44401   0.50106   0.00000  Uiso   1.00
C68    C     0.64606   0.48701   0.46948   0.00000  Uiso   1.00
C69    C     0.62929   0.47473   0.39864   0.00000  Uiso   1.00
H70    H     0.80514   0.30839   0.47874   0.00000  Uiso   1.00
H71    H     0.93611   0.35000   0.56000   0.00000  Uiso   1.00
H72    H     0.75273   0.22323   0.50247   0.00000  Uiso   1.00
H73    H     0.73547   0.33697   0.36316   0.00000  Uiso   1.00
H74    H     0.06727   0.41967   0.66679   0.00000  Uiso   1.00
H75    H     0.68059   0.15236   0.54547   0.00000  Uiso   1.00
H76    H     0.64420   0.39220   0.25171   0.00000  Uiso   1.00
H77    H     0.69706   0.48977   0.60729   0.00000  Uiso   1.00
H78    H     0.82209   0.54135   0.69561   0.00000  Uiso   1.00
H79    H     0.63871   0.41457   0.63808   0.00000  Uiso   1.00
H80    H     0.62146   0.52831   0.49877   0.00000  Uiso   1.00
H81    H     0.97473   0.57497   0.77686   0.00000  Uiso   1.00
H82    H     0.58804   0.30766   0.65553   0.00000  Uiso   1.00
H83    H     0.55166   0.54750   0.36177   0.00000  Uiso   1.00
O84    O     0.10521   0.52796   0.77762   0.00000  Uiso   1.00
O85    O     0.59788   0.17726   0.61843   0.00000  Uiso   1.00
O86    O     0.55014   0.49193   0.23303   0.00000  Uiso   1.00
N87    N     0.02833   0.44915   0.68057   0.00000  Uiso   1.00
N88    N     0.66682   0.19923   0.56715   0.00000  Uiso   1.00
N89    N     0.63278   0.42345   0.29250   0.00000  Uiso   1.00
N90    N     0.97854   0.53271   0.73979   0.00000  Uiso   1.00
N91    N     0.61702   0.28280   0.62637   0.00000  Uiso   1.00
N92    N     0.58299   0.50702   0.35172   0.00000  Uiso   1.00
C93    C     0.57427   0.72075   0.76527   0.00000  Uiso   1.00
C94    C     0.54875   0.75965   0.71392   0.00000  Uiso   1.00
C95    C     0.54932   0.73680   0.64700   0.00000  Uiso   1.00
C96    C     0.52372   0.77997   0.60822   0.00000  Uiso   1.00
C97    C     0.48797   0.83069   0.52436   0.00000  Uiso   1.00
C98    C     0.63247   0.76176   0.83236   0.00000  Uiso   1.00
C99    C     0.70342   0.74068   0.86503   0.00000  Uiso   1.00
C100   C     0.74829   0.78562   0.92596   0.00000  Uiso   1.00
C101   C     0.84249   0.83960   0.02600   0.00000  Uiso   1.00
C102   C     0.50975   0.72122   0.78389   0.00000  Uiso   1.00
C103   C     0.47753   0.66606   0.77583   0.00000  Uiso   1.00
C104   C     0.41908   0.67688   0.79597   0.00000  Uiso   1.00
C105   C     0.32275   0.66792   0.82076   0.00000  Uiso   1.00
C106   C     0.52779   0.83804   0.81539   0.00000  Uiso   1.00
C107   C     0.52351   0.82336   0.74114   0.00000  Uiso   1.00
C108   C     0.49789   0.86657   0.70245   0.00000  Uiso   1.00
C109   C     0.49843   0.84379   0.63549   0.00000  Uiso   1.00
C110   C     0.60722   0.82546   0.85958   0.00000  Uiso   1.00
C111   C     0.65199   0.87044   0.92048   0.00000  Uiso   1.00
C112   C     0.72299   0.84944   0.95323   0.00000  Uiso   1.00
C113   C     0.48450   0.78493   0.81111   0.00000  Uiso   1.00
C114   C     0.42610   0.79583   0.83128   0.00000  Uiso   1.00
C115   C     0.39379   0.74070   0.82325   0.00000  Uiso   1.00
H116   H     0.59393   0.67115   0.74408   0.00000  Uiso   1.00
H117   H     0.56887   0.68750   0.62596   0.00000  Uiso   1.00
H118   H     0.72294   0.69137   0.84396   0.00000  Uiso   1.00
H119   H     0.49708   0.61677   0.75477   0.00000  Uiso   1.00
H120   H     0.52998   0.73373   0.50701   0.00000  Uiso   1.00
H121   H     0.85483   0.74188   0.96668   0.00000  Uiso   1.00
H122   H     0.37857   0.58457   0.77861   0.00000  Uiso   1.00
H123   H     0.50813   0.88764   0.83659   0.00000  Uiso   1.00
H124   H     0.47836   0.91587   0.72353   0.00000  Uiso   1.00
H125   H     0.63243   0.91974   0.94153   0.00000  Uiso   1.00
H126   H     0.40657   0.84514   0.85234   0.00000  Uiso   1.00
H127   H     0.45652   0.91908   0.58621   0.00000  Uiso   1.00
H128   H     0.78138   0.92723   0.04588   0.00000  Uiso   1.00
H129   H     0.30511   0.76992   0.85781   0.00000  Uiso   1.00
O130   O     0.47524   0.84108   0.47058   0.00000  Uiso   1.00
O131   O     0.90143   0.85177   0.07365   0.00000  Uiso   1.00
O132   O     0.27658   0.64538   0.82691   0.00000  Uiso   1.00
N133   N     0.51676   0.77347   0.54116   0.00000  Uiso   1.00
N134   N     0.82049   0.78110   0.97092   0.00000  Uiso   1.00
N135   N     0.37523   0.63402   0.79510   0.00000  Uiso   1.00
N136   N     0.47724   0.87321   0.58377   0.00000  Uiso   1.00
N137   N     0.78096   0.88084   0.01353   0.00000  Uiso   1.00
N138   N     0.33570   0.73376   0.83772   0.00000  Uiso   1.00
C139   C     0.08998   0.60976   0.25988   0.00000  Uiso   1.00
C140   C     0.01963   0.57290   0.22928   0.00000  Uiso   1.00
C141   C     0.01371   0.50505   0.20514   0.00000  Uiso   1.00
C142   C     0.94451   0.48093   0.17910   0.00000  Uiso   1.00
C143   C     0.84458   0.41726   0.13191   0.00000  Uiso   1.00
C144   C     0.09665   0.65602   0.33265   0.00000  Uiso   1.00
C145   C     0.15547   0.65806   0.39542   0.00000  Uiso   1.00
C146   C     0.15111   0.70391   0.45640   0.00000  Uiso   1.00
C147   C     0.17076   0.76932   0.56967   0.00000  Uiso   1.00
C148   C     0.07666   0.65369   0.21542   0.00000  Uiso   1.00
C149   C     0.11870   0.65379   0.17964   0.00000  Uiso   1.00
C150   C     0.09752   0.69769   0.14193   0.00000  Uiso   1.00
C151   C     0.08615   0.75949   0.07319   0.00000  Uiso   1.00
C152   C     0.97764   0.68757   0.25655   0.00000  Uiso   1.00
C153   C     0.95862   0.61516   0.22748   0.00000  Uiso   1.00
C154   C     0.88941   0.59114   0.20146   0.00000  Uiso   1.00
C155   C     0.88338   0.52326   0.17729   0.00000  Uiso   1.00
C156   C     0.03563   0.69828   0.33085   0.00000  Uiso   1.00
C157   C     0.03118   0.74414   0.39174   0.00000  Uiso   1.00
C158   C     0.08998   0.74625   0.45459   0.00000  Uiso   1.00
C159   C     0.01564   0.69595   0.21361   0.00000  Uiso   1.00
C160   C     0.99440   0.73987   0.17595   0.00000  Uiso   1.00
C161   C     0.03640   0.74003   0.14012   0.00000  Uiso   1.00
H162   H     0.13748   0.57686   0.26129   0.00000  Uiso   1.00
H163   H     0.06094   0.47236   0.20656   0.00000  Uiso   1.00
H164   H     0.20269   0.62535   0.39680   0.00000  Uiso   1.00
H165   H     0.16592   0.62108   0.18105   0.00000  Uiso   1.00
H166   H     0.94918   0.37514   0.14511   0.00000  Uiso   1.00
H167   H     0.24807   0.69774   0.54625   0.00000  Uiso   1.00
H168   H     0.17053   0.68874   0.09129   0.00000  Uiso   1.00
H169   H     0.93013   0.72048   0.25514   0.00000  Uiso   1.00
H170   H     0.84220   0.62385   0.20007   0.00000  Uiso   1.00
H171   H     0.98396   0.77684   0.39032   0.00000  Uiso   1.00
H172   H     0.94718   0.77257   0.17457   0.00000  Uiso   1.00
H173   H     0.77164   0.49810   0.13984   0.00000  Uiso   1.00
H174   H     0.07054   0.82070   0.54099   0.00000  Uiso   1.00
H175   H     0.99299   0.81169   0.08603   0.00000  Uiso   1.00
O176   O     0.80631   0.37047   0.10638   0.00000  Uiso   1.00
O177   O     0.19846   0.79371   0.63266   0.00000  Uiso   1.00
O178   O     0.09672   0.78190   0.03577   0.00000  Uiso   1.00
N179   N     0.91946   0.41734   0.15141   0.00000  Uiso   1.00
N180   N     0.19890   0.71894   0.52646   0.00000  Uiso   1.00
N181   N     0.12642   0.71054   0.10113   0.00000  Uiso   1.00
N182   N     0.82393   0.48350   0.14858   0.00000  Uiso   1.00
N183   N     0.10337   0.78510   0.52362   0.00000  Uiso   1.00
N184   N     0.03089   0.77670   0.09830   0.00000  Uiso   1.00
C185   C     0.73715   0.86486   0.41137   0.00000  Uiso   1.00
C186   C     0.71255   0.89056   0.34940   0.00000  Uiso   1.00
C187   C     0.74962   0.88095   0.30631   0.00000  Uiso   1.00
C188   C     0.71807   0.90843   0.25244   0.00000  Uiso   1.00
C189   C     0.68992   0.94288   0.15777   0.00000  Uiso   1.00
C190   C     0.67471   0.82423   0.39664   0.00000  Uiso   1.00
C191   C     0.67997   0.75884   0.39328   0.00000  Uiso   1.00
C192   C     0.61657   0.73049   0.37919   0.00000  Uiso   1.00
C193   C     0.52968   0.66196   0.35792   0.00000  Uiso   1.00
C194   C     0.74063   0.92494   0.47501   0.00000  Uiso   1.00
C195   C     0.80131   0.94423   0.53756   0.00000  Uiso   1.00
C196   C     0.79340   0.00067   0.58946   0.00000  Uiso   1.00
C197   C     0.80887   0.08852   0.68987   0.00000  Uiso   1.00
C198   C     0.61520   0.93078   0.39234   0.00000  Uiso   1.00
C199   C     0.64630   0.92637   0.33906   0.00000  Uiso   1.00
C200   C     0.61469   0.95388   0.28525   0.00000  Uiso   1.00
C201   C     0.65171   0.94431   0.24208   0.00000  Uiso   1.00
C202   C     0.60847   0.86003   0.38631   0.00000  Uiso   1.00
C203   C     0.54504   0.83177   0.37223   0.00000  Uiso   1.00
C204   C     0.55021   0.76636   0.36884   0.00000  Uiso   1.00
C205   C     0.67439   0.96075   0.46468   0.00000  Uiso   1.00
C206   C     0.66638   0.01717   0.51649   0.00000  Uiso   1.00
C207   C     0.72704   0.03654   0.57910   0.00000  Uiso   1.00
H208   H     0.78872   0.83698   0.41941   0.00000  Uiso   1.00
H209   H     0.80088   0.85323   0.31432   0.00000  Uiso   1.00
H210   H     0.73124   0.73114   0.40129   0.00000  Uiso   1.00
H211   H     0.85256   0.91651   0.54554   0.00000  Uiso   1.00
H212   H     0.78513   0.88702   0.19323   0.00000  Uiso   1.00
H213   H     0.63830   0.62960   0.37663   0.00000  Uiso   1.00
H214   H     0.89413   0.02048   0.68081   0.00000  Uiso   1.00
H215   H     0.56362   0.95866   0.38429   0.00000  Uiso   1.00
H216   H     0.56343   0.98159   0.27726   0.00000  Uiso   1.00
H217   H     0.49379   0.85950   0.36423   0.00000  Uiso   1.00
H218   H     0.61511   0.04487   0.50848   0.00000  Uiso   1.00
H219   H     0.59240   0.99120   0.16315   0.00000  Uiso   1.00
H220   H     0.44558   0.73378   0.34656   0.00000  Uiso   1.00
H221   H     0.70140   0.12466   0.65073   0.00000  Uiso   1.00
O222   O     0.69268   0.95198   0.10840   0.00000  Uiso   1.00
O223   O     0.50006   0.61426   0.34904   0.00000  Uiso   1.00
O224   O     0.83570   0.12709   0.74810   0.00000  Uiso   1.00
N225   N     0.73980   0.90840   0.20084   0.00000  Uiso   1.00
N226   N     0.60253   0.66773   0.37231   0.00000  Uiso   1.00
N227   N     0.84170   0.03316   0.65669   0.00000  Uiso   1.00
N228   N     0.63610   0.96446   0.18466   0.00000  Uiso   1.00
N229   N     0.49883   0.72378   0.35612   0.00000  Uiso   1.00
N230   N     0.73800   0.08922   0.64051   0.00000  Uiso   1.00
C231   C     0.23544   0.07245   0.34757   0.00000  Uiso   1.00
C232   C     0.31122   0.06658   0.40293   0.00000  Uiso   1.00
C233   C     0.34718   0.00833   0.41246   0.00000  Uiso   1.00
C234   C     0.41619   0.01339   0.46599   0.00000  Uiso   1.00
C235   C     0.52904   0.99498   0.54547   0.00000  Uiso   1.00
C236   C     0.24461   0.11011   0.30558   0.00000  Uiso   1.00
C237   C     0.22455   0.08845   0.23326   0.00000  Uiso   1.00
C238   C     0.23748   0.13016   0.20484   0.00000  Uiso   1.00
C239   C     0.24685   0.17934   0.13318   0.00000  Uiso   1.00
C240   C     0.19065   0.11780   0.38775   0.00000  Uiso   1.00
C241   C     0.12522   0.10262   0.38450   0.00000  Uiso   1.00
C242   C     0.09271   0.15080   0.42525   0.00000  Uiso   1.00
C243   C     0.01831   0.21192   0.48117   0.00000  Uiso   1.00
C244   C     0.29405   0.18502   0.42571   0.00000  Uiso   1.00
C245   C     0.34306   0.12773   0.44537   0.00000  Uiso   1.00
C246   C     0.41203   0.13288   0.49890   0.00000  Uiso   1.00
C247   C     0.44809   0.07464   0.50851   0.00000  Uiso   1.00
C248   C     0.27644   0.17125   0.34802   0.00000  Uiso   1.00
C249   C     0.28940   0.21300   0.31970   0.00000  Uiso   1.00
C250   C     0.26937   0.19141   0.24736   0.00000  Uiso   1.00
C251   C     0.22249   0.17894   0.43019   0.00000  Uiso   1.00
C252   C     0.19007   0.22716   0.47095   0.00000  Uiso   1.00
C253   C     0.12460   0.21206   0.46777   0.00000  Uiso   1.00
H254   H     0.21066   0.02485   0.31453   0.00000  Uiso   1.00
H255   H     0.32253   0.96102   0.37960   0.00000  Uiso   1.00
H256   H     0.19991   0.04114   0.20043   0.00000  Uiso   1.00
H257   H     0.10060   0.05530   0.35165   0.00000  Uiso   1.00
H258   H     0.46062   0.91722   0.47044   0.00000  Uiso   1.00
H259   H     0.20205   0.08616   0.09265   0.00000  Uiso   1.00
H260   H     0.99262   0.11602   0.41153   0.00000  Uiso   1.00
H261   H     0.31883   0.23263   0.45875   0.00000  Uiso   1.00
H262   H     0.43665   0.18020   0.53174   0.00000  Uiso   1.00
H263   H     0.31403   0.26032   0.35256   0.00000  Uiso   1.00
H264   H     0.21471   0.27448   0.50379   0.00000  Uiso   1.00
H265   H     0.55324   0.09511   0.59392   0.00000  Uiso   1.00
H266   H     0.29466   0.26405   0.21612   0.00000  Uiso   1.00
H267   H     0.08524   0.29391   0.53501   0.00000  Uiso   1.00
O268   O     0.58249   0.96793   0.57757   0.00000  Uiso   1.00
O269   O     0.24324   0.18957   0.08192   0.00000  Uiso   1.00
O270   O     0.96848   0.22874   0.50029   0.00000  Uiso   1.00
N271   N     0.46624   0.96628   0.48949   0.00000  Uiso   1.00
N272   N     0.22450   0.12422   0.13628   0.00000  Uiso   1.00
N273   N     0.02870   0.15215   0.43439   0.00000  Uiso   1.00
N274   N     0.51608   0.06201   0.55594   0.00000  Uiso   1.00
N275   N     0.27434   0.21995   0.20272   0.00000  Uiso   1.00
N276   N     0.07854   0.24787   0.50084   0.00000  Uiso   1.00
C277   C     0.50185   0.63802   0.99790   0.00000  Uiso   1.00
C278   C     0.50658   0.70834   0.00140   0.00000  Uiso   1.00
C279   C     0.44987   0.75493   0.99513   0.00000  Uiso   1.00
C280   C     0.46523   0.81648   0.99981   0.00000  Uiso   1.00
C281   C     0.46199   0.92350   0.00366   0.00000  Uiso   1.00
C282   C     0.56066   0.63029   0.06624   0.00000  Uiso   1.00
C283   C     0.54941   0.61125   0.11448   0.00000  Uiso   1.00
C284   C     0.61030   0.60709   0.17374   0.00000  Uiso   1.00
C285   C     0.69103   0.59288   0.27823   0.00000  Uiso   1.00
C286   C     0.52612   0.59358   0.93942   0.00000  Uiso   1.00
C287   C     0.48585   0.54365   0.88104   0.00000  Uiso   1.00
C288   C     0.51767   0.50857   0.83353   0.00000  Uiso   1.00
C289   C     0.54478   0.43735   0.74112   0.00000  Uiso   1.00
C290   C     0.62998   0.66450   0.01736   0.00000  Uiso   1.00
C291   C     0.57617   0.72272   0.01197   0.00000  Uiso   1.00
C292   C     0.59162   0.78422   0.01666   0.00000  Uiso   1.00
C293   C     0.53494   0.83089   0.01039   0.00000  Uiso   1.00
C294   C     0.63025   0.64467   0.07681   0.00000  Uiso   1.00
C295   C     0.69117   0.64054   0.13601   0.00000  Uiso   1.00
C296   C     0.68002   0.62150   0.18433   0.00000  Uiso   1.00
C297   C     0.59571   0.60796   0.94999   0.00000  Uiso   1.00
C298   C     0.62761   0.57294   0.90257   0.00000  Uiso   1.00
C299   C     0.58739   0.52297   0.84412   0.00000  Uiso   1.00
H300   H     0.44767   0.62683   0.98968   0.00000  Uiso   1.00
H301   H     0.39602   0.74378   0.98695   0.00000  Uiso   1.00
H302   H     0.49555   0.60012   0.10628   0.00000  Uiso   1.00
H303   H     0.43200   0.53253   0.87288   0.00000  Uiso   1.00
H304   H     0.36945   0.87980   0.98862   0.00000  Uiso   1.00
H305   H     0.57932   0.57685   0.24021   0.00000  Uiso   1.00
H306   H     0.44531   0.43433   0.74804   0.00000  Uiso   1.00
H307   H     0.68416   0.67569   0.02560   0.00000  Uiso   1.00
H308   H     0.64548   0.79533   0.02484   0.00000  Uiso   1.00
H309   H     0.74501   0.65167   0.14417   0.00000  Uiso   1.00
H310   H     0.68146   0.58408   0.91077   0.00000  Uiso   1.00
H311   H     0.57192   0.92164   0.01937   0.00000  Uiso   1.00
H312   H     0.78180   0.61869   0.27097   0.00000  Uiso   1.00
H313   H     0.64778   0.47617   0.77879   0.00000  Uiso   1.00
O314   O     0.44098   0.97855   0.00287   0.00000  Uiso   1.00
O315   O     0.71633   0.58108   0.33295   0.00000  Uiso   1.00
O316   O     0.54050   0.39410   0.68723   0.00000  Uiso   1.00
N317   N     0.42241   0.87323   0.99595   0.00000  Uiso   1.00
N318   N     0.61862   0.59000   0.23118   0.00000  Uiso   1.00
N319   N     0.49334   0.45674   0.77105   0.00000  Uiso   1.00
N320   N     0.53136   0.89574   0.01249   0.00000  Uiso   1.00
N321   N     0.72757   0.61251   0.24773   0.00000  Uiso   1.00
N322   N     0.60229   0.47926   0.78759   0.00000  Uiso   1.00
C323   C     0.20264   0.51774   0.65032   0.00000  Uiso   1.00
C324   C     0.14181   0.47728   0.58558   0.00000  Uiso   1.00
C325   C     0.06760   0.48903   0.56934   0.00000  Uiso   1.00
C326   C     0.02072   0.44639   0.50767   0.00000  Uiso   1.00
C327   C     0.92224   0.39157   0.41379   0.00000  Uiso   1.00
C328   C     0.24830   0.54028   0.62271   0.00000  Uiso   1.00
C329   C     0.26363   0.60500   0.63771   0.00000  Uiso   1.00
C330   C     0.30640   0.61539   0.60731   0.00000  Uiso   1.00
C331   C     0.37329   0.65838   0.57113   0.00000  Uiso   1.00
C332   C     0.25118   0.46945   0.68739   0.00000  Uiso   1.00
C333   C     0.26895   0.47463   0.75677   0.00000  Uiso   1.00
C334   C     0.31416   0.42541   0.78082   0.00000  Uiso   1.00
C335   C     0.38553   0.35843   0.84505   0.00000  Uiso   1.00
C336   C     0.25134   0.42113   0.56967   0.00000  Uiso   1.00
C337   C     0.16827   0.42480   0.54177   0.00000  Uiso   1.00
C338   C     0.12149   0.38214   0.48011   0.00000  Uiso   1.00
C339   C     0.04722   0.39382   0.46379   0.00000  Uiso   1.00
C340   C     0.27475   0.48781   0.57891   0.00000  Uiso   1.00
C341   C     0.31751   0.49811   0.54848   0.00000  Uiso   1.00
C342   C     0.33290   0.56283   0.56343   0.00000  Uiso   1.00
C343   C     0.27764   0.41698   0.64358   0.00000  Uiso   1.00
C344   C     0.32283   0.36774   0.66754   0.00000  Uiso   1.00
C345   C     0.34067   0.37284   0.73694   0.00000  Uiso   1.00
H346   H     0.18205   0.55859   0.68442   0.00000  Uiso   1.00
H347   H     0.04715   0.52965   0.60325   0.00000  Uiso   1.00
H348   H     0.24316   0.64560   0.67161   0.00000  Uiso   1.00
H349   H     0.24847   0.51525   0.79065   0.00000  Uiso   1.00
H350   H     0.90926   0.47442   0.49393   0.00000  Uiso   1.00
H351   H     0.32256   0.71891   0.63810   0.00000  Uiso   1.00
H352   H     0.33378   0.44405   0.88911   0.00000  Uiso   1.00
H353   H     0.27194   0.38027   0.53557   0.00000  Uiso   1.00
H354   H     0.14197   0.34153   0.44623   0.00000  Uiso   1.00
H355   H     0.33798   0.45749   0.51459   0.00000  Uiso   1.00
H356   H     0.34330   0.32714   0.63363   0.00000  Uiso   1.00
H357   H     0.98622   0.32174   0.36648   0.00000  Uiso   1.00
H358   H     0.39953   0.56624   0.51066   0.00000  Uiso   1.00
H359   H     0.41074   0.29137   0.76166   0.00000  Uiso   1.00
O360   O     0.86062   0.37583   0.37411   0.00000  Uiso   1.00
O361   O     0.40287   0.69659   0.56327   0.00000  Uiso   1.00
O362   O     0.41758   0.33597   0.89258   0.00000  Uiso   1.00
N363   N     0.94521   0.44380   0.47620   0.00000  Uiso   1.00
N364   N     0.33161   0.67238   0.61098   0.00000  Uiso   1.00
N365   N     0.34212   0.41541   0.84566   0.00000  Uiso   1.00
N366   N     0.98662   0.36164   0.40762   0.00000  Uiso   1.00
N367   N     0.37303   0.59023   0.54241   0.00000  Uiso   1.00
N368   N     0.38353   0.33326   0.77708   0.00000  Uiso   1.00
C369   C     0.55517   0.19054   0.26478   0.00000  Uiso   1.00
C370   C     0.53616   0.24507   0.32181   0.00000  Uiso   1.00
C371   C     0.52207   0.31067   0.32550   0.00000  Uiso   1.00
C372   C     0.50569   0.35287   0.38181   0.00000  Uiso   1.00
C373   C     0.47645   0.44098   0.46262   0.00000  Uiso   1.00
C374   C     0.49876   0.13778   0.23361   0.00000  Uiso   1.00
C375   C     0.45324   0.11317   0.16314   0.00000  Uiso   1.00
C376   C     0.40539   0.06505   0.14520   0.00000  Uiso   1.00
C377   C     0.31814   0.98655   0.08908   0.00000  Uiso   1.00
C378   C     0.62783   0.16018   0.30295   0.00000  Uiso   1.00
C379   C     0.69083   0.15439   0.29076   0.00000  Uiso   1.00
C380   C     0.75165   0.12511   0.33118   0.00000  Uiso   1.00
C381   C     0.86480   0.08140   0.38271   0.00000  Uiso   1.00
C382   C     0.55114   0.14882   0.35822   0.00000  Uiso   1.00
C383   C     0.53397   0.22241   0.37256   0.00000  Uiso   1.00
C384   C     0.51761   0.26452   0.42888   0.00000  Uiso   1.00
C385   C     0.50350   0.33018   0.43265   0.00000  Uiso   1.00
C386   C     0.49657   0.11512   0.28436   0.00000  Uiso   1.00
C387   C     0.44878   0.06702   0.26652   0.00000  Uiso   1.00
C388   C     0.40319   0.04235   0.19604   0.00000  Uiso   1.00
C389   C     0.62565   0.13752   0.35370   0.00000  Uiso   1.00
C390   C     0.68637   0.10824   0.39414   0.00000  Uiso   1.00
C391   C     0.74945   0.10241   0.38202   0.00000  Uiso   1.00
H392   H     0.55688   0.20817   0.22527   0.00000  Uiso   1.00
H393   H     0.52376   0.32819   0.28621   0.00000  Uiso   1.00
H394   H     0.45495   0.13071   0.12388   0.00000  Uiso   1.00
H395   H     0.69251   0.17193   0.25148   0.00000  Uiso   1.00
H396   H     0.48605   0.45125   0.37615   0.00000  Uiso   1.00
H397   H     0.34098   0.03484   0.03386   0.00000  Uiso   1.00
H398   H     0.84192   0.12176   0.30293   0.00000  Uiso   1.00
H399   H     0.54944   0.13118   0.39773   0.00000  Uiso   1.00
H400   H     0.51592   0.24697   0.46815   0.00000  Uiso   1.00
H401   H     0.44710   0.04949   0.30581   0.00000  Uiso   1.00
H402   H     0.68466   0.09071   0.43341   0.00000  Uiso   1.00
H403   H     0.47968   0.38533   0.52381   0.00000  Uiso   1.00
H404   H     0.33461   0.96892   0.18151   0.00000  Uiso   1.00
H405   H     0.83555   0.05584   0.45059   0.00000  Uiso   1.00
O406   O     0.46092   0.49584   0.49317   0.00000  Uiso   1.00
O407   O     0.27061   0.94952   0.04410   0.00000  Uiso   1.00
O408   O     0.92782   0.06356   0.39711   0.00000  Uiso   1.00
N409   N     0.48917   0.41984   0.40125   0.00000  Uiso   1.00
N410   N     0.35353   0.03054   0.08122   0.00000  Uiso   1.00
N411   N     0.82185   0.11178   0.33277   0.00000  Uiso   1.00
N412   N     0.48574   0.38437   0.48070   0.00000  Uiso   1.00
N413   N     0.35010   0.99507   0.16068   0.00000  Uiso   1.00
N414   N     0.81843   0.07631   0.41222   0.00000  Uiso   1.00
C415   C     0.96033   0.33677   0.91673   0.00000  Uiso   1.00
C416   C     0.02623   0.37994   0.94896   0.00000  Uiso   1.00
C417   C     0.02379   0.44720   0.96119   0.00000  Uiso   1.00
C418   C     0.09011   0.47774   0.99109   0.00000  Uiso   1.00
C419   C     0.18233   0.55017   0.03850   0.00000  Uiso   1.00
C420   C     0.96752   0.28253   0.85293   0.00000  Uiso   1.00
C421   C     0.91571   0.26790   0.78442   0.00000  Uiso   1.00
C422   C     0.93261   0.21644   0.73348   0.00000  Uiso   1.00
C423   C     0.93367   0.13762   0.63181   0.00000  Uiso   1.00
C424   C     0.97094   0.30302   0.96981   0.00000  Uiso   1.00
C425   C     0.92200   0.30559   0.99955   0.00000  Uiso   1.00
C426   C     0.94176   0.27136   0.04701   0.00000  Uiso   1.00
C427   C     0.94812   0.22434   0.12681   0.00000  Uiso   1.00
C428   C     0.08244   0.27138   0.94810   0.00000  Uiso   1.00
C429   C     0.09255   0.34442   0.96599   0.00000  Uiso   1.00
C430   C     0.15889   0.37486   0.99589   0.00000  Uiso   1.00
C431   C     0.15655   0.44216   0.00816   0.00000  Uiso   1.00
C432   C     0.03384   0.24702   0.86996   0.00000  Uiso   1.00
C433   C     0.05081   0.19556   0.81912   0.00000  Uiso   1.00
C434   C     0.99905   0.18086   0.75055   0.00000  Uiso   1.00
C435   C     0.03726   0.26750   0.98684   0.00000  Uiso   1.00
C436   C     0.05710   0.23325   0.03426   0.00000  Uiso   1.00
C437   C     0.00820   0.23578   0.06408   0.00000  Uiso   1.00
H438   H     0.90870   0.36441   0.90347   0.00000  Uiso   1.00
H439   H     0.97245   0.47467   0.94799   0.00000  Uiso   1.00
H440   H     0.86439   0.29539   0.77125   0.00000  Uiso   1.00
H441   H     0.87068   0.33308   0.98636   0.00000  Uiso   1.00
H442   H     0.07238   0.58124   0.00484   0.00000  Uiso   1.00
H443   H     0.84452   0.20321   0.63218   0.00000  Uiso   1.00
H444   H     0.85777   0.28268   0.08577   0.00000  Uiso   1.00
H445   H     0.13408   0.24372   0.96136   0.00000  Uiso   1.00
H446   H     0.21021   0.34736   0.00906   0.00000  Uiso   1.00
H447   H     0.10214   0.16808   0.83232   0.00000  Uiso   1.00
H448   H     0.10843   0.20577   0.04743   0.00000  Uiso   1.00
H449   H     0.26535   0.47791   0.05440   0.00000  Uiso   1.00
H450   H     0.03749   0.09988   0.68174   0.00000  Uiso   1.00
H451   H     0.05074   0.17935   0.13534   0.00000  Uiso   1.00
O452   O     0.21488   0.59993   0.05993   0.00000  Uiso   1.00
O453   O     0.91593   0.10396   0.57102   0.00000  Uiso   1.00
O454   O     0.93331   0.20822   0.16613   0.00000  Uiso   1.00
N455   N     0.10735   0.54270   0.00997   0.00000  Uiso   1.00
N456   N     0.89432   0.18927   0.66155   0.00000  Uiso   1.00
N457   N     0.90670   0.26356   0.08561   0.00000  Uiso   1.00
N458   N     0.21119   0.48710   0.03664   0.00000  Uiso   1.00
N459   N     0.99816   0.13368   0.68822   0.00000  Uiso   1.00
N460   N     0.01053   0.20796   0.11229   0.00000  Uiso   1.00
C461   C     0.19184   0.97581   0.51570   0.00000  Uiso   1.00
C462   C     0.16048   0.96954   0.56476   0.00000  Uiso   1.00
C463   C     0.08900   0.98439   0.55909   0.00000  Uiso   1.00
C464   C     0.07106   0.97536   0.60920   0.00000  Uiso   1.00
C465   C     0.01450   0.96917   0.67722   0.00000  Uiso   1.00
C466   C     0.25667   0.02079   0.56242   0.00000  Uiso   1.00
C467   C     0.26605   0.07873   0.55478   0.00000  Uiso   1.00
C468   C     0.32908   0.11283   0.60291   0.00000  Uiso   1.00
C469   C     0.42188   0.18617   0.66726   0.00000  Uiso   1.00
C470   C     0.22366   0.90801   0.48781   0.00000  Uiso   1.00
C471   C     0.20532   0.87112   0.41743   0.00000  Uiso   1.00
C472   C     0.24058   0.81027   0.40274   0.00000  Uiso   1.00
C473   C     0.28213   0.70850   0.35125   0.00000  Uiso   1.00
C474   C     0.28711   0.93336   0.61476   0.00000  Uiso   1.00
C475   C     0.21223   0.94649   0.61857   0.00000  Uiso   1.00
C476   C     0.19439   0.93742   0.66869   0.00000  Uiso   1.00
C477   C     0.12289   0.95225   0.66310   0.00000  Uiso   1.00
C478   C     0.30841   0.99774   0.61623   0.00000  Uiso   1.00
C479   C     0.37145   0.03176   0.66438   0.00000  Uiso   1.00
C480   C     0.38092   0.08973   0.65681   0.00000  Uiso   1.00
C481   C     0.27541   0.88495   0.54161   0.00000  Uiso   1.00
C482   C     0.31071   0.82415   0.52703   0.00000  Uiso   1.00
C483   C     0.29242   0.78717   0.45665   0.00000  Uiso   1.00
H484   H     0.15156   0.99377   0.47381   0.00000  Uiso   1.00
H485   H     0.04897   0.00224   0.51745   0.00000  Uiso   1.00
H486   H     0.22600   0.09656   0.51313   0.00000  Uiso   1.00
H487   H     0.16527   0.88898   0.37581   0.00000  Uiso   1.00
H488   H     0.95806   0.00150   0.58958   0.00000  Uiso   1.00
H489   H     0.33135   0.20035   0.58045   0.00000  Uiso   1.00
H490   H     0.20329   0.76263   0.29088   0.00000  Uiso   1.00
H491   H     0.32739   0.91540   0.65665   0.00000  Uiso   1.00
H492   H     0.23445   0.91958   0.71033   0.00000  Uiso   1.00
H493   H     0.41148   0.01389   0.70601   0.00000  Uiso   1.00
H494   H     0.35075   0.80632   0.56868   0.00000  Uiso   1.00
H495   H     0.10859   0.93440   0.74612   0.00000  Uiso   1.00
H496   H     0.48189   0.13326   0.73700   0.00000  Uiso   1.00
H497   H     0.35383   0.69554   0.44743   0.00000  Uiso   1.00
O498   O     0.96902   0.97213   0.69987   0.00000  Uiso   1.00
O499   O     0.45876   0.23301   0.68789   0.00000  Uiso   1.00
O500   O     0.29075   0.65873   0.30798   0.00000  Uiso   1.00
N501   N     0.00624   0.98512   0.61905   0.00000  Uiso   1.00
N502   N     0.35524   0.17104   0.61052   0.00000  Uiso   1.00
N503   N     0.23553   0.76182   0.33979   0.00000  Uiso   1.00
N504   N     0.08724   0.94902   0.70328   0.00000  Uiso   1.00
N505   N     0.43624   0.13494   0.69476   0.00000  Uiso   1.00
N506   N     0.31653   0.72572   0.42403   0.00000  Uiso   1.00
C507   C     0.90388   0.81088   0.72523   0.00000  Uiso   1.00
C508   C     0.83775   0.85695   0.72488   0.00000  Uiso   1.00
C509   C     0.83880   0.92515   0.75074   0.00000  Uiso   1.00
C510   C     0.77251   0.95842   0.74555   0.00000  Uiso   1.00
C511   C     0.67971   0.03509   0.74960   0.00000  Uiso   1.00
C512   C     0.90557   0.76501   0.76406   0.00000  Uiso   1.00
C513   C     0.96363   0.75591   0.82286   0.00000  Uiso   1.00
C514   C     0.95443   0.71177   0.85065   0.00000  Uiso   1.00
C515   C     0.96694   0.64567   0.91549   0.00000  Uiso   1.00
C516   C     0.88638   0.76804   0.64894   0.00000  Uiso   1.00
C517   C     0.92832   0.76147   0.61094   0.00000  Uiso   1.00
C518   C     0.90297   0.71987   0.54181   0.00000  Uiso   1.00
C519   C     0.88568   0.65848   0.42791   0.00000  Uiso   1.00
C520   C     0.78429   0.74867   0.67004   0.00000  Uiso   1.00
C521   C     0.77280   0.82316   0.69491   0.00000  Uiso   1.00
C522   C     0.70649   0.85633   0.68967   0.00000  Uiso   1.00
C523   C     0.70743   0.92457   0.71552   0.00000  Uiso   1.00
C524   C     0.84061   0.73122   0.73409   0.00000  Uiso   1.00
C525   C     0.83133   0.68708   0.76180   0.00000  Uiso   1.00
C526   C     0.88936   0.67792   0.82062   0.00000  Uiso   1.00
C527   C     0.82142   0.73425   0.61896   0.00000  Uiso   1.00
C528   C     0.79600   0.69265   0.54988   0.00000  Uiso   1.00
C529   C     0.83789   0.68602   0.51178   0.00000  Uiso   1.00
H530   H     0.95445   0.83718   0.74857   0.00000  Uiso   1.00
H531   H     0.88908   0.95129   0.77394   0.00000  Uiso   1.00
H532   H     0.01389   0.78206   0.84604   0.00000  Uiso   1.00
H533   H     0.97858   0.78763   0.63415   0.00000  Uiso   1.00
H534   H     0.78795   0.06289   0.78886   0.00000  Uiso   1.00
H535   H     0.05115   0.70605   0.94088   0.00000  Uiso   1.00
H536   H     0.97668   0.71779   0.49408   0.00000  Uiso   1.00
H537   H     0.73372   0.72236   0.64670   0.00000  Uiso   1.00
H538   H     0.65623   0.83017   0.66647   0.00000  Uiso   1.00
H539   H     0.78105   0.66094   0.73858   0.00000  Uiso   1.00
H540   H     0.74574   0.66651   0.52670   0.00000  Uiso   1.00
H541   H     0.59897   0.96458   0.70164   0.00000  Uiso   1.00
H542   H     0.86217   0.60774   0.85366   0.00000  Uiso   1.00
H543   H     0.78770   0.61948   0.40686   0.00000  Uiso   1.00
O544   O     0.64647   0.08672   0.76012   0.00000  Uiso   1.00
O545   O     0.99178   0.61855   0.95955   0.00000  Uiso   1.00
O546   O     0.89408   0.63396   0.37336   0.00000  Uiso   1.00
N547   N     0.75411   0.02496   0.76561   0.00000  Uiso   1.00
N548   N     0.00018   0.69134   0.90774   0.00000  Uiso   1.00
N549   N     0.93057   0.70230   0.49003   0.00000  Uiso   1.00
N550   N     0.65242   0.97206   0.71868   0.00000  Uiso   1.00
N551   N     0.89849   0.63844   0.86081   0.00000  Uiso   1.00
N552   N     0.82888   0.64941   0.44309   0.00000  Uiso   1.00
