data_job_02743
_audit_creation_date              2018-12-19
_audit_creation_method            'Materials Studio'
_symmetry_space_group_name_H-M    'P1'
_symmetry_Int_Tables_number       1
_symmetry_cell_setting            triclinic
loop_
_symmetry_equiv_pos_as_xyz
  x,y,z
_cell_length_a                    20.2940
_cell_length_b                    20.2940
_cell_length_c                    13.4307
_cell_angle_alpha                 90.0000
_cell_angle_beta                  90.0000
_cell_angle_gamma                 90.0000
loop_
_atom_site_label
_atom_site_type_symbol
_atom_site_fract_x
_atom_site_fract_y
_atom_site_fract_z
_atom_site_U_iso_or_equiv
_atom_site_adp_type
_atom_site_occupancy
C1     C     0.29450   0.74004   0.49818   0.00000  Uiso   1.00
C2     C     0.31291   0.80264   0.55449   0.00000  Uiso   1.00
C3     C     0.33665   0.80545   0.65130   0.00000  Uiso   1.00
C4     C     0.35058   0.86749   0.68945   0.00000  Uiso   1.00
C5     C     0.38057   0.95600   0.78554   0.00000  Uiso   1.00
C6     C     0.22311   0.74901   0.46545   0.00000  Uiso   1.00
C7     C     0.17135   0.70673   0.48738   0.00000  Uiso   1.00
C8     C     0.10970   0.72363   0.45055   0.00000  Uiso   1.00
C9     C     0.00029   0.72886   0.40834   0.00000  Uiso   1.00
C10    C     0.33551   0.74054   0.40304   0.00000  Uiso   1.00
C11    C     0.37825   0.69114   0.37248   0.00000  Uiso   1.00
C12    C     0.41121   0.70090   0.28310   0.00000  Uiso   1.00
C13    C     0.47632   0.69298   0.14399   0.00000  Uiso   1.00
C14    C     0.27703   0.84521   0.39377   0.00000  Uiso   1.00
C15    C     0.30342   0.85976   0.49778   0.00000  Uiso   1.00
C16    C     0.31732   0.92182   0.53579   0.00000  Uiso   1.00
C17    C     0.34108   0.92472   0.63264   0.00000  Uiso   1.00
C18    C     0.21362   0.80614   0.40874   0.00000  Uiso   1.00
C19    C     0.15203   0.82310   0.37187   0.00000  Uiso   1.00
C20    C     0.10019   0.78086   0.39374   0.00000  Uiso   1.00
C21    C     0.32602   0.79767   0.34633   0.00000  Uiso   1.00
C22    C     0.35892   0.80751   0.25698   0.00000  Uiso   1.00
C23    C     0.40171   0.75813   0.22629   0.00000  Uiso   1.00
H24    H     0.30188   0.69556   0.54232   0.00000  Uiso   1.00
H25    H     0.34398   0.76123   0.69517   0.00000  Uiso   1.00
H26    H     0.17871   0.66253   0.53126   0.00000  Uiso   1.00
H27    H     0.38558   0.64694   0.41638   0.00000  Uiso   1.00
H28    H     0.38644   0.85923   0.83963   0.00000  Uiso   1.00
H29    H     0.03797   0.65109   0.49399   0.00000  Uiso   1.00
H30    H     0.47419   0.61822   0.25175   0.00000  Uiso   1.00
H31    H     0.26964   0.88969   0.34962   0.00000  Uiso   1.00
H32    H     0.30997   0.96602   0.49189   0.00000  Uiso   1.00
H33    H     0.14471   0.86731   0.32798   0.00000  Uiso   1.00
H34    H     0.35157   0.85172   0.21311   0.00000  Uiso   1.00
H35    H     0.35883   0.02544   0.67464   0.00000  Uiso   1.00
H36    H     0.01037   0.81730   0.32900   0.00000  Uiso   1.00
H37    H     0.44658   0.78443   0.08677   0.00000  Uiso   1.00
O38    O     0.39972   0.98904   0.85421   0.00000  Uiso   1.00
O39    O     0.94256   0.71597   0.40073   0.00000  Uiso   1.00
O40    O     0.51486   0.67284   0.08293   0.00000  Uiso   1.00
N41    N     0.37442   0.88787   0.78126   0.00000  Uiso   1.00
N42    N     0.04862   0.69328   0.45813   0.00000  Uiso   1.00
N43    N     0.45643   0.66254   0.23165   0.00000  Uiso   1.00
N44    N     0.35957   0.97731   0.69249   0.00000  Uiso   1.00
N45    N     0.03377   0.78272   0.36935   0.00000  Uiso   1.00
N46    N     0.44158   0.75198   0.14287   0.00000  Uiso   1.00
C47    C     0.70550   0.25996   0.99818   0.00000  Uiso   1.00
C48    C     0.68709   0.19736   0.05449   0.00000  Uiso   1.00
C49    C     0.66335   0.19455   0.15130   0.00000  Uiso   1.00
C50    C     0.64942   0.13251   0.18945   0.00000  Uiso   1.00
C51    C     0.61943   0.04400   0.28554   0.00000  Uiso   1.00
C52    C     0.77689   0.25099   0.96545   0.00000  Uiso   1.00
C53    C     0.82865   0.29327   0.98738   0.00000  Uiso   1.00
C54    C     0.89030   0.27637   0.95055   0.00000  Uiso   1.00
C55    C     0.99971   0.27114   0.90834   0.00000  Uiso   1.00
C56    C     0.66449   0.25946   0.90304   0.00000  Uiso   1.00
C57    C     0.62175   0.30886   0.87248   0.00000  Uiso   1.00
C58    C     0.58879   0.29910   0.78310   0.00000  Uiso   1.00
C59    C     0.52368   0.30702   0.64399   0.00000  Uiso   1.00
C60    C     0.72297   0.15479   0.89377   0.00000  Uiso   1.00
C61    C     0.69658   0.14024   0.99778   0.00000  Uiso   1.00
C62    C     0.68268   0.07818   0.03579   0.00000  Uiso   1.00
C63    C     0.65892   0.07528   0.13264   0.00000  Uiso   1.00
C64    C     0.78638   0.19386   0.90874   0.00000  Uiso   1.00
C65    C     0.84797   0.17690   0.87187   0.00000  Uiso   1.00
C66    C     0.89981   0.21914   0.89374   0.00000  Uiso   1.00
C67    C     0.67398   0.20233   0.84633   0.00000  Uiso   1.00
C68    C     0.64108   0.19249   0.75698   0.00000  Uiso   1.00
C69    C     0.59829   0.24187   0.72629   0.00000  Uiso   1.00
H70    H     0.69812   0.30444   0.04232   0.00000  Uiso   1.00
H71    H     0.65602   0.23877   0.19517   0.00000  Uiso   1.00
H72    H     0.82129   0.33747   0.03126   0.00000  Uiso   1.00
H73    H     0.61442   0.35306   0.91638   0.00000  Uiso   1.00
H74    H     0.61356   0.14077   0.33963   0.00000  Uiso   1.00
H75    H     0.96203   0.34891   0.99399   0.00000  Uiso   1.00
H76    H     0.52581   0.38178   0.75175   0.00000  Uiso   1.00
H77    H     0.73036   0.11031   0.84962   0.00000  Uiso   1.00
H78    H     0.69003   0.03398   0.99189   0.00000  Uiso   1.00
H79    H     0.85529   0.13269   0.82798   0.00000  Uiso   1.00
H80    H     0.64843   0.14828   0.71311   0.00000  Uiso   1.00
H81    H     0.64117   0.97456   0.17464   0.00000  Uiso   1.00
H82    H     0.98963   0.18270   0.82900   0.00000  Uiso   1.00
H83    H     0.55342   0.21557   0.58677   0.00000  Uiso   1.00
O84    O     0.60028   0.01096   0.35421   0.00000  Uiso   1.00
O85    O     0.05744   0.28403   0.90073   0.00000  Uiso   1.00
O86    O     0.48514   0.32716   0.58293   0.00000  Uiso   1.00
N87    N     0.62558   0.11213   0.28126   0.00000  Uiso   1.00
N88    N     0.95138   0.30672   0.95813   0.00000  Uiso   1.00
N89    N     0.54357   0.33746   0.73165   0.00000  Uiso   1.00
N90    N     0.64043   0.02269   0.19249   0.00000  Uiso   1.00
N91    N     0.96623   0.21728   0.86935   0.00000  Uiso   1.00
N92    N     0.55842   0.24802   0.64287   0.00000  Uiso   1.00
C93    C     0.75996   0.79450   0.24818   0.00000  Uiso   1.00
C94    C     0.69736   0.81291   0.30449   0.00000  Uiso   1.00
C95    C     0.69455   0.83665   0.40130   0.00000  Uiso   1.00
C96    C     0.63251   0.85058   0.43945   0.00000  Uiso   1.00
C97    C     0.54400   0.88057   0.53554   0.00000  Uiso   1.00
C98    C     0.75099   0.72311   0.21545   0.00000  Uiso   1.00
C99    C     0.79327   0.67135   0.23738   0.00000  Uiso   1.00
C100   C     0.77637   0.60970   0.20055   0.00000  Uiso   1.00
C101   C     0.77114   0.50029   0.15834   0.00000  Uiso   1.00
C102   C     0.75946   0.83551   0.15304   0.00000  Uiso   1.00
C103   C     0.80886   0.87825   0.12248   0.00000  Uiso   1.00
C104   C     0.79910   0.91121   0.03310   0.00000  Uiso   1.00
C105   C     0.80702   0.97632   0.89399   0.00000  Uiso   1.00
C106   C     0.65479   0.77703   0.14377   0.00000  Uiso   1.00
C107   C     0.64024   0.80342   0.24778   0.00000  Uiso   1.00
C108   C     0.57818   0.81732   0.28579   0.00000  Uiso   1.00
C109   C     0.57528   0.84108   0.38264   0.00000  Uiso   1.00
C110   C     0.69386   0.71362   0.15874   0.00000  Uiso   1.00
C111   C     0.67690   0.65203   0.12187   0.00000  Uiso   1.00
C112   C     0.71914   0.60019   0.14374   0.00000  Uiso   1.00
C113   C     0.70233   0.82602   0.09633   0.00000  Uiso   1.00
C114   C     0.69249   0.85892   0.00698   0.00000  Uiso   1.00
C115   C     0.74187   0.90171   0.97629   0.00000  Uiso   1.00
H116   H     0.80444   0.80188   0.29232   0.00000  Uiso   1.00
H117   H     0.73877   0.84398   0.44517   0.00000  Uiso   1.00
H118   H     0.83747   0.67871   0.28126   0.00000  Uiso   1.00
H119   H     0.85306   0.88558   0.16638   0.00000  Uiso   1.00
H120   H     0.64077   0.88644   0.58963   0.00000  Uiso   1.00
H121   H     0.84891   0.53797   0.24399   0.00000  Uiso   1.00
H122   H     0.88178   0.97419   0.00175   0.00000  Uiso   1.00
H123   H     0.61031   0.76964   0.09962   0.00000  Uiso   1.00
H124   H     0.53398   0.80997   0.24189   0.00000  Uiso   1.00
H125   H     0.63269   0.64471   0.07798   0.00000  Uiso   1.00
H126   H     0.64828   0.85157   0.96311   0.00000  Uiso   1.00
H127   H     0.47456   0.85883   0.42464   0.00000  Uiso   1.00
H128   H     0.68270   0.51037   0.07900   0.00000  Uiso   1.00
H129   H     0.71557   0.94658   0.83677   0.00000  Uiso   1.00
O130   O     0.51096   0.89972   0.60421   0.00000  Uiso   1.00
O131   O     0.78403   0.44256   0.15073   0.00000  Uiso   1.00
O132   O     0.82716   0.01486   0.83293   0.00000  Uiso   1.00
N133   N     0.61213   0.87442   0.53126   0.00000  Uiso   1.00
N134   N     0.80672   0.54862   0.20813   0.00000  Uiso   1.00
N135   N     0.83746   0.95643   0.98165   0.00000  Uiso   1.00
N136   N     0.52269   0.85957   0.44249   0.00000  Uiso   1.00
N137   N     0.71728   0.53377   0.11935   0.00000  Uiso   1.00
N138   N     0.74802   0.94158   0.89287   0.00000  Uiso   1.00
C139   C     0.24004   0.20550   0.74818   0.00000  Uiso   1.00
C140   C     0.30264   0.18709   0.80449   0.00000  Uiso   1.00
C141   C     0.30545   0.16335   0.90130   0.00000  Uiso   1.00
C142   C     0.36749   0.14942   0.93945   0.00000  Uiso   1.00
C143   C     0.45600   0.11943   0.03554   0.00000  Uiso   1.00
C144   C     0.24901   0.27689   0.71545   0.00000  Uiso   1.00
C145   C     0.20673   0.32865   0.73738   0.00000  Uiso   1.00
C146   C     0.22363   0.39030   0.70055   0.00000  Uiso   1.00
C147   C     0.22886   0.49971   0.65834   0.00000  Uiso   1.00
C148   C     0.24054   0.16449   0.65304   0.00000  Uiso   1.00
C149   C     0.19114   0.12175   0.62248   0.00000  Uiso   1.00
C150   C     0.20090   0.08879   0.53310   0.00000  Uiso   1.00
C151   C     0.19298   0.02368   0.39399   0.00000  Uiso   1.00
C152   C     0.34521   0.22297   0.64377   0.00000  Uiso   1.00
C153   C     0.35976   0.19658   0.74778   0.00000  Uiso   1.00
C154   C     0.42182   0.18268   0.78579   0.00000  Uiso   1.00
C155   C     0.42472   0.15892   0.88264   0.00000  Uiso   1.00
C156   C     0.30614   0.28638   0.65874   0.00000  Uiso   1.00
C157   C     0.32310   0.34797   0.62187   0.00000  Uiso   1.00
C158   C     0.28086   0.39981   0.64374   0.00000  Uiso   1.00
C159   C     0.29767   0.17398   0.59633   0.00000  Uiso   1.00
C160   C     0.30751   0.14108   0.50698   0.00000  Uiso   1.00
C161   C     0.25813   0.09829   0.47629   0.00000  Uiso   1.00
H162   H     0.19556   0.19812   0.79232   0.00000  Uiso   1.00
H163   H     0.26123   0.15602   0.94517   0.00000  Uiso   1.00
H164   H     0.16253   0.32129   0.78126   0.00000  Uiso   1.00
H165   H     0.14694   0.11442   0.66638   0.00000  Uiso   1.00
H166   H     0.35923   0.11356   0.08963   0.00000  Uiso   1.00
H167   H     0.15109   0.46203   0.74399   0.00000  Uiso   1.00
H168   H     0.11822   0.02581   0.50175   0.00000  Uiso   1.00
H169   H     0.38969   0.23036   0.59962   0.00000  Uiso   1.00
H170   H     0.46602   0.19003   0.74189   0.00000  Uiso   1.00
H171   H     0.36731   0.35529   0.57798   0.00000  Uiso   1.00
H172   H     0.35172   0.14843   0.46311   0.00000  Uiso   1.00
H173   H     0.52544   0.14117   0.92464   0.00000  Uiso   1.00
H174   H     0.31730   0.48963   0.57900   0.00000  Uiso   1.00
H175   H     0.28443   0.05342   0.33677   0.00000  Uiso   1.00
O176   O     0.48904   0.10028   0.10421   0.00000  Uiso   1.00
O177   O     0.21597   0.55744   0.65073   0.00000  Uiso   1.00
O178   O     0.17284   0.98514   0.33293   0.00000  Uiso   1.00
N179   N     0.38787   0.12558   0.03126   0.00000  Uiso   1.00
N180   N     0.19328   0.45138   0.70813   0.00000  Uiso   1.00
N181   N     0.16254   0.04357   0.48165   0.00000  Uiso   1.00
N182   N     0.47731   0.14043   0.94249   0.00000  Uiso   1.00
N183   N     0.28272   0.46623   0.61935   0.00000  Uiso   1.00
N184   N     0.25198   0.05842   0.39287   0.00000  Uiso   1.00
C185   C     0.20550   0.24004   0.25182   0.00000  Uiso   1.00
C186   C     0.18709   0.30264   0.19551   0.00000  Uiso   1.00
C187   C     0.16335   0.30545   0.09870   0.00000  Uiso   1.00
C188   C     0.14942   0.36749   0.06055   0.00000  Uiso   1.00
C189   C     0.11943   0.45600   0.96446   0.00000  Uiso   1.00
C190   C     0.27689   0.24901   0.28455   0.00000  Uiso   1.00
C191   C     0.32865   0.20673   0.26262   0.00000  Uiso   1.00
C192   C     0.39030   0.22363   0.29945   0.00000  Uiso   1.00
C193   C     0.49971   0.22886   0.34166   0.00000  Uiso   1.00
C194   C     0.16449   0.24054   0.34696   0.00000  Uiso   1.00
C195   C     0.12175   0.19114   0.37752   0.00000  Uiso   1.00
C196   C     0.08879   0.20090   0.46690   0.00000  Uiso   1.00
C197   C     0.02368   0.19298   0.60601   0.00000  Uiso   1.00
C198   C     0.22297   0.34521   0.35623   0.00000  Uiso   1.00
C199   C     0.19658   0.35976   0.25222   0.00000  Uiso   1.00
C200   C     0.18268   0.42182   0.21421   0.00000  Uiso   1.00
C201   C     0.15892   0.42472   0.11736   0.00000  Uiso   1.00
C202   C     0.28638   0.30614   0.34126   0.00000  Uiso   1.00
C203   C     0.34797   0.32310   0.37813   0.00000  Uiso   1.00
C204   C     0.39981   0.28086   0.35626   0.00000  Uiso   1.00
C205   C     0.17398   0.29767   0.40367   0.00000  Uiso   1.00
C206   C     0.14108   0.30751   0.49302   0.00000  Uiso   1.00
C207   C     0.09829   0.25813   0.52371   0.00000  Uiso   1.00
H208   H     0.19812   0.19556   0.20768   0.00000  Uiso   1.00
H209   H     0.15602   0.26123   0.05483   0.00000  Uiso   1.00
H210   H     0.32129   0.16253   0.21874   0.00000  Uiso   1.00
H211   H     0.11442   0.14694   0.33362   0.00000  Uiso   1.00
H212   H     0.11356   0.35923   0.91037   0.00000  Uiso   1.00
H213   H     0.46203   0.15109   0.25601   0.00000  Uiso   1.00
H214   H     0.02581   0.11822   0.49825   0.00000  Uiso   1.00
H215   H     0.23036   0.38969   0.40038   0.00000  Uiso   1.00
H216   H     0.19003   0.46602   0.25811   0.00000  Uiso   1.00
H217   H     0.35529   0.36731   0.42202   0.00000  Uiso   1.00
H218   H     0.14843   0.35172   0.53689   0.00000  Uiso   1.00
H219   H     0.14117   0.52544   0.07536   0.00000  Uiso   1.00
H220   H     0.48963   0.31730   0.42100   0.00000  Uiso   1.00
H221   H     0.05342   0.28443   0.66323   0.00000  Uiso   1.00
O222   O     0.10028   0.48904   0.89579   0.00000  Uiso   1.00
O223   O     0.55744   0.21597   0.34927   0.00000  Uiso   1.00
O224   O     0.98514   0.17284   0.66707   0.00000  Uiso   1.00
N225   N     0.12558   0.38787   0.96874   0.00000  Uiso   1.00
N226   N     0.45138   0.19328   0.29187   0.00000  Uiso   1.00
N227   N     0.04357   0.16254   0.51835   0.00000  Uiso   1.00
N228   N     0.14043   0.47731   0.05751   0.00000  Uiso   1.00
N229   N     0.46623   0.28272   0.38065   0.00000  Uiso   1.00
N230   N     0.05842   0.25198   0.60713   0.00000  Uiso   1.00
C231   C     0.79450   0.75996   0.75182   0.00000  Uiso   1.00
C232   C     0.81291   0.69736   0.69551   0.00000  Uiso   1.00
C233   C     0.83665   0.69455   0.59870   0.00000  Uiso   1.00
C234   C     0.85058   0.63251   0.56055   0.00000  Uiso   1.00
C235   C     0.88057   0.54400   0.46446   0.00000  Uiso   1.00
C236   C     0.72311   0.75099   0.78455   0.00000  Uiso   1.00
C237   C     0.67135   0.79327   0.76262   0.00000  Uiso   1.00
C238   C     0.60970   0.77637   0.79945   0.00000  Uiso   1.00
C239   C     0.50029   0.77114   0.84166   0.00000  Uiso   1.00
C240   C     0.83551   0.75946   0.84696   0.00000  Uiso   1.00
C241   C     0.87825   0.80886   0.87752   0.00000  Uiso   1.00
C242   C     0.91121   0.79910   0.96690   0.00000  Uiso   1.00
C243   C     0.97632   0.80702   0.10601   0.00000  Uiso   1.00
C244   C     0.77703   0.65479   0.85623   0.00000  Uiso   1.00
C245   C     0.80342   0.64024   0.75222   0.00000  Uiso   1.00
C246   C     0.81732   0.57818   0.71421   0.00000  Uiso   1.00
C247   C     0.84108   0.57528   0.61736   0.00000  Uiso   1.00
C248   C     0.71362   0.69386   0.84126   0.00000  Uiso   1.00
C249   C     0.65203   0.67690   0.87813   0.00000  Uiso   1.00
C250   C     0.60019   0.71914   0.85626   0.00000  Uiso   1.00
C251   C     0.82602   0.70233   0.90367   0.00000  Uiso   1.00
C252   C     0.85892   0.69249   0.99302   0.00000  Uiso   1.00
C253   C     0.90171   0.74187   0.02371   0.00000  Uiso   1.00
H254   H     0.80188   0.80444   0.70768   0.00000  Uiso   1.00
H255   H     0.84398   0.73877   0.55483   0.00000  Uiso   1.00
H256   H     0.67871   0.83747   0.71874   0.00000  Uiso   1.00
H257   H     0.88558   0.85306   0.83362   0.00000  Uiso   1.00
H258   H     0.88644   0.64077   0.41037   0.00000  Uiso   1.00
H259   H     0.53797   0.84891   0.75601   0.00000  Uiso   1.00
H260   H     0.97419   0.88178   0.99825   0.00000  Uiso   1.00
H261   H     0.76964   0.61031   0.90038   0.00000  Uiso   1.00
H262   H     0.80997   0.53398   0.75811   0.00000  Uiso   1.00
H263   H     0.64471   0.63269   0.92202   0.00000  Uiso   1.00
H264   H     0.85157   0.64828   0.03689   0.00000  Uiso   1.00
H265   H     0.85883   0.47456   0.57536   0.00000  Uiso   1.00
H266   H     0.51037   0.68270   0.92100   0.00000  Uiso   1.00
H267   H     0.94658   0.71557   0.16323   0.00000  Uiso   1.00
O268   O     0.89972   0.51096   0.39579   0.00000  Uiso   1.00
O269   O     0.44256   0.78403   0.84927   0.00000  Uiso   1.00
O270   O     0.01486   0.82716   0.16707   0.00000  Uiso   1.00
N271   N     0.87442   0.61213   0.46874   0.00000  Uiso   1.00
N272   N     0.54862   0.80672   0.79187   0.00000  Uiso   1.00
N273   N     0.95643   0.83746   0.01835   0.00000  Uiso   1.00
N274   N     0.85957   0.52269   0.55751   0.00000  Uiso   1.00
N275   N     0.53377   0.71728   0.88065   0.00000  Uiso   1.00
N276   N     0.94158   0.74802   0.10713   0.00000  Uiso   1.00
C277   C     0.74004   0.29450   0.50182   0.00000  Uiso   1.00
C278   C     0.80264   0.31291   0.44551   0.00000  Uiso   1.00
C279   C     0.80545   0.33665   0.34870   0.00000  Uiso   1.00
C280   C     0.86749   0.35058   0.31055   0.00000  Uiso   1.00
C281   C     0.95600   0.38057   0.21446   0.00000  Uiso   1.00
C282   C     0.74901   0.22311   0.53455   0.00000  Uiso   1.00
C283   C     0.70673   0.17135   0.51262   0.00000  Uiso   1.00
C284   C     0.72363   0.10970   0.54945   0.00000  Uiso   1.00
C285   C     0.72886   0.00029   0.59166   0.00000  Uiso   1.00
C286   C     0.74054   0.33551   0.59696   0.00000  Uiso   1.00
C287   C     0.69114   0.37825   0.62752   0.00000  Uiso   1.00
C288   C     0.70090   0.41121   0.71690   0.00000  Uiso   1.00
C289   C     0.69298   0.47632   0.85601   0.00000  Uiso   1.00
C290   C     0.84521   0.27703   0.60623   0.00000  Uiso   1.00
C291   C     0.85976   0.30342   0.50222   0.00000  Uiso   1.00
C292   C     0.92182   0.31732   0.46421   0.00000  Uiso   1.00
C293   C     0.92472   0.34108   0.36736   0.00000  Uiso   1.00
C294   C     0.80614   0.21362   0.59126   0.00000  Uiso   1.00
C295   C     0.82310   0.15203   0.62813   0.00000  Uiso   1.00
C296   C     0.78086   0.10019   0.60626   0.00000  Uiso   1.00
C297   C     0.79767   0.32602   0.65367   0.00000  Uiso   1.00
C298   C     0.80751   0.35892   0.74302   0.00000  Uiso   1.00
C299   C     0.75813   0.40171   0.77371   0.00000  Uiso   1.00
H300   H     0.69556   0.30188   0.45768   0.00000  Uiso   1.00
H301   H     0.76123   0.34398   0.30483   0.00000  Uiso   1.00
H302   H     0.66253   0.17871   0.46874   0.00000  Uiso   1.00
H303   H     0.64694   0.38558   0.58362   0.00000  Uiso   1.00
H304   H     0.85923   0.38644   0.16037   0.00000  Uiso   1.00
H305   H     0.65109   0.03797   0.50601   0.00000  Uiso   1.00
H306   H     0.61822   0.47419   0.74825   0.00000  Uiso   1.00
H307   H     0.88969   0.26964   0.65038   0.00000  Uiso   1.00
H308   H     0.96602   0.30997   0.50811   0.00000  Uiso   1.00
H309   H     0.86731   0.14471   0.67202   0.00000  Uiso   1.00
H310   H     0.85172   0.35157   0.78689   0.00000  Uiso   1.00
H311   H     0.02544   0.35883   0.32536   0.00000  Uiso   1.00
H312   H     0.81730   0.01037   0.67100   0.00000  Uiso   1.00
H313   H     0.78443   0.44658   0.91323   0.00000  Uiso   1.00
O314   O     0.98904   0.39972   0.14579   0.00000  Uiso   1.00
O315   O     0.71597   0.94256   0.59927   0.00000  Uiso   1.00
O316   O     0.67284   0.51486   0.91707   0.00000  Uiso   1.00
N317   N     0.88787   0.37442   0.21874   0.00000  Uiso   1.00
N318   N     0.69328   0.04862   0.54187   0.00000  Uiso   1.00
N319   N     0.66254   0.45643   0.76835   0.00000  Uiso   1.00
N320   N     0.97731   0.35957   0.30751   0.00000  Uiso   1.00
N321   N     0.78272   0.03377   0.63065   0.00000  Uiso   1.00
N322   N     0.75198   0.44158   0.85713   0.00000  Uiso   1.00
C323   C     0.25996   0.70550   0.00182   0.00000  Uiso   1.00
C324   C     0.19736   0.68709   0.94551   0.00000  Uiso   1.00
C325   C     0.19455   0.66335   0.84870   0.00000  Uiso   1.00
C326   C     0.13251   0.64942   0.81055   0.00000  Uiso   1.00
C327   C     0.04400   0.61943   0.71446   0.00000  Uiso   1.00
C328   C     0.25099   0.77689   0.03455   0.00000  Uiso   1.00
C329   C     0.29327   0.82865   0.01262   0.00000  Uiso   1.00
C330   C     0.27637   0.89030   0.04945   0.00000  Uiso   1.00
C331   C     0.27114   0.99971   0.09166   0.00000  Uiso   1.00
C332   C     0.25946   0.66449   0.09696   0.00000  Uiso   1.00
C333   C     0.30886   0.62175   0.12752   0.00000  Uiso   1.00
C334   C     0.29910   0.58879   0.21690   0.00000  Uiso   1.00
C335   C     0.30702   0.52368   0.35601   0.00000  Uiso   1.00
C336   C     0.15479   0.72297   0.10623   0.00000  Uiso   1.00
C337   C     0.14024   0.69658   0.00222   0.00000  Uiso   1.00
C338   C     0.07818   0.68268   0.96421   0.00000  Uiso   1.00
C339   C     0.07528   0.65892   0.86736   0.00000  Uiso   1.00
C340   C     0.19386   0.78638   0.09126   0.00000  Uiso   1.00
C341   C     0.17690   0.84797   0.12813   0.00000  Uiso   1.00
C342   C     0.21914   0.89981   0.10626   0.00000  Uiso   1.00
C343   C     0.20233   0.67398   0.15367   0.00000  Uiso   1.00
C344   C     0.19249   0.64108   0.24302   0.00000  Uiso   1.00
C345   C     0.24187   0.59829   0.27371   0.00000  Uiso   1.00
H346   H     0.30444   0.69812   0.95768   0.00000  Uiso   1.00
H347   H     0.23877   0.65602   0.80483   0.00000  Uiso   1.00
H348   H     0.33747   0.82129   0.96874   0.00000  Uiso   1.00
H349   H     0.35306   0.61442   0.08362   0.00000  Uiso   1.00
H350   H     0.14077   0.61356   0.66037   0.00000  Uiso   1.00
H351   H     0.34891   0.96203   0.00601   0.00000  Uiso   1.00
H352   H     0.38178   0.52581   0.24825   0.00000  Uiso   1.00
H353   H     0.11031   0.73036   0.15038   0.00000  Uiso   1.00
H354   H     0.03398   0.69003   0.00811   0.00000  Uiso   1.00
H355   H     0.13269   0.85529   0.17202   0.00000  Uiso   1.00
H356   H     0.14828   0.64843   0.28689   0.00000  Uiso   1.00
H357   H     0.97456   0.64117   0.82536   0.00000  Uiso   1.00
H358   H     0.18270   0.98963   0.17100   0.00000  Uiso   1.00
H359   H     0.21557   0.55342   0.41323   0.00000  Uiso   1.00
O360   O     0.01096   0.60028   0.64579   0.00000  Uiso   1.00
O361   O     0.28403   0.05744   0.09927   0.00000  Uiso   1.00
O362   O     0.32716   0.48514   0.41707   0.00000  Uiso   1.00
N363   N     0.11213   0.62558   0.71874   0.00000  Uiso   1.00
N364   N     0.30672   0.95138   0.04187   0.00000  Uiso   1.00
N365   N     0.33746   0.54357   0.26835   0.00000  Uiso   1.00
N366   N     0.02269   0.64043   0.80751   0.00000  Uiso   1.00
N367   N     0.21728   0.96623   0.13065   0.00000  Uiso   1.00
N368   N     0.24802   0.55842   0.35713   0.00000  Uiso   1.00
