data_job_03646
_audit_creation_date              2018-12-19
_audit_creation_method            'Materials Studio'
_symmetry_space_group_name_H-M    'P1'
_symmetry_Int_Tables_number       1
_symmetry_cell_setting            triclinic
loop_
_symmetry_equiv_pos_as_xyz
  x,y,z
_cell_length_a                    30.1959
_cell_length_b                    19.3533
_cell_length_c                    11.5360
_cell_angle_alpha                 90.0000
_cell_angle_beta                  104.7326
_cell_angle_gamma                 90.0000
loop_
_atom_site_label
_atom_site_type_symbol
_atom_site_fract_x
_atom_site_fract_y
_atom_site_fract_z
_atom_site_U_iso_or_equiv
_atom_site_adp_type
_atom_site_occupancy
C1     C     0.39090   0.70700   0.81613   0.00000  Uiso   1.00
C2     C     0.36545   0.77061   0.75521   0.00000  Uiso   1.00
C3     C     0.38208   0.83779   0.76692   0.00000  Uiso   1.00
C4     C     0.35352   0.88878   0.70385   0.00000  Uiso   1.00
C5     C     0.32063   0.98994   0.62027   0.00000  Uiso   1.00
C6     C     0.35989   0.67412   0.88641   0.00000  Uiso   1.00
C7     C     0.37183   0.66016   0.00842   0.00000  Uiso   1.00
C8     C     0.33859   0.62992   0.05579   0.00000  Uiso   1.00
C9     C     0.29706   0.58124   0.17588   0.00000  Uiso   1.00
C10    C     0.39236   0.65646   0.71576   0.00000  Uiso   1.00
C11    C     0.43161   0.62763   0.69432   0.00000  Uiso   1.00
C12    C     0.42570   0.58250   0.59802   0.00000  Uiso   1.00
C13    C     0.43459   0.50639   0.45316   0.00000  Uiso   1.00
C14    C     0.31063   0.67809   0.68329   0.00000  Uiso   1.00
C15    C     0.32185   0.75491   0.68306   0.00000  Uiso   1.00
C16    C     0.29326   0.80581   0.61994   0.00000  Uiso   1.00
C17    C     0.30984   0.87305   0.63156   0.00000  Uiso   1.00
C18    C     0.31629   0.65842   0.81426   0.00000  Uiso   1.00
C19    C     0.28302   0.62819   0.86145   0.00000  Uiso   1.00
C20    C     0.29491   0.61419   0.98350   0.00000  Uiso   1.00
C21    C     0.34876   0.64076   0.64360   0.00000  Uiso   1.00
C22    C     0.34279   0.59566   0.54733   0.00000  Uiso   1.00
C23    C     0.38202   0.56677   0.52574   0.00000  Uiso   1.00
H24    H     0.42485   0.71922   0.87232   0.00000  Uiso   1.00
H25    H     0.41582   0.84992   0.82278   0.00000  Uiso   1.00
H26    H     0.40558   0.67231   0.06424   0.00000  Uiso   1.00
H27    H     0.46534   0.63979   0.75017   0.00000  Uiso   1.00
H28    H     0.38658   0.98790   0.73607   0.00000  Uiso   1.00
H29    H     0.36498   0.61339   0.24519   0.00000  Uiso   1.00
H30    H     0.49101   0.54481   0.58293   0.00000  Uiso   1.00
H31    H     0.27668   0.66587   0.62711   0.00000  Uiso   1.00
H32    H     0.25952   0.79364   0.56411   0.00000  Uiso   1.00
H33    H     0.24928   0.61604   0.80558   0.00000  Uiso   1.00
H34    H     0.30904   0.58352   0.49151   0.00000  Uiso   1.00
H35    H     0.25972   0.94223   0.52613   0.00000  Uiso   1.00
H36    H     0.23813   0.56771   0.03526   0.00000  Uiso   1.00
H37    H     0.36415   0.49914   0.37299   0.00000  Uiso   1.00
O38    O     0.31453   0.05008   0.59412   0.00000  Uiso   1.00
O39    O     0.28620   0.55873   0.26206   0.00000  Uiso   1.00
O40    O     0.45154   0.46876   0.39319   0.00000  Uiso   1.00
N41    N     0.35908   0.95961   0.69529   0.00000  Uiso   1.00
N42    N     0.33889   0.60948   0.17129   0.00000  Uiso   1.00
N43    N     0.45671   0.54535   0.55215   0.00000  Uiso   1.00
N44    N     0.29082   0.93504   0.58232   0.00000  Uiso   1.00
N45    N     0.27063   0.58490   0.05833   0.00000  Uiso   1.00
N46    N     0.38845   0.52077   0.43918   0.00000  Uiso   1.00
C47    C     0.89090   0.20700   0.81613   0.00000  Uiso   1.00
C48    C     0.86545   0.27061   0.75521   0.00000  Uiso   1.00
C49    C     0.88208   0.33779   0.76692   0.00000  Uiso   1.00
C50    C     0.85352   0.38878   0.70385   0.00000  Uiso   1.00
C51    C     0.82063   0.48994   0.62027   0.00000  Uiso   1.00
C52    C     0.85989   0.17412   0.88641   0.00000  Uiso   1.00
C53    C     0.87183   0.16016   0.00842   0.00000  Uiso   1.00
C54    C     0.83859   0.12992   0.05579   0.00000  Uiso   1.00
C55    C     0.79706   0.08124   0.17588   0.00000  Uiso   1.00
C56    C     0.89236   0.15646   0.71576   0.00000  Uiso   1.00
C57    C     0.93161   0.12763   0.69432   0.00000  Uiso   1.00
C58    C     0.92570   0.08250   0.59802   0.00000  Uiso   1.00
C59    C     0.93459   0.00639   0.45316   0.00000  Uiso   1.00
C60    C     0.81063   0.17809   0.68329   0.00000  Uiso   1.00
C61    C     0.82185   0.25491   0.68306   0.00000  Uiso   1.00
C62    C     0.79326   0.30581   0.61994   0.00000  Uiso   1.00
C63    C     0.80984   0.37305   0.63156   0.00000  Uiso   1.00
C64    C     0.81629   0.15842   0.81426   0.00000  Uiso   1.00
C65    C     0.78302   0.12819   0.86145   0.00000  Uiso   1.00
C66    C     0.79491   0.11419   0.98350   0.00000  Uiso   1.00
C67    C     0.84876   0.14076   0.64360   0.00000  Uiso   1.00
C68    C     0.84279   0.09566   0.54733   0.00000  Uiso   1.00
C69    C     0.88202   0.06677   0.52574   0.00000  Uiso   1.00
H70    H     0.92485   0.21922   0.87232   0.00000  Uiso   1.00
H71    H     0.91582   0.34992   0.82278   0.00000  Uiso   1.00
H72    H     0.90558   0.17231   0.06424   0.00000  Uiso   1.00
H73    H     0.96534   0.13979   0.75017   0.00000  Uiso   1.00
H74    H     0.88658   0.48790   0.73607   0.00000  Uiso   1.00
H75    H     0.86498   0.11339   0.24519   0.00000  Uiso   1.00
H76    H     0.99101   0.04481   0.58293   0.00000  Uiso   1.00
H77    H     0.77668   0.16587   0.62711   0.00000  Uiso   1.00
H78    H     0.75952   0.29364   0.56411   0.00000  Uiso   1.00
H79    H     0.74928   0.11604   0.80558   0.00000  Uiso   1.00
H80    H     0.80904   0.08352   0.49151   0.00000  Uiso   1.00
H81    H     0.75972   0.44223   0.52613   0.00000  Uiso   1.00
H82    H     0.73813   0.06771   0.03526   0.00000  Uiso   1.00
H83    H     0.86415   0.99914   0.37299   0.00000  Uiso   1.00
O84    O     0.81453   0.55008   0.59412   0.00000  Uiso   1.00
O85    O     0.78620   0.05873   0.26206   0.00000  Uiso   1.00
O86    O     0.95154   0.96876   0.39319   0.00000  Uiso   1.00
N87    N     0.85908   0.45961   0.69529   0.00000  Uiso   1.00
N88    N     0.83889   0.10948   0.17129   0.00000  Uiso   1.00
N89    N     0.95671   0.04535   0.55215   0.00000  Uiso   1.00
N90    N     0.79082   0.43504   0.58232   0.00000  Uiso   1.00
N91    N     0.77063   0.08490   0.05833   0.00000  Uiso   1.00
N92    N     0.88845   0.02077   0.43918   0.00000  Uiso   1.00
C93    C     0.60910   0.70700   0.68387   0.00000  Uiso   1.00
C94    C     0.63455   0.77061   0.74479   0.00000  Uiso   1.00
C95    C     0.61792   0.83779   0.73308   0.00000  Uiso   1.00
C96    C     0.64648   0.88878   0.79615   0.00000  Uiso   1.00
C97    C     0.67937   0.98994   0.87973   0.00000  Uiso   1.00
C98    C     0.64011   0.67412   0.61359   0.00000  Uiso   1.00
C99    C     0.62817   0.66016   0.49158   0.00000  Uiso   1.00
C100   C     0.66141   0.62992   0.44421   0.00000  Uiso   1.00
C101   C     0.70294   0.58124   0.32412   0.00000  Uiso   1.00
C102   C     0.60764   0.65646   0.78424   0.00000  Uiso   1.00
C103   C     0.56839   0.62763   0.80568   0.00000  Uiso   1.00
C104   C     0.57430   0.58250   0.90198   0.00000  Uiso   1.00
C105   C     0.56541   0.50639   0.04684   0.00000  Uiso   1.00
C106   C     0.68937   0.67809   0.81671   0.00000  Uiso   1.00
C107   C     0.67815   0.75491   0.81694   0.00000  Uiso   1.00
C108   C     0.70674   0.80581   0.88006   0.00000  Uiso   1.00
C109   C     0.69016   0.87305   0.86844   0.00000  Uiso   1.00
C110   C     0.68371   0.65842   0.68574   0.00000  Uiso   1.00
C111   C     0.71698   0.62819   0.63855   0.00000  Uiso   1.00
C112   C     0.70509   0.61419   0.51650   0.00000  Uiso   1.00
C113   C     0.65124   0.64076   0.85640   0.00000  Uiso   1.00
C114   C     0.65721   0.59566   0.95267   0.00000  Uiso   1.00
C115   C     0.61798   0.56677   0.97426   0.00000  Uiso   1.00
H116   H     0.57515   0.71922   0.62768   0.00000  Uiso   1.00
H117   H     0.58418   0.84992   0.67722   0.00000  Uiso   1.00
H118   H     0.59442   0.67231   0.43576   0.00000  Uiso   1.00
H119   H     0.53466   0.63979   0.74983   0.00000  Uiso   1.00
H120   H     0.61342   0.98790   0.76393   0.00000  Uiso   1.00
H121   H     0.63502   0.61339   0.25481   0.00000  Uiso   1.00
H122   H     0.50899   0.54481   0.91707   0.00000  Uiso   1.00
H123   H     0.72332   0.66587   0.87289   0.00000  Uiso   1.00
H124   H     0.74048   0.79364   0.93589   0.00000  Uiso   1.00
H125   H     0.75072   0.61604   0.69442   0.00000  Uiso   1.00
H126   H     0.69096   0.58352   0.00849   0.00000  Uiso   1.00
H127   H     0.74028   0.94223   0.97387   0.00000  Uiso   1.00
H128   H     0.76187   0.56771   0.46474   0.00000  Uiso   1.00
H129   H     0.63585   0.49914   0.12701   0.00000  Uiso   1.00
O130   O     0.68547   0.05008   0.90588   0.00000  Uiso   1.00
O131   O     0.71380   0.55873   0.23794   0.00000  Uiso   1.00
O132   O     0.54846   0.46876   0.10681   0.00000  Uiso   1.00
N133   N     0.64092   0.95961   0.80471   0.00000  Uiso   1.00
N134   N     0.66111   0.60948   0.32871   0.00000  Uiso   1.00
N135   N     0.54329   0.54535   0.94785   0.00000  Uiso   1.00
N136   N     0.70918   0.93504   0.91768   0.00000  Uiso   1.00
N137   N     0.72937   0.58490   0.44167   0.00000  Uiso   1.00
N138   N     0.61155   0.52077   0.06082   0.00000  Uiso   1.00
C139   C     0.10910   0.20700   0.68387   0.00000  Uiso   1.00
C140   C     0.13455   0.27061   0.74479   0.00000  Uiso   1.00
C141   C     0.11792   0.33779   0.73308   0.00000  Uiso   1.00
C142   C     0.14648   0.38878   0.79615   0.00000  Uiso   1.00
C143   C     0.17937   0.48994   0.87973   0.00000  Uiso   1.00
C144   C     0.14011   0.17412   0.61359   0.00000  Uiso   1.00
C145   C     0.12817   0.16016   0.49158   0.00000  Uiso   1.00
C146   C     0.16141   0.12992   0.44421   0.00000  Uiso   1.00
C147   C     0.20294   0.08124   0.32412   0.00000  Uiso   1.00
C148   C     0.10764   0.15646   0.78424   0.00000  Uiso   1.00
C149   C     0.06839   0.12763   0.80568   0.00000  Uiso   1.00
C150   C     0.07430   0.08250   0.90198   0.00000  Uiso   1.00
C151   C     0.06541   0.00639   0.04684   0.00000  Uiso   1.00
C152   C     0.18937   0.17809   0.81671   0.00000  Uiso   1.00
C153   C     0.17815   0.25491   0.81694   0.00000  Uiso   1.00
C154   C     0.20674   0.30581   0.88006   0.00000  Uiso   1.00
C155   C     0.19016   0.37305   0.86844   0.00000  Uiso   1.00
C156   C     0.18371   0.15842   0.68574   0.00000  Uiso   1.00
C157   C     0.21698   0.12819   0.63855   0.00000  Uiso   1.00
C158   C     0.20509   0.11419   0.51650   0.00000  Uiso   1.00
C159   C     0.15124   0.14076   0.85640   0.00000  Uiso   1.00
C160   C     0.15721   0.09566   0.95267   0.00000  Uiso   1.00
C161   C     0.11798   0.06677   0.97426   0.00000  Uiso   1.00
H162   H     0.07515   0.21922   0.62768   0.00000  Uiso   1.00
H163   H     0.08418   0.34992   0.67722   0.00000  Uiso   1.00
H164   H     0.09442   0.17231   0.43576   0.00000  Uiso   1.00
H165   H     0.03466   0.13979   0.74983   0.00000  Uiso   1.00
H166   H     0.11342   0.48790   0.76393   0.00000  Uiso   1.00
H167   H     0.13502   0.11339   0.25481   0.00000  Uiso   1.00
H168   H     0.00899   0.04481   0.91707   0.00000  Uiso   1.00
H169   H     0.22332   0.16587   0.87289   0.00000  Uiso   1.00
H170   H     0.24048   0.29364   0.93589   0.00000  Uiso   1.00
H171   H     0.25072   0.11604   0.69442   0.00000  Uiso   1.00
H172   H     0.19096   0.08352   0.00849   0.00000  Uiso   1.00
H173   H     0.24028   0.44223   0.97387   0.00000  Uiso   1.00
H174   H     0.26187   0.06771   0.46474   0.00000  Uiso   1.00
H175   H     0.13585   0.99914   0.12701   0.00000  Uiso   1.00
O176   O     0.18547   0.55008   0.90588   0.00000  Uiso   1.00
O177   O     0.21380   0.05873   0.23794   0.00000  Uiso   1.00
O178   O     0.04846   0.96876   0.10681   0.00000  Uiso   1.00
N179   N     0.14092   0.45961   0.80471   0.00000  Uiso   1.00
N180   N     0.16111   0.10948   0.32871   0.00000  Uiso   1.00
N181   N     0.04329   0.04535   0.94785   0.00000  Uiso   1.00
N182   N     0.20918   0.43504   0.91768   0.00000  Uiso   1.00
N183   N     0.22937   0.08490   0.44167   0.00000  Uiso   1.00
N184   N     0.11155   0.02077   0.06082   0.00000  Uiso   1.00
C185   C     0.60910   0.29300   0.18387   0.00000  Uiso   1.00
C186   C     0.63455   0.22939   0.24479   0.00000  Uiso   1.00
C187   C     0.61792   0.16221   0.23308   0.00000  Uiso   1.00
C188   C     0.64648   0.11122   0.29615   0.00000  Uiso   1.00
C189   C     0.67937   0.01006   0.37973   0.00000  Uiso   1.00
C190   C     0.64011   0.32588   0.11359   0.00000  Uiso   1.00
C191   C     0.62817   0.33984   0.99158   0.00000  Uiso   1.00
C192   C     0.66141   0.37008   0.94421   0.00000  Uiso   1.00
C193   C     0.70294   0.41876   0.82412   0.00000  Uiso   1.00
C194   C     0.60764   0.34354   0.28424   0.00000  Uiso   1.00
C195   C     0.56839   0.37237   0.30568   0.00000  Uiso   1.00
C196   C     0.57430   0.41750   0.40198   0.00000  Uiso   1.00
C197   C     0.56541   0.49361   0.54684   0.00000  Uiso   1.00
C198   C     0.68937   0.32191   0.31671   0.00000  Uiso   1.00
C199   C     0.67815   0.24509   0.31694   0.00000  Uiso   1.00
C200   C     0.70674   0.19419   0.38006   0.00000  Uiso   1.00
C201   C     0.69016   0.12695   0.36844   0.00000  Uiso   1.00
C202   C     0.68371   0.34158   0.18574   0.00000  Uiso   1.00
C203   C     0.71698   0.37181   0.13855   0.00000  Uiso   1.00
C204   C     0.70509   0.38581   0.01650   0.00000  Uiso   1.00
C205   C     0.65124   0.35924   0.35640   0.00000  Uiso   1.00
C206   C     0.65721   0.40434   0.45267   0.00000  Uiso   1.00
C207   C     0.61798   0.43323   0.47426   0.00000  Uiso   1.00
H208   H     0.57515   0.28078   0.12768   0.00000  Uiso   1.00
H209   H     0.58418   0.15008   0.17722   0.00000  Uiso   1.00
H210   H     0.59442   0.32769   0.93576   0.00000  Uiso   1.00
H211   H     0.53466   0.36021   0.24983   0.00000  Uiso   1.00
H212   H     0.61342   0.01210   0.26393   0.00000  Uiso   1.00
H213   H     0.63502   0.38661   0.75481   0.00000  Uiso   1.00
H214   H     0.50899   0.45519   0.41707   0.00000  Uiso   1.00
H215   H     0.72332   0.33413   0.37289   0.00000  Uiso   1.00
H216   H     0.74048   0.20636   0.43589   0.00000  Uiso   1.00
H217   H     0.75072   0.38396   0.19442   0.00000  Uiso   1.00
H218   H     0.69096   0.41648   0.50849   0.00000  Uiso   1.00
H219   H     0.74028   0.05777   0.47387   0.00000  Uiso   1.00
H220   H     0.76187   0.43229   0.96474   0.00000  Uiso   1.00
H221   H     0.63585   0.50086   0.62701   0.00000  Uiso   1.00
O222   O     0.68547   0.94992   0.40588   0.00000  Uiso   1.00
O223   O     0.71380   0.44127   0.73794   0.00000  Uiso   1.00
O224   O     0.54846   0.53124   0.60681   0.00000  Uiso   1.00
N225   N     0.64092   0.04039   0.30471   0.00000  Uiso   1.00
N226   N     0.66111   0.39052   0.82871   0.00000  Uiso   1.00
N227   N     0.54329   0.45465   0.44785   0.00000  Uiso   1.00
N228   N     0.70918   0.06496   0.41768   0.00000  Uiso   1.00
N229   N     0.72937   0.41510   0.94167   0.00000  Uiso   1.00
N230   N     0.61155   0.47923   0.56082   0.00000  Uiso   1.00
C231   C     0.10910   0.79300   0.18387   0.00000  Uiso   1.00
C232   C     0.13455   0.72939   0.24479   0.00000  Uiso   1.00
C233   C     0.11792   0.66221   0.23308   0.00000  Uiso   1.00
C234   C     0.14648   0.61122   0.29615   0.00000  Uiso   1.00
C235   C     0.17937   0.51006   0.37973   0.00000  Uiso   1.00
C236   C     0.14011   0.82588   0.11359   0.00000  Uiso   1.00
C237   C     0.12817   0.83984   0.99158   0.00000  Uiso   1.00
C238   C     0.16141   0.87008   0.94421   0.00000  Uiso   1.00
C239   C     0.20294   0.91876   0.82412   0.00000  Uiso   1.00
C240   C     0.10764   0.84354   0.28424   0.00000  Uiso   1.00
C241   C     0.06839   0.87237   0.30568   0.00000  Uiso   1.00
C242   C     0.07430   0.91750   0.40198   0.00000  Uiso   1.00
C243   C     0.06541   0.99361   0.54684   0.00000  Uiso   1.00
C244   C     0.18937   0.82191   0.31671   0.00000  Uiso   1.00
C245   C     0.17815   0.74509   0.31694   0.00000  Uiso   1.00
C246   C     0.20674   0.69419   0.38006   0.00000  Uiso   1.00
C247   C     0.19016   0.62695   0.36844   0.00000  Uiso   1.00
C248   C     0.18371   0.84158   0.18574   0.00000  Uiso   1.00
C249   C     0.21698   0.87181   0.13855   0.00000  Uiso   1.00
C250   C     0.20509   0.88581   0.01650   0.00000  Uiso   1.00
C251   C     0.15124   0.85924   0.35640   0.00000  Uiso   1.00
C252   C     0.15721   0.90434   0.45267   0.00000  Uiso   1.00
C253   C     0.11798   0.93323   0.47426   0.00000  Uiso   1.00
H254   H     0.07515   0.78078   0.12768   0.00000  Uiso   1.00
H255   H     0.08418   0.65008   0.17722   0.00000  Uiso   1.00
H256   H     0.09442   0.82769   0.93576   0.00000  Uiso   1.00
H257   H     0.03466   0.86021   0.24983   0.00000  Uiso   1.00
H258   H     0.11342   0.51210   0.26393   0.00000  Uiso   1.00
H259   H     0.13502   0.88661   0.75481   0.00000  Uiso   1.00
H260   H     0.00899   0.95519   0.41707   0.00000  Uiso   1.00
H261   H     0.22332   0.83413   0.37289   0.00000  Uiso   1.00
H262   H     0.24048   0.70636   0.43589   0.00000  Uiso   1.00
H263   H     0.25072   0.88396   0.19442   0.00000  Uiso   1.00
H264   H     0.19096   0.91648   0.50849   0.00000  Uiso   1.00
H265   H     0.24028   0.55777   0.47387   0.00000  Uiso   1.00
H266   H     0.26187   0.93229   0.96474   0.00000  Uiso   1.00
H267   H     0.13585   0.00086   0.62701   0.00000  Uiso   1.00
O268   O     0.18547   0.44992   0.40588   0.00000  Uiso   1.00
O269   O     0.21380   0.94127   0.73794   0.00000  Uiso   1.00
O270   O     0.04846   0.03124   0.60681   0.00000  Uiso   1.00
N271   N     0.14092   0.54039   0.30471   0.00000  Uiso   1.00
N272   N     0.16111   0.89052   0.82871   0.00000  Uiso   1.00
N273   N     0.04329   0.95465   0.44785   0.00000  Uiso   1.00
N274   N     0.20918   0.56496   0.41768   0.00000  Uiso   1.00
N275   N     0.22937   0.91510   0.94167   0.00000  Uiso   1.00
N276   N     0.11155   0.97923   0.56082   0.00000  Uiso   1.00
C277   C     0.39090   0.29300   0.31613   0.00000  Uiso   1.00
C278   C     0.36545   0.22939   0.25521   0.00000  Uiso   1.00
C279   C     0.38208   0.16221   0.26692   0.00000  Uiso   1.00
C280   C     0.35352   0.11122   0.20385   0.00000  Uiso   1.00
C281   C     0.32063   0.01006   0.12027   0.00000  Uiso   1.00
C282   C     0.35989   0.32588   0.38641   0.00000  Uiso   1.00
C283   C     0.37183   0.33984   0.50842   0.00000  Uiso   1.00
C284   C     0.33859   0.37008   0.55579   0.00000  Uiso   1.00
C285   C     0.29706   0.41876   0.67588   0.00000  Uiso   1.00
C286   C     0.39236   0.34354   0.21576   0.00000  Uiso   1.00
C287   C     0.43161   0.37237   0.19432   0.00000  Uiso   1.00
C288   C     0.42570   0.41750   0.09802   0.00000  Uiso   1.00
C289   C     0.43459   0.49361   0.95316   0.00000  Uiso   1.00
C290   C     0.31063   0.32191   0.18329   0.00000  Uiso   1.00
C291   C     0.32185   0.24509   0.18306   0.00000  Uiso   1.00
C292   C     0.29326   0.19419   0.11994   0.00000  Uiso   1.00
C293   C     0.30984   0.12695   0.13156   0.00000  Uiso   1.00
C294   C     0.31629   0.34158   0.31426   0.00000  Uiso   1.00
C295   C     0.28302   0.37181   0.36145   0.00000  Uiso   1.00
C296   C     0.29491   0.38581   0.48350   0.00000  Uiso   1.00
C297   C     0.34876   0.35924   0.14360   0.00000  Uiso   1.00
C298   C     0.34279   0.40434   0.04733   0.00000  Uiso   1.00
C299   C     0.38202   0.43323   0.02574   0.00000  Uiso   1.00
H300   H     0.42485   0.28078   0.37232   0.00000  Uiso   1.00
H301   H     0.41582   0.15008   0.32278   0.00000  Uiso   1.00
H302   H     0.40558   0.32769   0.56424   0.00000  Uiso   1.00
H303   H     0.46534   0.36021   0.25017   0.00000  Uiso   1.00
H304   H     0.38658   0.01210   0.23607   0.00000  Uiso   1.00
H305   H     0.36498   0.38661   0.74519   0.00000  Uiso   1.00
H306   H     0.49101   0.45519   0.08293   0.00000  Uiso   1.00
H307   H     0.27668   0.33413   0.12711   0.00000  Uiso   1.00
H308   H     0.25952   0.20636   0.06411   0.00000  Uiso   1.00
H309   H     0.24928   0.38396   0.30558   0.00000  Uiso   1.00
H310   H     0.30904   0.41648   0.99151   0.00000  Uiso   1.00
H311   H     0.25972   0.05777   0.02613   0.00000  Uiso   1.00
H312   H     0.23813   0.43229   0.53526   0.00000  Uiso   1.00
H313   H     0.36415   0.50086   0.87299   0.00000  Uiso   1.00
O314   O     0.31453   0.94992   0.09412   0.00000  Uiso   1.00
O315   O     0.28620   0.44127   0.76206   0.00000  Uiso   1.00
O316   O     0.45154   0.53124   0.89319   0.00000  Uiso   1.00
N317   N     0.35908   0.04039   0.19529   0.00000  Uiso   1.00
N318   N     0.33889   0.39052   0.67129   0.00000  Uiso   1.00
N319   N     0.45671   0.45465   0.05215   0.00000  Uiso   1.00
N320   N     0.29082   0.06496   0.08232   0.00000  Uiso   1.00
N321   N     0.27063   0.41510   0.55833   0.00000  Uiso   1.00
N322   N     0.38845   0.47923   0.93918   0.00000  Uiso   1.00
C323   C     0.89090   0.79300   0.31613   0.00000  Uiso   1.00
C324   C     0.86545   0.72939   0.25521   0.00000  Uiso   1.00
C325   C     0.88208   0.66221   0.26692   0.00000  Uiso   1.00
C326   C     0.85352   0.61122   0.20385   0.00000  Uiso   1.00
C327   C     0.82063   0.51006   0.12027   0.00000  Uiso   1.00
C328   C     0.85989   0.82588   0.38641   0.00000  Uiso   1.00
C329   C     0.87183   0.83984   0.50842   0.00000  Uiso   1.00
C330   C     0.83859   0.87008   0.55579   0.00000  Uiso   1.00
C331   C     0.79706   0.91876   0.67588   0.00000  Uiso   1.00
C332   C     0.89236   0.84354   0.21576   0.00000  Uiso   1.00
C333   C     0.93161   0.87237   0.19432   0.00000  Uiso   1.00
C334   C     0.92570   0.91750   0.09802   0.00000  Uiso   1.00
C335   C     0.93459   0.99361   0.95316   0.00000  Uiso   1.00
C336   C     0.81063   0.82191   0.18329   0.00000  Uiso   1.00
C337   C     0.82185   0.74509   0.18306   0.00000  Uiso   1.00
C338   C     0.79326   0.69419   0.11994   0.00000  Uiso   1.00
C339   C     0.80984   0.62695   0.13156   0.00000  Uiso   1.00
C340   C     0.81629   0.84158   0.31426   0.00000  Uiso   1.00
C341   C     0.78302   0.87181   0.36145   0.00000  Uiso   1.00
C342   C     0.79491   0.88581   0.48350   0.00000  Uiso   1.00
C343   C     0.84876   0.85924   0.14360   0.00000  Uiso   1.00
C344   C     0.84279   0.90434   0.04733   0.00000  Uiso   1.00
C345   C     0.88202   0.93323   0.02574   0.00000  Uiso   1.00
H346   H     0.92485   0.78078   0.37232   0.00000  Uiso   1.00
H347   H     0.91582   0.65008   0.32278   0.00000  Uiso   1.00
H348   H     0.90558   0.82769   0.56424   0.00000  Uiso   1.00
H349   H     0.96534   0.86021   0.25017   0.00000  Uiso   1.00
H350   H     0.88658   0.51210   0.23607   0.00000  Uiso   1.00
H351   H     0.86498   0.88661   0.74519   0.00000  Uiso   1.00
H352   H     0.99101   0.95519   0.08293   0.00000  Uiso   1.00
H353   H     0.77668   0.83413   0.12711   0.00000  Uiso   1.00
H354   H     0.75952   0.70636   0.06411   0.00000  Uiso   1.00
H355   H     0.74928   0.88396   0.30558   0.00000  Uiso   1.00
H356   H     0.80904   0.91648   0.99151   0.00000  Uiso   1.00
H357   H     0.75972   0.55777   0.02613   0.00000  Uiso   1.00
H358   H     0.73813   0.93229   0.53526   0.00000  Uiso   1.00
H359   H     0.86415   0.00086   0.87299   0.00000  Uiso   1.00
O360   O     0.81453   0.44992   0.09412   0.00000  Uiso   1.00
O361   O     0.78620   0.94127   0.76206   0.00000  Uiso   1.00
O362   O     0.95154   0.03124   0.89319   0.00000  Uiso   1.00
N363   N     0.85908   0.54039   0.19529   0.00000  Uiso   1.00
N364   N     0.83889   0.89052   0.67129   0.00000  Uiso   1.00
N365   N     0.95671   0.95465   0.05215   0.00000  Uiso   1.00
N366   N     0.79082   0.56496   0.08232   0.00000  Uiso   1.00
N367   N     0.77063   0.91510   0.55833   0.00000  Uiso   1.00
N368   N     0.88845   0.97923   0.93918   0.00000  Uiso   1.00
