data_job_01078
_audit_creation_date              2018-12-19
_audit_creation_method            'Materials Studio'
_symmetry_space_group_name_H-M    'P1'
_symmetry_Int_Tables_number       1
_symmetry_cell_setting            triclinic
loop_
_symmetry_equiv_pos_as_xyz
  x,y,z
_cell_length_a                    45.3298
_cell_length_b                    7.0310
_cell_length_c                    45.6874
_cell_angle_alpha                 90.0000
_cell_angle_beta                  90.0000
_cell_angle_gamma                 90.0000
loop_
_atom_site_label
_atom_site_type_symbol
_atom_site_fract_x
_atom_site_fract_y
_atom_site_fract_z
_atom_site_U_iso_or_equiv
_atom_site_adp_type
_atom_site_occupancy
C1     C     0.39591   0.15004   0.10980   0.00000  Uiso   1.00
C2     C     0.40320   0.26791   0.13687   0.00000  Uiso   1.00
C3     C     0.41058   0.19608   0.16420   0.00000  Uiso   1.00
C4     C     0.41649   0.32736   0.18613   0.00000  Uiso   1.00
C5     C     0.42802   0.48058   0.22895   0.00000  Uiso   1.00
C6     C     0.36540   0.21469   0.09986   0.00000  Uiso   1.00
C7     C     0.34099   0.09808   0.09608   0.00000  Uiso   1.00
C8     C     0.31507   0.18457   0.08685   0.00000  Uiso   1.00
C9     C     0.26791   0.25512   0.07221   0.00000  Uiso   1.00
C10    C     0.41731   0.21483   0.08606   0.00000  Uiso   1.00
C11    C     0.43655   0.09835   0.07066   0.00000  Uiso   1.00
C12    C     0.45433   0.18495   0.04982   0.00000  Uiso   1.00
C13    C     0.48778   0.25573   0.01374   0.00000  Uiso   1.00
C14    C     0.39327   0.51094   0.10015   0.00000  Uiso   1.00
C15    C     0.40177   0.46394   0.13163   0.00000  Uiso   1.00
C16    C     0.40767   0.59537   0.15352   0.00000  Uiso   1.00
C17    C     0.41506   0.52374   0.18088   0.00000  Uiso   1.00
C18    C     0.36397   0.41071   0.09462   0.00000  Uiso   1.00
C19    C     0.33808   0.49738   0.08540   0.00000  Uiso   1.00
C20    C     0.31364   0.38095   0.08160   0.00000  Uiso   1.00
C21    C     0.41588   0.41086   0.08082   0.00000  Uiso   1.00
C22    C     0.43363   0.49765   0.05999   0.00000  Uiso   1.00
C23    C     0.45290   0.38133   0.04456   0.00000  Uiso   1.00
H24    H     0.39702   0.99742   0.11388   0.00000  Uiso   1.00
H25    H     0.41168   0.04436   0.16824   0.00000  Uiso   1.00
H26    H     0.34210   0.94639   0.10013   0.00000  Uiso   1.00
H27    H     0.43765   0.94666   0.07473   0.00000  Uiso   1.00
H28    H     0.42731   0.18286   0.22621   0.00000  Uiso   1.00
H29    H     0.28059   0.97626   0.08258   0.00000  Uiso   1.00
H30    H     0.48206   0.97683   0.02900   0.00000  Uiso   1.00
H31    H     0.39216   0.66356   0.09607   0.00000  Uiso   1.00
H32    H     0.40656   0.74706   0.14946   0.00000  Uiso   1.00
H33    H     0.33698   0.64908   0.08134   0.00000  Uiso   1.00
H34    H     0.43252   0.64935   0.05594   0.00000  Uiso   1.00
H35    H     0.42315   0.75319   0.21096   0.00000  Uiso   1.00
H36    H     0.27643   0.54659   0.06733   0.00000  Uiso   1.00
H37    H     0.47790   0.54717   0.01376   0.00000  Uiso   1.00
O38    O     0.43478   0.51094   0.25402   0.00000  Uiso   1.00
O39    O     0.24230   0.23987   0.06558   0.00000  Uiso   1.00
O40    O     0.50662   0.24063   0.99530   0.00000  Uiso   1.00
N41    N     0.42436   0.30563   0.21529   0.00000  Uiso   1.00
N42    N     0.28719   0.11247   0.08101   0.00000  Uiso   1.00
N43    N     0.47554   0.11300   0.03092   0.00000  Uiso   1.00
N44    N     0.42212   0.61252   0.20708   0.00000  Uiso   1.00
N45    N     0.28495   0.41936   0.07280   0.00000  Uiso   1.00
N46    N     0.47330   0.41989   0.02271   0.00000  Uiso   1.00
C47    C     0.10409   0.84996   0.10980   0.00000  Uiso   1.00
C48    C     0.09680   0.73209   0.13687   0.00000  Uiso   1.00
C49    C     0.08942   0.80392   0.16420   0.00000  Uiso   1.00
C50    C     0.08351   0.67264   0.18613   0.00000  Uiso   1.00
C51    C     0.07198   0.51942   0.22895   0.00000  Uiso   1.00
C52    C     0.13460   0.78531   0.09986   0.00000  Uiso   1.00
C53    C     0.15901   0.90192   0.09608   0.00000  Uiso   1.00
C54    C     0.18493   0.81543   0.08685   0.00000  Uiso   1.00
C55    C     0.23209   0.74488   0.07221   0.00000  Uiso   1.00
C56    C     0.08269   0.78517   0.08606   0.00000  Uiso   1.00
C57    C     0.06345   0.90165   0.07066   0.00000  Uiso   1.00
C58    C     0.04567   0.81505   0.04982   0.00000  Uiso   1.00
C59    C     0.01222   0.74427   0.01374   0.00000  Uiso   1.00
C60    C     0.10673   0.48906   0.10015   0.00000  Uiso   1.00
C61    C     0.09823   0.53606   0.13163   0.00000  Uiso   1.00
C62    C     0.09233   0.40463   0.15352   0.00000  Uiso   1.00
C63    C     0.08494   0.47626   0.18088   0.00000  Uiso   1.00
C64    C     0.13603   0.58929   0.09462   0.00000  Uiso   1.00
C65    C     0.16192   0.50262   0.08540   0.00000  Uiso   1.00
C66    C     0.18636   0.61905   0.08160   0.00000  Uiso   1.00
C67    C     0.08412   0.58914   0.08082   0.00000  Uiso   1.00
C68    C     0.06637   0.50235   0.05999   0.00000  Uiso   1.00
C69    C     0.04710   0.61867   0.04456   0.00000  Uiso   1.00
H70    H     0.10298   0.00258   0.11388   0.00000  Uiso   1.00
H71    H     0.08832   0.95564   0.16824   0.00000  Uiso   1.00
H72    H     0.15790   0.05361   0.10013   0.00000  Uiso   1.00
H73    H     0.06235   0.05334   0.07473   0.00000  Uiso   1.00
H74    H     0.07269   0.81714   0.22621   0.00000  Uiso   1.00
H75    H     0.21941   0.02374   0.08258   0.00000  Uiso   1.00
H76    H     0.01794   0.02317   0.02900   0.00000  Uiso   1.00
H77    H     0.10784   0.33644   0.09607   0.00000  Uiso   1.00
H78    H     0.09344   0.25294   0.14946   0.00000  Uiso   1.00
H79    H     0.16302   0.35092   0.08134   0.00000  Uiso   1.00
H80    H     0.06748   0.35065   0.05594   0.00000  Uiso   1.00
H81    H     0.07685   0.24681   0.21096   0.00000  Uiso   1.00
H82    H     0.22357   0.45341   0.06733   0.00000  Uiso   1.00
H83    H     0.02210   0.45283   0.01376   0.00000  Uiso   1.00
O84    O     0.06522   0.48906   0.25402   0.00000  Uiso   1.00
O85    O     0.25770   0.76013   0.06558   0.00000  Uiso   1.00
O86    O     0.99338   0.75937   0.99530   0.00000  Uiso   1.00
N87    N     0.07564   0.69437   0.21529   0.00000  Uiso   1.00
N88    N     0.21281   0.88753   0.08101   0.00000  Uiso   1.00
N89    N     0.02446   0.88700   0.03092   0.00000  Uiso   1.00
N90    N     0.07788   0.38748   0.20708   0.00000  Uiso   1.00
N91    N     0.21505   0.58064   0.07280   0.00000  Uiso   1.00
N92    N     0.02670   0.58011   0.02271   0.00000  Uiso   1.00
C93    C     0.10409   0.65004   0.39020   0.00000  Uiso   1.00
C94    C     0.09680   0.76791   0.36313   0.00000  Uiso   1.00
C95    C     0.08942   0.69608   0.33580   0.00000  Uiso   1.00
C96    C     0.08351   0.82736   0.31387   0.00000  Uiso   1.00
C97    C     0.07198   0.98058   0.27105   0.00000  Uiso   1.00
C98    C     0.13460   0.71469   0.40014   0.00000  Uiso   1.00
C99    C     0.15901   0.59808   0.40392   0.00000  Uiso   1.00
C100   C     0.18493   0.68457   0.41315   0.00000  Uiso   1.00
C101   C     0.23209   0.75512   0.42779   0.00000  Uiso   1.00
C102   C     0.08269   0.71483   0.41394   0.00000  Uiso   1.00
C103   C     0.06345   0.59835   0.42934   0.00000  Uiso   1.00
C104   C     0.04567   0.68495   0.45018   0.00000  Uiso   1.00
C105   C     0.01222   0.75573   0.48626   0.00000  Uiso   1.00
C106   C     0.10673   0.01094   0.39985   0.00000  Uiso   1.00
C107   C     0.09823   0.96394   0.36837   0.00000  Uiso   1.00
C108   C     0.09233   0.09537   0.34648   0.00000  Uiso   1.00
C109   C     0.08494   0.02374   0.31912   0.00000  Uiso   1.00
C110   C     0.13603   0.91071   0.40538   0.00000  Uiso   1.00
C111   C     0.16192   0.99738   0.41460   0.00000  Uiso   1.00
C112   C     0.18636   0.88095   0.41840   0.00000  Uiso   1.00
C113   C     0.08412   0.91086   0.41918   0.00000  Uiso   1.00
C114   C     0.06637   0.99765   0.44001   0.00000  Uiso   1.00
C115   C     0.04710   0.88133   0.45544   0.00000  Uiso   1.00
H116   H     0.10298   0.49742   0.38612   0.00000  Uiso   1.00
H117   H     0.08832   0.54436   0.33176   0.00000  Uiso   1.00
H118   H     0.15790   0.44639   0.39987   0.00000  Uiso   1.00
H119   H     0.06235   0.44666   0.42527   0.00000  Uiso   1.00
H120   H     0.07269   0.68286   0.27379   0.00000  Uiso   1.00
H121   H     0.21941   0.47626   0.41742   0.00000  Uiso   1.00
H122   H     0.01794   0.47683   0.47100   0.00000  Uiso   1.00
H123   H     0.10784   0.16356   0.40393   0.00000  Uiso   1.00
H124   H     0.09344   0.24706   0.35054   0.00000  Uiso   1.00
H125   H     0.16302   0.14908   0.41866   0.00000  Uiso   1.00
H126   H     0.06748   0.14935   0.44406   0.00000  Uiso   1.00
H127   H     0.07685   0.25319   0.28904   0.00000  Uiso   1.00
H128   H     0.22357   0.04659   0.43267   0.00000  Uiso   1.00
H129   H     0.02210   0.04717   0.48624   0.00000  Uiso   1.00
O130   O     0.06522   0.01094   0.24598   0.00000  Uiso   1.00
O131   O     0.25770   0.73987   0.43442   0.00000  Uiso   1.00
O132   O     0.99338   0.74063   0.50470   0.00000  Uiso   1.00
N133   N     0.07564   0.80563   0.28471   0.00000  Uiso   1.00
N134   N     0.21281   0.61247   0.41899   0.00000  Uiso   1.00
N135   N     0.02446   0.61300   0.46908   0.00000  Uiso   1.00
N136   N     0.07788   0.11252   0.29292   0.00000  Uiso   1.00
N137   N     0.21505   0.91936   0.42720   0.00000  Uiso   1.00
N138   N     0.02670   0.91989   0.47729   0.00000  Uiso   1.00
C139   C     0.39591   0.34996   0.39020   0.00000  Uiso   1.00
C140   C     0.40320   0.23209   0.36313   0.00000  Uiso   1.00
C141   C     0.41058   0.30392   0.33580   0.00000  Uiso   1.00
C142   C     0.41649   0.17264   0.31387   0.00000  Uiso   1.00
C143   C     0.42802   0.01942   0.27105   0.00000  Uiso   1.00
C144   C     0.36540   0.28531   0.40014   0.00000  Uiso   1.00
C145   C     0.34099   0.40192   0.40392   0.00000  Uiso   1.00
C146   C     0.31507   0.31543   0.41315   0.00000  Uiso   1.00
C147   C     0.26791   0.24488   0.42779   0.00000  Uiso   1.00
C148   C     0.41731   0.28517   0.41394   0.00000  Uiso   1.00
C149   C     0.43655   0.40165   0.42934   0.00000  Uiso   1.00
C150   C     0.45433   0.31505   0.45018   0.00000  Uiso   1.00
C151   C     0.48778   0.24427   0.48626   0.00000  Uiso   1.00
C152   C     0.39327   0.98906   0.39985   0.00000  Uiso   1.00
C153   C     0.40177   0.03606   0.36837   0.00000  Uiso   1.00
C154   C     0.40767   0.90463   0.34648   0.00000  Uiso   1.00
C155   C     0.41506   0.97626   0.31912   0.00000  Uiso   1.00
C156   C     0.36397   0.08929   0.40538   0.00000  Uiso   1.00
C157   C     0.33808   0.00262   0.41460   0.00000  Uiso   1.00
C158   C     0.31364   0.11905   0.41840   0.00000  Uiso   1.00
C159   C     0.41588   0.08914   0.41918   0.00000  Uiso   1.00
C160   C     0.43363   0.00235   0.44001   0.00000  Uiso   1.00
C161   C     0.45290   0.11867   0.45544   0.00000  Uiso   1.00
H162   H     0.39702   0.50258   0.38612   0.00000  Uiso   1.00
H163   H     0.41168   0.45564   0.33176   0.00000  Uiso   1.00
H164   H     0.34210   0.55361   0.39987   0.00000  Uiso   1.00
H165   H     0.43765   0.55334   0.42527   0.00000  Uiso   1.00
H166   H     0.42731   0.31714   0.27379   0.00000  Uiso   1.00
H167   H     0.28059   0.52374   0.41742   0.00000  Uiso   1.00
H168   H     0.48206   0.52317   0.47100   0.00000  Uiso   1.00
H169   H     0.39216   0.83644   0.40393   0.00000  Uiso   1.00
H170   H     0.40656   0.75294   0.35054   0.00000  Uiso   1.00
H171   H     0.33698   0.85092   0.41866   0.00000  Uiso   1.00
H172   H     0.43252   0.85065   0.44406   0.00000  Uiso   1.00
H173   H     0.42315   0.74681   0.28904   0.00000  Uiso   1.00
H174   H     0.27643   0.95341   0.43267   0.00000  Uiso   1.00
H175   H     0.47790   0.95283   0.48624   0.00000  Uiso   1.00
O176   O     0.43478   0.98906   0.24598   0.00000  Uiso   1.00
O177   O     0.24230   0.26013   0.43442   0.00000  Uiso   1.00
O178   O     0.50662   0.25937   0.50470   0.00000  Uiso   1.00
N179   N     0.42436   0.19437   0.28471   0.00000  Uiso   1.00
N180   N     0.28719   0.38753   0.41899   0.00000  Uiso   1.00
N181   N     0.47554   0.38700   0.46908   0.00000  Uiso   1.00
N182   N     0.42212   0.88748   0.29292   0.00000  Uiso   1.00
N183   N     0.28495   0.08064   0.42720   0.00000  Uiso   1.00
N184   N     0.47330   0.08011   0.47729   0.00000  Uiso   1.00
C185   C     0.60409   0.84996   0.89020   0.00000  Uiso   1.00
C186   C     0.59680   0.73209   0.86313   0.00000  Uiso   1.00
C187   C     0.58942   0.80392   0.83580   0.00000  Uiso   1.00
C188   C     0.58351   0.67264   0.81387   0.00000  Uiso   1.00
C189   C     0.57198   0.51942   0.77105   0.00000  Uiso   1.00
C190   C     0.63460   0.78531   0.90014   0.00000  Uiso   1.00
C191   C     0.65901   0.90192   0.90392   0.00000  Uiso   1.00
C192   C     0.68493   0.81543   0.91315   0.00000  Uiso   1.00
C193   C     0.73209   0.74488   0.92779   0.00000  Uiso   1.00
C194   C     0.58269   0.78517   0.91394   0.00000  Uiso   1.00
C195   C     0.56345   0.90165   0.92934   0.00000  Uiso   1.00
C196   C     0.54567   0.81505   0.95018   0.00000  Uiso   1.00
C197   C     0.51222   0.74427   0.98626   0.00000  Uiso   1.00
C198   C     0.60673   0.48906   0.89985   0.00000  Uiso   1.00
C199   C     0.59823   0.53606   0.86837   0.00000  Uiso   1.00
C200   C     0.59233   0.40463   0.84648   0.00000  Uiso   1.00
C201   C     0.58494   0.47626   0.81912   0.00000  Uiso   1.00
C202   C     0.63603   0.58929   0.90538   0.00000  Uiso   1.00
C203   C     0.66192   0.50262   0.91460   0.00000  Uiso   1.00
C204   C     0.68636   0.61905   0.91840   0.00000  Uiso   1.00
C205   C     0.58412   0.58914   0.91918   0.00000  Uiso   1.00
C206   C     0.56637   0.50235   0.94001   0.00000  Uiso   1.00
C207   C     0.54710   0.61867   0.95544   0.00000  Uiso   1.00
H208   H     0.60298   0.00258   0.88612   0.00000  Uiso   1.00
H209   H     0.58832   0.95564   0.83176   0.00000  Uiso   1.00
H210   H     0.65790   0.05361   0.89987   0.00000  Uiso   1.00
H211   H     0.56235   0.05334   0.92527   0.00000  Uiso   1.00
H212   H     0.57269   0.81714   0.77379   0.00000  Uiso   1.00
H213   H     0.71941   0.02374   0.91742   0.00000  Uiso   1.00
H214   H     0.51794   0.02317   0.97100   0.00000  Uiso   1.00
H215   H     0.60784   0.33644   0.90393   0.00000  Uiso   1.00
H216   H     0.59344   0.25294   0.85054   0.00000  Uiso   1.00
H217   H     0.66302   0.35092   0.91866   0.00000  Uiso   1.00
H218   H     0.56748   0.35065   0.94406   0.00000  Uiso   1.00
H219   H     0.57685   0.24681   0.78904   0.00000  Uiso   1.00
H220   H     0.72357   0.45341   0.93267   0.00000  Uiso   1.00
H221   H     0.52210   0.45283   0.98624   0.00000  Uiso   1.00
O222   O     0.56522   0.48906   0.74598   0.00000  Uiso   1.00
O223   O     0.75770   0.76013   0.93442   0.00000  Uiso   1.00
O224   O     0.49338   0.75937   0.00470   0.00000  Uiso   1.00
N225   N     0.57564   0.69437   0.78471   0.00000  Uiso   1.00
N226   N     0.71281   0.88753   0.91899   0.00000  Uiso   1.00
N227   N     0.52446   0.88700   0.96908   0.00000  Uiso   1.00
N228   N     0.57788   0.38748   0.79292   0.00000  Uiso   1.00
N229   N     0.71505   0.58064   0.92720   0.00000  Uiso   1.00
N230   N     0.52670   0.58011   0.97729   0.00000  Uiso   1.00
C231   C     0.89591   0.15004   0.89020   0.00000  Uiso   1.00
C232   C     0.90320   0.26791   0.86313   0.00000  Uiso   1.00
C233   C     0.91058   0.19608   0.83580   0.00000  Uiso   1.00
C234   C     0.91649   0.32736   0.81387   0.00000  Uiso   1.00
C235   C     0.92802   0.48058   0.77105   0.00000  Uiso   1.00
C236   C     0.86540   0.21469   0.90014   0.00000  Uiso   1.00
C237   C     0.84099   0.09808   0.90392   0.00000  Uiso   1.00
C238   C     0.81507   0.18457   0.91315   0.00000  Uiso   1.00
C239   C     0.76791   0.25512   0.92779   0.00000  Uiso   1.00
C240   C     0.91731   0.21483   0.91394   0.00000  Uiso   1.00
C241   C     0.93655   0.09835   0.92934   0.00000  Uiso   1.00
C242   C     0.95433   0.18495   0.95018   0.00000  Uiso   1.00
C243   C     0.98778   0.25573   0.98626   0.00000  Uiso   1.00
C244   C     0.89327   0.51094   0.89985   0.00000  Uiso   1.00
C245   C     0.90177   0.46394   0.86837   0.00000  Uiso   1.00
C246   C     0.90767   0.59537   0.84648   0.00000  Uiso   1.00
C247   C     0.91506   0.52374   0.81912   0.00000  Uiso   1.00
C248   C     0.86397   0.41071   0.90538   0.00000  Uiso   1.00
C249   C     0.83808   0.49738   0.91460   0.00000  Uiso   1.00
C250   C     0.81364   0.38095   0.91840   0.00000  Uiso   1.00
C251   C     0.91588   0.41086   0.91918   0.00000  Uiso   1.00
C252   C     0.93363   0.49765   0.94001   0.00000  Uiso   1.00
C253   C     0.95290   0.38133   0.95544   0.00000  Uiso   1.00
H254   H     0.89702   0.99742   0.88612   0.00000  Uiso   1.00
H255   H     0.91168   0.04436   0.83176   0.00000  Uiso   1.00
H256   H     0.84210   0.94639   0.89987   0.00000  Uiso   1.00
H257   H     0.93765   0.94666   0.92527   0.00000  Uiso   1.00
H258   H     0.92731   0.18286   0.77379   0.00000  Uiso   1.00
H259   H     0.78059   0.97626   0.91742   0.00000  Uiso   1.00
H260   H     0.98206   0.97683   0.97100   0.00000  Uiso   1.00
H261   H     0.89216   0.66356   0.90393   0.00000  Uiso   1.00
H262   H     0.90656   0.74706   0.85054   0.00000  Uiso   1.00
H263   H     0.83698   0.64908   0.91866   0.00000  Uiso   1.00
H264   H     0.93252   0.64935   0.94406   0.00000  Uiso   1.00
H265   H     0.92315   0.75319   0.78904   0.00000  Uiso   1.00
H266   H     0.77643   0.54659   0.93267   0.00000  Uiso   1.00
H267   H     0.97790   0.54717   0.98624   0.00000  Uiso   1.00
O268   O     0.93478   0.51094   0.74598   0.00000  Uiso   1.00
O269   O     0.74230   0.23987   0.93442   0.00000  Uiso   1.00
O270   O     0.00662   0.24063   0.00470   0.00000  Uiso   1.00
N271   N     0.92436   0.30563   0.78471   0.00000  Uiso   1.00
N272   N     0.78719   0.11247   0.91899   0.00000  Uiso   1.00
N273   N     0.97554   0.11300   0.96908   0.00000  Uiso   1.00
N274   N     0.92212   0.61252   0.79292   0.00000  Uiso   1.00
N275   N     0.78495   0.41936   0.92720   0.00000  Uiso   1.00
N276   N     0.97330   0.41989   0.97729   0.00000  Uiso   1.00
C277   C     0.89591   0.34996   0.60980   0.00000  Uiso   1.00
C278   C     0.90320   0.23209   0.63687   0.00000  Uiso   1.00
C279   C     0.91058   0.30392   0.66420   0.00000  Uiso   1.00
C280   C     0.91649   0.17264   0.68613   0.00000  Uiso   1.00
C281   C     0.92802   0.01942   0.72895   0.00000  Uiso   1.00
C282   C     0.86540   0.28531   0.59986   0.00000  Uiso   1.00
C283   C     0.84099   0.40192   0.59608   0.00000  Uiso   1.00
C284   C     0.81507   0.31543   0.58685   0.00000  Uiso   1.00
C285   C     0.76791   0.24488   0.57221   0.00000  Uiso   1.00
C286   C     0.91731   0.28517   0.58606   0.00000  Uiso   1.00
C287   C     0.93655   0.40165   0.57066   0.00000  Uiso   1.00
C288   C     0.95433   0.31505   0.54982   0.00000  Uiso   1.00
C289   C     0.98778   0.24427   0.51374   0.00000  Uiso   1.00
C290   C     0.89327   0.98906   0.60015   0.00000  Uiso   1.00
C291   C     0.90177   0.03606   0.63163   0.00000  Uiso   1.00
C292   C     0.90767   0.90463   0.65352   0.00000  Uiso   1.00
C293   C     0.91506   0.97626   0.68088   0.00000  Uiso   1.00
C294   C     0.86397   0.08929   0.59462   0.00000  Uiso   1.00
C295   C     0.83808   0.00262   0.58540   0.00000  Uiso   1.00
C296   C     0.81364   0.11905   0.58160   0.00000  Uiso   1.00
C297   C     0.91588   0.08914   0.58082   0.00000  Uiso   1.00
C298   C     0.93363   0.00235   0.55999   0.00000  Uiso   1.00
C299   C     0.95290   0.11867   0.54456   0.00000  Uiso   1.00
H300   H     0.89702   0.50258   0.61388   0.00000  Uiso   1.00
H301   H     0.91168   0.45564   0.66824   0.00000  Uiso   1.00
H302   H     0.84210   0.55361   0.60013   0.00000  Uiso   1.00
H303   H     0.93765   0.55334   0.57473   0.00000  Uiso   1.00
H304   H     0.92731   0.31714   0.72621   0.00000  Uiso   1.00
H305   H     0.78059   0.52374   0.58258   0.00000  Uiso   1.00
H306   H     0.98206   0.52317   0.52900   0.00000  Uiso   1.00
H307   H     0.89216   0.83644   0.59607   0.00000  Uiso   1.00
H308   H     0.90656   0.75294   0.64946   0.00000  Uiso   1.00
H309   H     0.83698   0.85092   0.58134   0.00000  Uiso   1.00
H310   H     0.93252   0.85065   0.55594   0.00000  Uiso   1.00
H311   H     0.92315   0.74681   0.71096   0.00000  Uiso   1.00
H312   H     0.77643   0.95341   0.56733   0.00000  Uiso   1.00
H313   H     0.97790   0.95283   0.51376   0.00000  Uiso   1.00
O314   O     0.93478   0.98906   0.75402   0.00000  Uiso   1.00
O315   O     0.74230   0.26013   0.56558   0.00000  Uiso   1.00
O316   O     0.00662   0.25937   0.49530   0.00000  Uiso   1.00
N317   N     0.92436   0.19437   0.71529   0.00000  Uiso   1.00
N318   N     0.78719   0.38753   0.58101   0.00000  Uiso   1.00
N319   N     0.97554   0.38700   0.53092   0.00000  Uiso   1.00
N320   N     0.92212   0.88748   0.70708   0.00000  Uiso   1.00
N321   N     0.78495   0.08064   0.57280   0.00000  Uiso   1.00
N322   N     0.97330   0.08011   0.52271   0.00000  Uiso   1.00
C323   C     0.60409   0.65004   0.60980   0.00000  Uiso   1.00
C324   C     0.59680   0.76791   0.63687   0.00000  Uiso   1.00
C325   C     0.58942   0.69608   0.66420   0.00000  Uiso   1.00
C326   C     0.58351   0.82736   0.68613   0.00000  Uiso   1.00
C327   C     0.57198   0.98058   0.72895   0.00000  Uiso   1.00
C328   C     0.63460   0.71469   0.59986   0.00000  Uiso   1.00
C329   C     0.65901   0.59808   0.59608   0.00000  Uiso   1.00
C330   C     0.68493   0.68457   0.58685   0.00000  Uiso   1.00
C331   C     0.73209   0.75512   0.57221   0.00000  Uiso   1.00
C332   C     0.58269   0.71483   0.58606   0.00000  Uiso   1.00
C333   C     0.56345   0.59835   0.57066   0.00000  Uiso   1.00
C334   C     0.54567   0.68495   0.54982   0.00000  Uiso   1.00
C335   C     0.51222   0.75573   0.51374   0.00000  Uiso   1.00
C336   C     0.60673   0.01094   0.60015   0.00000  Uiso   1.00
C337   C     0.59823   0.96394   0.63163   0.00000  Uiso   1.00
C338   C     0.59233   0.09537   0.65352   0.00000  Uiso   1.00
C339   C     0.58494   0.02374   0.68088   0.00000  Uiso   1.00
C340   C     0.63603   0.91071   0.59462   0.00000  Uiso   1.00
C341   C     0.66192   0.99738   0.58540   0.00000  Uiso   1.00
C342   C     0.68636   0.88095   0.58160   0.00000  Uiso   1.00
C343   C     0.58412   0.91086   0.58082   0.00000  Uiso   1.00
C344   C     0.56637   0.99765   0.55999   0.00000  Uiso   1.00
C345   C     0.54710   0.88133   0.54456   0.00000  Uiso   1.00
H346   H     0.60298   0.49742   0.61388   0.00000  Uiso   1.00
H347   H     0.58832   0.54436   0.66824   0.00000  Uiso   1.00
H348   H     0.65790   0.44639   0.60013   0.00000  Uiso   1.00
H349   H     0.56235   0.44666   0.57473   0.00000  Uiso   1.00
H350   H     0.57269   0.68286   0.72621   0.00000  Uiso   1.00
H351   H     0.71941   0.47626   0.58258   0.00000  Uiso   1.00
H352   H     0.51794   0.47683   0.52900   0.00000  Uiso   1.00
H353   H     0.60784   0.16356   0.59607   0.00000  Uiso   1.00
H354   H     0.59344   0.24706   0.64946   0.00000  Uiso   1.00
H355   H     0.66302   0.14908   0.58134   0.00000  Uiso   1.00
H356   H     0.56748   0.14935   0.55594   0.00000  Uiso   1.00
H357   H     0.57685   0.25319   0.71096   0.00000  Uiso   1.00
H358   H     0.72357   0.04659   0.56733   0.00000  Uiso   1.00
H359   H     0.52210   0.04717   0.51376   0.00000  Uiso   1.00
O360   O     0.56522   0.01094   0.75402   0.00000  Uiso   1.00
O361   O     0.75770   0.73987   0.56558   0.00000  Uiso   1.00
O362   O     0.49338   0.74063   0.49530   0.00000  Uiso   1.00
N363   N     0.57564   0.80563   0.71529   0.00000  Uiso   1.00
N364   N     0.71281   0.61247   0.58101   0.00000  Uiso   1.00
N365   N     0.52446   0.61300   0.53092   0.00000  Uiso   1.00
N366   N     0.57788   0.11252   0.70708   0.00000  Uiso   1.00
N367   N     0.71505   0.91936   0.57280   0.00000  Uiso   1.00
N368   N     0.52670   0.91989   0.52271   0.00000  Uiso   1.00
