data_job_06705
_audit_creation_date              2018-12-19
_audit_creation_method            'Materials Studio'
_symmetry_space_group_name_H-M    'P1'
_symmetry_Int_Tables_number       1
_symmetry_cell_setting            triclinic
loop_
_symmetry_equiv_pos_as_xyz
  x,y,z
_cell_length_a                    17.5361
_cell_length_b                    21.9068
_cell_length_c                    22.3759
_cell_angle_alpha                 113.2810
_cell_angle_beta                  92.4093
_cell_angle_gamma                 97.2331
loop_
_atom_site_label
_atom_site_type_symbol
_atom_site_fract_x
_atom_site_fract_y
_atom_site_fract_z
_atom_site_U_iso_or_equiv
_atom_site_adp_type
_atom_site_occupancy
C1     C     0.75258   0.90127   0.00316   0.00000  Uiso   1.00
C2     C     0.71384   0.85107   0.02841   0.00000  Uiso   1.00
C3     C     0.70329   0.78155   0.99567   0.00000  Uiso   1.00
C4     C     0.66654   0.74441   0.02704   0.00000  Uiso   1.00
C5     C     0.61020   0.66169   0.05681   0.00000  Uiso   1.00
C6     C     0.69373   0.94722   0.00406   0.00000  Uiso   1.00
C7     C     0.66629   0.95854   0.95085   0.00000  Uiso   1.00
C8     C     0.61262   0.00234   0.96173   0.00000  Uiso   1.00
C9     C     0.52510   0.06893   0.95371   0.00000  Uiso   1.00
C10    C     0.81828   0.94504   0.05509   0.00000  Uiso   1.00
C11    C     0.89555   0.95456   0.04478   0.00000  Uiso   1.00
C12    C     0.94674   0.99654   0.09861   0.00000  Uiso   1.00
C13    C     0.05260   0.05976   0.16981   0.00000  Uiso   1.00
C14    C     0.70607   0.95893   0.11709   0.00000  Uiso   1.00
C15    C     0.68858   0.88239   0.09029   0.00000  Uiso   1.00
C16    C     0.65183   0.84534   0.12172   0.00000  Uiso   1.00
C17    C     0.64123   0.77578   0.08903   0.00000  Uiso   1.00
C18    C     0.66847   0.97853   0.06594   0.00000  Uiso   1.00
C19    C     0.61483   0.02233   0.07690   0.00000  Uiso   1.00
C20    C     0.58731   0.03371   0.02372   0.00000  Uiso   1.00
C21    C     0.79302   0.97636   0.11697   0.00000  Uiso   1.00
C22    C     0.84409   0.01834   0.17082   0.00000  Uiso   1.00
C23    C     0.92143   0.02791   0.16060   0.00000  Uiso   1.00
H24    H     0.77224   0.87690   0.95499   0.00000  Uiso   1.00
H25    H     0.72285   0.75734   0.94778   0.00000  Uiso   1.00
H26    H     0.68586   0.93431   0.90298   0.00000  Uiso   1.00
H27    H     0.91508   0.93032   0.99689   0.00000  Uiso   1.00
H28    H     0.65691   0.63860   0.96707   0.00000  Uiso   1.00
H29    H     0.57894   0.01176   0.87260   0.00000  Uiso   1.00
H30    H     0.06230   0.00336   0.07062   0.00000  Uiso   1.00
H31    H     0.68640   0.98331   0.16526   0.00000  Uiso   1.00
H32    H     0.63229   0.86958   0.16960   0.00000  Uiso   1.00
H33    H     0.59530   0.04655   0.12479   0.00000  Uiso   1.00
H34    H     0.82452   0.04256   0.21870   0.00000  Uiso   1.00
H35    H     0.58341   0.72970   0.14711   0.00000  Uiso   1.00
H36    H     0.50544   0.10286   0.05263   0.00000  Uiso   1.00
H37    H     0.98880   0.09446   0.25066   0.00000  Uiso   1.00
O38    O     0.58609   0.60742   0.05614   0.00000  Uiso   1.00
O39    O     0.48381   0.09700   0.93219   0.00000  Uiso   1.00
O40    O     0.11797   0.08597   0.19200   0.00000  Uiso   1.00
N41    N     0.64705   0.67564   0.00886   0.00000  Uiso   1.00
N42    N     0.57414   0.02452   0.92052   0.00000  Uiso   1.00
N43    N     0.02604   0.01668   0.10566   0.00000  Uiso   1.00
N44    N     0.60750   0.72466   0.10573   0.00000  Uiso   1.00
N45    N     0.53459   0.07354   0.01740   0.00000  Uiso   1.00
N46    N     0.98649   0.06570   0.20253   0.00000  Uiso   1.00
C47    C     0.14654   0.58866   0.90266   0.00000  Uiso   1.00
C48    C     0.17948   0.53953   0.84383   0.00000  Uiso   1.00
C49    C     0.18276   0.54295   0.78335   0.00000  Uiso   1.00
C50    C     0.21505   0.49320   0.73588   0.00000  Uiso   1.00
C51    C     0.26190   0.42470   0.64260   0.00000  Uiso   1.00
C52    C     0.08428   0.54629   0.92154   0.00000  Uiso   1.00
C53    C     0.00752   0.55541   0.92641   0.00000  Uiso   1.00
C54    C     0.95968   0.51135   0.94437   0.00000  Uiso   1.00
C55    C     0.85875   0.45338   0.97178   0.00000  Uiso   1.00
C56    C     0.21115   0.61543   0.95855   0.00000  Uiso   1.00
C57    C     0.24107   0.68268   0.99454   0.00000  Uiso   1.00
C58    C     0.30003   0.69684   0.04367   0.00000  Uiso   1.00
C59    C     0.39610   0.74622   0.12853   0.00000  Uiso   1.00
C60    C     0.19805   0.49423   0.92591   0.00000  Uiso   1.00
C61    C     0.20745   0.48824   0.85646   0.00000  Uiso   1.00
C62    C     0.23975   0.43847   0.80907   0.00000  Uiso   1.00
C63    C     0.24308   0.44182   0.74853   0.00000  Uiso   1.00
C64    C     0.11225   0.49500   0.93417   0.00000  Uiso   1.00
C65    C     0.06451   0.45093   0.95213   0.00000  Uiso   1.00
C66    C     0.98771   0.45997   0.95702   0.00000  Uiso   1.00
C67    C     0.23913   0.56414   0.97117   0.00000  Uiso   1.00
C68    C     0.29806   0.57820   0.02025   0.00000  Uiso   1.00
C69    C     0.32806   0.64545   0.05631   0.00000  Uiso   1.00
H70    H     0.12475   0.62859   0.89284   0.00000  Uiso   1.00
H71    H     0.16109   0.58265   0.77360   0.00000  Uiso   1.00
H72    H     0.98589   0.59511   0.91665   0.00000  Uiso   1.00
H73    H     0.21940   0.72236   0.98476   0.00000  Uiso   1.00
H74    H     0.21370   0.50908   0.64696   0.00000  Uiso   1.00
H75    H     0.84428   0.53536   0.94860   0.00000  Uiso   1.00
H76    H     0.33668   0.80370   0.09224   0.00000  Uiso   1.00
H77    H     0.21983   0.45429   0.93574   0.00000  Uiso   1.00
H78    H     0.26140   0.39879   0.81885   0.00000  Uiso   1.00
H79    H     0.08619   0.41124   0.96190   0.00000  Uiso   1.00
H80    H     0.31970   0.53849   0.03001   0.00000  Uiso   1.00
H81    H     0.29511   0.35985   0.68369   0.00000  Uiso   1.00
H82    H     0.92568   0.38613   0.98534   0.00000  Uiso   1.00
H83    H     0.41808   0.65447   0.12896   0.00000  Uiso   1.00
O84    O     0.28001   0.40108   0.58765   0.00000  Uiso   1.00
O85    O     0.79534   0.43557   0.98341   0.00000  Uiso   1.00
O86    O     0.44136   0.78762   0.17185   0.00000  Uiso   1.00
N87    N     0.22717   0.48159   0.67165   0.00000  Uiso   1.00
N88    N     0.88177   0.50615   0.95366   0.00000  Uiso   1.00
N89    N     0.34212   0.75702   0.08795   0.00000  Uiso   1.00
N90    N     0.27098   0.40129   0.69141   0.00000  Uiso   1.00
N91    N     0.92558   0.42585   0.97342   0.00000  Uiso   1.00
N92    N     0.38592   0.67672   0.10772   0.00000  Uiso   1.00
C93    C     0.91422   0.85243   0.67650   0.00000  Uiso   1.00
C94    C     0.88592   0.91333   0.67125   0.00000  Uiso   1.00
C95    C     0.80925   0.92123   0.66411   0.00000  Uiso   1.00
C96    C     0.79535   0.98061   0.66019   0.00000  Uiso   1.00
C97    C     0.74219   0.06761   0.65153   0.00000  Uiso   1.00
C98    C     0.96637   0.82705   0.62186   0.00000  Uiso   1.00
C99    C     0.95734   0.76241   0.57319   0.00000  Uiso   1.00
C100   C     0.01117   0.74916   0.52769   0.00000  Uiso   1.00
C101   C     0.08295   0.70220   0.44238   0.00000  Uiso   1.00
C102   C     0.96687   0.87954   0.74032   0.00000  Uiso   1.00
C103   C     0.95827   0.85902   0.79126   0.00000  Uiso   1.00
C104   C     0.01252   0.88995   0.84550   0.00000  Uiso   1.00
C105   C     0.08506   0.92448   0.94412   0.00000  Uiso   1.00
C106   C     0.02587   0.94383   0.68225   0.00000  Uiso   1.00
C107   C     0.94657   0.96297   0.67437   0.00000  Uiso   1.00
C108   C     0.93278   0.02236   0.67046   0.00000  Uiso   1.00
C109   C     0.85610   0.03035   0.66332   0.00000  Uiso   1.00
C110   C     0.02702   0.87669   0.62497   0.00000  Uiso   1.00
C111   C     0.08088   0.86353   0.57954   0.00000  Uiso   1.00
C112   C     0.07193   0.79890   0.53082   0.00000  Uiso   1.00
C113   C     0.02752   0.92918   0.74345   0.00000  Uiso   1.00
C114   C     0.08180   0.96015   0.79761   0.00000  Uiso   1.00
C115   C     0.07328   0.93968   0.84862   0.00000  Uiso   1.00
H116   H     0.86700   0.81377   0.67407   0.00000  Uiso   1.00
H117   H     0.76233   0.88280   0.66169   0.00000  Uiso   1.00
H118   H     0.91041   0.72400   0.57079   0.00000  Uiso   1.00
H119   H     0.91133   0.82060   0.78883   0.00000  Uiso   1.00
H120   H     0.67303   0.98121   0.64932   0.00000  Uiso   1.00
H121   H     0.98527   0.64637   0.45766   0.00000  Uiso   1.00
H122   H     0.98721   0.85006   0.91744   0.00000  Uiso   1.00
H123   H     0.07309   0.98248   0.68467   0.00000  Uiso   1.00
H124   H     0.97973   0.06076   0.67288   0.00000  Uiso   1.00
H125   H     0.12780   0.90196   0.58198   0.00000  Uiso   1.00
H126   H     0.12872   0.99856   0.80001   0.00000  Uiso   1.00
H127   H     0.84948   0.12565   0.65840   0.00000  Uiso   1.00
H128   H     0.16172   0.79081   0.46674   0.00000  Uiso   1.00
H129   H     0.16366   0.99450   0.92651   0.00000  Uiso   1.00
O130   O     0.69612   0.10188   0.64589   0.00000  Uiso   1.00
O131   O     0.10577   0.66258   0.39445   0.00000  Uiso   1.00
O132   O     0.10832   0.92982   0.99766   0.00000  Uiso   1.00
N133   N     0.72737   0.00447   0.65309   0.00000  Uiso   1.00
N134   N     0.01929   0.69141   0.47389   0.00000  Uiso   1.00
N135   N     0.02112   0.88184   0.90374   0.00000  Uiso   1.00
N136   N     0.82232   0.08219   0.65797   0.00000  Uiso   1.00
N137   N     0.11423   0.76914   0.47878   0.00000  Uiso   1.00
N138   N     0.11606   0.95956   0.90862   0.00000  Uiso   1.00
C139   C     0.26681   0.45029   0.46747   0.00000  Uiso   1.00
C140   C     0.26949   0.44002   0.39614   0.00000  Uiso   1.00
C141   C     0.28480   0.38235   0.34570   0.00000  Uiso   1.00
C142   C     0.28459   0.38290   0.28386   0.00000  Uiso   1.00
C143   C     0.29098   0.35840   0.17476   0.00000  Uiso   1.00
C144   C     0.18729   0.46854   0.48535   0.00000  Uiso   1.00
C145   C     0.13350   0.43485   0.50993   0.00000  Uiso   1.00
C146   C     0.06410   0.45941   0.52319   0.00000  Uiso   1.00
C147   C     0.94291   0.47921   0.55264   0.00000  Uiso   1.00
C148   C     0.32473   0.51325   0.50712   0.00000  Uiso   1.00
C149   C     0.38649   0.51715   0.55001   0.00000  Uiso   1.00
C150   C     0.43280   0.57936   0.58162   0.00000  Uiso   1.00
C151   C     0.52500   0.66857   0.64486   0.00000  Uiso   1.00
C152   C     0.23920   0.55382   0.44733   0.00000  Uiso   1.00
C153   C     0.25449   0.49626   0.38520   0.00000  Uiso   1.00
C154   C     0.25426   0.49690   0.32342   0.00000  Uiso   1.00
C155   C     0.26957   0.43924   0.27290   0.00000  Uiso   1.00
C156   C     0.17229   0.52477   0.47441   0.00000  Uiso   1.00
C157   C     0.10296   0.54940   0.48765   0.00000  Uiso   1.00
C158   C     0.04908   0.51575   0.51224   0.00000  Uiso   1.00
C159   C     0.30974   0.56948   0.49618   0.00000  Uiso   1.00
C160   C     0.35595   0.63170   0.52773   0.00000  Uiso   1.00
C161   C     0.41778   0.63570   0.57066   0.00000  Uiso   1.00
H162   H     0.27848   0.40651   0.47598   0.00000  Uiso   1.00
H163   H     0.29639   0.33884   0.35418   0.00000  Uiso   1.00
H164   H     0.14513   0.39133   0.51839   0.00000  Uiso   1.00
H165   H     0.39808   0.47362   0.55846   0.00000  Uiso   1.00
H166   H     0.30961   0.28861   0.21431   0.00000  Uiso   1.00
H167   H     0.99067   0.39931   0.56058   0.00000  Uiso   1.00
H168   H     0.52407   0.57283   0.64508   0.00000  Uiso   1.00
H169   H     0.22753   0.59761   0.43882   0.00000  Uiso   1.00
H170   H     0.24265   0.54043   0.31498   0.00000  Uiso   1.00
H171   H     0.09138   0.59292   0.47919   0.00000  Uiso   1.00
H172   H     0.34433   0.67521   0.51926   0.00000  Uiso   1.00
H173   H     0.26599   0.45222   0.18249   0.00000  Uiso   1.00
H174   H     0.94704   0.56292   0.52876   0.00000  Uiso   1.00
H175   H     0.48044   0.73645   0.61326   0.00000  Uiso   1.00
O176   O     0.29864   0.32934   0.11760   0.00000  Uiso   1.00
O177   O     0.88020   0.47458   0.57190   0.00000  Uiso   1.00
O178   O     0.58001   0.70224   0.68276   0.00000  Uiso   1.00
N179   N     0.29729   0.33497   0.22382   0.00000  Uiso   1.00
N180   N     0.99909   0.43846   0.54755   0.00000  Uiso   1.00
N181   N     0.49776   0.60069   0.62657   0.00000  Uiso   1.00
N182   N     0.27381   0.42301   0.20670   0.00000  Uiso   1.00
N183   N     0.97561   0.52650   0.53043   0.00000  Uiso   1.00
N184   N     0.47428   0.68873   0.60945   0.00000  Uiso   1.00
C185   C     0.65941   0.33401   0.18934   0.00000  Uiso   1.00
C186   C     0.70766   0.28598   0.14328   0.00000  Uiso   1.00
C187   C     0.70636   0.21896   0.13255   0.00000  Uiso   1.00
C188   C     0.75481   0.18351   0.08852   0.00000  Uiso   1.00
C189   C     0.82239   0.10427   0.02186   0.00000  Uiso   1.00
C190   C     0.61439   0.36084   0.14768   0.00000  Uiso   1.00
C191   C     0.53467   0.35677   0.14067   0.00000  Uiso   1.00
C192   C     0.50461   0.38435   0.10035   0.00000  Uiso   1.00
C193   C     0.42740   0.42137   0.04056   0.00000  Uiso   1.00
C194   C     0.71674   0.39374   0.23653   0.00000  Uiso   1.00
C195   C     0.72307   0.41735   0.30422   0.00000  Uiso   1.00
C196   C     0.77918   0.47264   0.33871   0.00000  Uiso   1.00
C197   C     0.86089   0.56075   0.41688   0.00000  Uiso   1.00
C198   C     0.74779   0.39022   0.13022   0.00000  Uiso   1.00
C199   C     0.75566   0.31651   0.11117   0.00000  Uiso   1.00
C200   C     0.80413   0.28115   0.06714   0.00000  Uiso   1.00
C201   C     0.80290   0.21410   0.05635   0.00000  Uiso   1.00
C202   C     0.66239   0.39137   0.11557   0.00000  Uiso   1.00
C203   C     0.63244   0.41896   0.07526   0.00000  Uiso   1.00
C204   C     0.55270   0.41493   0.06818   0.00000  Uiso   1.00
C205   C     0.76475   0.42427   0.20442   0.00000  Uiso   1.00
C206   C     0.82085   0.47954   0.23881   0.00000  Uiso   1.00
C207   C     0.82727   0.50323   0.30654   0.00000  Uiso   1.00
H208   H     0.62204   0.31024   0.21434   0.00000  Uiso   1.00
H209   H     0.66919   0.19535   0.15741   0.00000  Uiso   1.00
H210   H     0.49754   0.33314   0.16553   0.00000  Uiso   1.00
H211   H     0.68592   0.39371   0.32906   0.00000  Uiso   1.00
H212   H     0.74262   0.08143   0.08011   0.00000  Uiso   1.00
H213   H     0.38068   0.37199   0.09725   0.00000  Uiso   1.00
H214   H     0.77791   0.49971   0.44208   0.00000  Uiso   1.00
H215   H     0.78516   0.41400   0.10522   0.00000  Uiso   1.00
H216   H     0.84127   0.30480   0.04230   0.00000  Uiso   1.00
H217   H     0.66961   0.44259   0.05042   0.00000  Uiso   1.00
H218   H     0.85799   0.50315   0.21395   0.00000  Uiso   1.00
H219   H     0.88228   0.17026   0.98668   0.00000  Uiso   1.00
H220   H     0.52033   0.46083   0.00382   0.00000  Uiso   1.00
H221   H     0.91757   0.58854   0.34865   0.00000  Uiso   1.00
O222   O     0.84640   0.05213   0.99396   0.00000  Uiso   1.00
O223   O     0.37154   0.43335   0.01645   0.00000  Uiso   1.00
O224   O     0.89270   0.60091   0.46887   0.00000  Uiso   1.00
N225   N     0.76780   0.11733   0.06677   0.00000  Uiso   1.00
N226   N     0.42940   0.38898   0.08278   0.00000  Uiso   1.00
N227   N     0.80077   0.50839   0.40517   0.00000  Uiso   1.00
N228   N     0.84296   0.16512   0.01650   0.00000  Uiso   1.00
N229   N     0.50455   0.43678   0.03251   0.00000  Uiso   1.00
N230   N     0.87592   0.55619   0.35490   0.00000  Uiso   1.00
C231   C     0.43584   0.05864   0.44631   0.00000  Uiso   1.00
C232   C     0.40798   0.05055   0.50680   0.00000  Uiso   1.00
C233   C     0.33143   0.03956   0.51846   0.00000  Uiso   1.00
C234   C     0.31793   0.03353   0.57673   0.00000  Uiso   1.00
C235   C     0.26539   0.02022   0.66381   0.00000  Uiso   1.00
C236   C     0.48749   0.00520   0.41753   0.00000  Uiso   1.00
C237   C     0.47779   0.95608   0.35413   0.00000  Uiso   1.00
C238   C     0.53123   0.91187   0.33725   0.00000  Uiso   1.00
C239   C     0.60217   0.82817   0.28572   0.00000  Uiso   1.00
C240   C     0.48892   0.12621   0.47130   0.00000  Uiso   1.00
C241   C     0.48045   0.17883   0.45310   0.00000  Uiso   1.00
C242   C     0.53511   0.23650   0.48147   0.00000  Uiso   1.00
C243   C     0.60827   0.34069   0.51342   0.00000  Uiso   1.00
C244   C     0.54800   0.06748   0.52905   0.00000  Uiso   1.00
C245   C     0.46890   0.05535   0.55174   0.00000  Uiso   1.00
C246   C     0.45551   0.04934   0.61001   0.00000  Uiso   1.00
C247   C     0.37895   0.03834   0.62176   0.00000  Uiso   1.00
C248   C     0.54840   0.01000   0.46247   0.00000  Uiso   1.00
C249   C     0.60187   0.96586   0.44567   0.00000  Uiso   1.00
C250   C     0.59226   0.91668   0.38227   0.00000  Uiso   1.00
C251   C     0.54984   0.13101   0.51624   0.00000  Uiso   1.00
C252   C     0.60453   0.18861   0.54464   0.00000  Uiso   1.00
C253   C     0.59613   0.24131   0.52650   0.00000  Uiso   1.00
H254   H     0.38842   0.05490   0.41132   0.00000  Uiso   1.00
H255   H     0.28430   0.03584   0.48367   0.00000  Uiso   1.00
H256   H     0.43065   0.95238   0.31936   0.00000  Uiso   1.00
H257   H     0.43330   0.17510   0.41832   0.00000  Uiso   1.00
H258   H     0.19573   0.01681   0.58369   0.00000  Uiso   1.00
H259   H     0.50432   0.84084   0.23724   0.00000  Uiso   1.00
H260   H     0.50992   0.31048   0.44590   0.00000  Uiso   1.00
H261   H     0.59543   0.07121   0.56404   0.00000  Uiso   1.00
H262   H     0.50266   0.05306   0.64478   0.00000  Uiso   1.00
H263   H     0.64901   0.96959   0.48046   0.00000  Uiso   1.00
H264   H     0.65166   0.19231   0.57942   0.00000  Uiso   1.00
H265   H     0.37296   0.03078   0.71445   0.00000  Uiso   1.00
H266   H     0.68155   0.85481   0.36799   0.00000  Uiso   1.00
H267   H     0.68715   0.32445   0.57666   0.00000  Uiso   1.00
O268   O     0.21959   0.01154   0.69942   0.00000  Uiso   1.00
O269   O     0.62446   0.78067   0.24487   0.00000  Uiso   1.00
O270   O     0.63179   0.39683   0.51864   0.00000  Uiso   1.00
N271   N     0.25017   0.02261   0.60339   0.00000  Uiso   1.00
N272   N     0.53868   0.85807   0.27948   0.00000  Uiso   1.00
N273   N     0.54392   0.29714   0.47455   0.00000  Uiso   1.00
N274   N     0.34554   0.03012   0.67375   0.00000  Uiso   1.00
N275   N     0.63405   0.86559   0.34984   0.00000  Uiso   1.00
N276   N     0.63929   0.30466   0.54491   0.00000  Uiso   1.00
C277   C     0.30115   0.85290   0.92360   0.00000  Uiso   1.00
C278   C     0.29829   0.92798   0.95843   0.00000  Uiso   1.00
C279   C     0.28504   0.96121   0.02329   0.00000  Uiso   1.00
C280   C     0.28468   0.03002   0.04595   0.00000  Uiso   1.00
C281   C     0.27839   0.14137   0.10626   0.00000  Uiso   1.00
C282   C     0.37962   0.84733   0.89667   0.00000  Uiso   1.00
C283   C     0.43475   0.81275   0.90959   0.00000  Uiso   1.00
C284   C     0.50284   0.81366   0.88025   0.00000  Uiso   1.00
C285   C     0.62279   0.79977   0.84462   0.00000  Uiso   1.00
C286   C     0.24124   0.82665   0.86424   0.00000  Uiso   1.00
C287   C     0.18004   0.77466   0.84988   0.00000  Uiso   1.00
C288   C     0.13164   0.75815   0.79323   0.00000  Uiso   1.00
C289   C     0.03674   0.71215   0.70725   0.00000  Uiso   1.00
C290   C     0.32405   0.91600   0.84851   0.00000  Uiso   1.00
C291   C     0.31073   0.96224   0.91765   0.00000  Uiso   1.00
C292   C     0.31039   0.03102   0.94021   0.00000  Uiso   1.00
C293   C     0.29714   0.06435   0.00509   0.00000  Uiso   1.00
C294   C     0.39206   0.88160   0.85588   0.00000  Uiso   1.00
C295   C     0.46009   0.88255   0.82651   0.00000  Uiso   1.00
C296   C     0.51531   0.84799   0.83939   0.00000  Uiso   1.00
C297   C     0.25368   0.86091   0.82345   0.00000  Uiso   1.00
C298   C     0.20538   0.84447   0.76680   0.00000  Uiso   1.00
C299   C     0.14411   0.79248   0.75236   0.00000  Uiso   1.00
H300   H     0.29147   0.82622   0.95535   0.00000  Uiso   1.00
H301   H     0.27543   0.93467   0.05484   0.00000  Uiso   1.00
H302   H     0.42510   0.78623   0.94115   0.00000  Uiso   1.00
H303   H     0.17043   0.74815   0.88145   0.00000  Uiso   1.00
H304   H     0.26316   0.07003   0.14717   0.00000  Uiso   1.00
H305   H     0.57874   0.75701   0.90742   0.00000  Uiso   1.00
H306   H     0.04172   0.67671   0.78154   0.00000  Uiso   1.00
H307   H     0.33374   0.94268   0.81675   0.00000  Uiso   1.00
H308   H     0.32002   0.05752   0.90864   0.00000  Uiso   1.00
H309   H     0.46969   0.90908   0.79495   0.00000  Uiso   1.00
H310   H     0.21502   0.87100   0.73525   0.00000  Uiso   1.00
H311   H     0.29935   0.16974   0.02850   0.00000  Uiso   1.00
H312   H     0.61494   0.85671   0.78876   0.00000  Uiso   1.00
H313   H     0.07791   0.77642   0.66288   0.00000  Uiso   1.00
O314   O     0.27149   0.19333   0.15079   0.00000  Uiso   1.00
O315   O     0.68552   0.78265   0.83624   0.00000  Uiso   1.00
O316   O     0.98095   0.67731   0.67109   0.00000  Uiso   1.00
N317   N     0.27354   0.07773   0.10663   0.00000  Uiso   1.00
N318   N     0.56860   0.78509   0.88249   0.00000  Uiso   1.00
N319   N     0.06654   0.71000   0.76479   0.00000  Uiso   1.00
N320   N     0.29302   0.13138   0.04277   0.00000  Uiso   1.00
N321   N     0.58808   0.83874   0.81863   0.00000  Uiso   1.00
N322   N     0.08602   0.76366   0.70094   0.00000  Uiso   1.00
C323   C     0.03539   0.13011   0.89660   0.00000  Uiso   1.00
C324   C     0.04343   0.18121   0.96746   0.00000  Uiso   1.00
C325   C     0.08428   0.17681   0.01971   0.00000  Uiso   1.00
C326   C     0.08467   0.22872   0.08073   0.00000  Uiso   1.00
C327   C     0.10313   0.29983   0.18948   0.00000  Uiso   1.00
C328   C     0.06458   0.16921   0.85670   0.00000  Uiso   1.00
C329   C     0.12321   0.15470   0.81582   0.00000  Uiso   1.00
C330   C     0.14140   0.19650   0.78360   0.00000  Uiso   1.00
C331   C     0.19266   0.24894   0.72035   0.00000  Uiso   1.00
C332   C     0.94885   0.10845   0.87623   0.00000  Uiso   1.00
C333   C     0.91018   0.04285   0.85176   0.00000  Uiso   1.00
C334   C     0.83093   0.03350   0.83597   0.00000  Uiso   1.00
C335   C     0.70251   0.99160   0.80304   0.00000  Uiso   1.00
C336   C     0.96343   0.23013   0.91205   0.00000  Uiso   1.00
C337   C     0.00434   0.23554   0.97584   0.00000  Uiso   1.00
C338   C     0.00466   0.28748   0.03680   0.00000  Uiso   1.00
C339   C     0.04551   0.28315   0.08914   0.00000  Uiso   1.00
C340   C     0.02550   0.22353   0.86509   0.00000  Uiso   1.00
C341   C     0.04359   0.26536   0.83292   0.00000  Uiso   1.00
C342   C     0.10224   0.25093   0.79201   0.00000  Uiso   1.00
C343   C     0.90977   0.16278   0.88462   0.00000  Uiso   1.00
C344   C     0.83056   0.15352   0.86886   0.00000  Uiso   1.00
C345   C     0.79178   0.08793   0.84437   0.00000  Uiso   1.00
H346   H     0.06582   0.08781   0.89006   0.00000  Uiso   1.00
H347   H     0.11453   0.13476   0.01320   0.00000  Uiso   1.00
H348   H     0.15344   0.11265   0.80933   0.00000  Uiso   1.00
H349   H     0.94045   0.00082   0.84527   0.00000  Uiso   1.00
H350   H     0.15131   0.21078   0.15341   0.00000  Uiso   1.00
H351   H     0.23335   0.16415   0.72354   0.00000  Uiso   1.00
H352   H     0.78420   0.92834   0.79931   0.00000  Uiso   1.00
H353   H     0.93300   0.27243   0.91858   0.00000  Uiso   1.00
H354   H     0.97441   0.32951   0.04328   0.00000  Uiso   1.00
H355   H     0.01333   0.30740   0.83942   0.00000  Uiso   1.00
H356   H     0.80034   0.19558   0.87536   0.00000  Uiso   1.00
H357   H     0.03759   0.36885   0.17783   0.00000  Uiso   1.00
H358   H     0.11963   0.32222   0.74795   0.00000  Uiso   1.00
H359   H     0.67049   0.08641   0.82373   0.00000  Uiso   1.00
O360   O     0.12411   0.32405   0.24714   0.00000  Uiso   1.00
O361   O     0.23174   0.26285   0.68315   0.00000  Uiso   1.00
O362   O     0.64247   0.95349   0.78257   0.00000  Uiso   1.00
N363   N     0.11885   0.24014   0.14205   0.00000  Uiso   1.00
N364   N     0.19556   0.19655   0.74015   0.00000  Uiso   1.00
N365   N     0.77565   0.97609   0.81098   0.00000  Uiso   1.00
N366   N     0.05766   0.32520   0.15519   0.00000  Uiso   1.00
N367   N     0.13437   0.28161   0.75329   0.00000  Uiso   1.00
N368   N     0.71446   0.06115   0.82412   0.00000  Uiso   1.00
C369   C     0.20272   0.89069   0.27111   0.00000  Uiso   1.00
C370   C     0.23377   0.83008   0.27457   0.00000  Uiso   1.00
C371   C     0.31031   0.81991   0.27203   0.00000  Uiso   1.00
C372   C     0.32700   0.76124   0.27598   0.00000  Uiso   1.00
C373   C     0.38402   0.67425   0.28043   0.00000  Uiso   1.00
C374   C     0.16187   0.92052   0.33264   0.00000  Uiso   1.00
C375   C     0.17794   0.98639   0.37893   0.00000  Uiso   1.00
C376   C     0.13409   0.00385   0.43175   0.00000  Uiso   1.00
C377   C     0.07944   0.05728   0.52634   0.00000  Uiso   1.00
C378   C     0.13957   0.86247   0.21401   0.00000  Uiso   1.00
C379   C     0.13688   0.87955   0.16056   0.00000  Uiso   1.00
C380   C     0.07424   0.84816   0.11352   0.00000  Uiso   1.00
C381   C     0.98496   0.81147   0.02391   0.00000  Uiso   1.00
C382   C     0.09626   0.80458   0.28261   0.00000  Uiso   1.00
C383   C     0.17595   0.78331   0.28082   0.00000  Uiso   1.00
C384   C     0.19252   0.72463   0.28476   0.00000  Uiso   1.00
C385   C     0.26907   0.71438   0.28224   0.00000  Uiso   1.00
C386   C     0.10404   0.87375   0.33889   0.00000  Uiso   1.00
C387   C     0.06016   0.89111   0.39165   0.00000  Uiso   1.00
C388   C     0.07616   0.95699   0.43801   0.00000  Uiso   1.00
C389   C     0.08174   0.81570   0.22026   0.00000  Uiso   1.00
C390   C     0.01909   0.78428   0.17329   0.00000  Uiso   1.00
C391   C     0.01631   0.80130   0.11978   0.00000  Uiso   1.00
H392   H     0.24774   0.92711   0.26625   0.00000  Uiso   1.00
H393   H     0.35504   0.85612   0.26720   0.00000  Uiso   1.00
H394   H     0.22269   0.02257   0.37407   0.00000  Uiso   1.00
H395   H     0.18163   0.91575   0.15574   0.00000  Uiso   1.00
H396   H     0.44851   0.75680   0.27105   0.00000  Uiso   1.00
H397   H     0.16942   0.10778   0.49638   0.00000  Uiso   1.00
H398   H     0.08285   0.88253   0.03598   0.00000  Uiso   1.00
H399   H     0.05124   0.76816   0.28748   0.00000  Uiso   1.00
H400   H     0.14776   0.68845   0.28960   0.00000  Uiso   1.00
H401   H     0.01541   0.85491   0.39647   0.00000  Uiso   1.00
H402   H     0.97436   0.74808   0.17814   0.00000  Uiso   1.00
H403   H     0.28028   0.62071   0.28923   0.00000  Uiso   1.00
H404   H     0.00118   0.97170   0.51456   0.00000  Uiso   1.00
H405   H     0.91461   0.74644   0.05416   0.00000  Uiso   1.00
O406   O     0.43144   0.63920   0.28117   0.00000  Uiso   1.00
O407   O     0.06528   0.09968   0.57679   0.00000  Uiso   1.00
O408   O     0.95170   0.80415   0.97276   0.00000  Uiso   1.00
N409   N     0.39567   0.73571   0.27502   0.00000  Uiso   1.00
N410   N     0.13474   0.06385   0.48570   0.00000  Uiso   1.00
N411   N     0.05380   0.85327   0.05527   0.00000  Uiso   1.00
N412   N     0.30514   0.66248   0.28480   0.00000  Uiso   1.00
N413   N     0.04422   0.99063   0.49548   0.00000  Uiso   1.00
N414   N     0.96327   0.78004   0.06506   0.00000  Uiso   1.00
C415   C     0.81476   0.14231   0.39075   0.00000  Uiso   1.00
C416   C     0.85062   0.16526   0.46089   0.00000  Uiso   1.00
C417   C     0.81112   0.18469   0.51627   0.00000  Uiso   1.00
C418   C     0.85438   0.20400   0.57600   0.00000  Uiso   1.00
C419   C     0.89793   0.23969   0.68429   0.00000  Uiso   1.00
C420   C     0.85824   0.18870   0.36338   0.00000  Uiso   1.00
C421   C     0.82514   0.22782   0.33676   0.00000  Uiso   1.00
C422   C     0.87481   0.26685   0.31439   0.00000  Uiso   1.00
C423   C     0.93017   0.33889   0.27124   0.00000  Uiso   1.00
C424   C     0.83619   0.07280   0.35319   0.00000  Uiso   1.00
C425   C     0.78455   0.01448   0.31798   0.00000  Uiso   1.00
C426   C     0.81565   0.95594   0.28702   0.00000  Uiso   1.00
C427   C     0.83678   0.84804   0.22804   0.00000  Uiso   1.00
C428   C     0.96182   0.14205   0.39835   0.00000  Uiso   1.00
C429   C     0.93051   0.16512   0.46502   0.00000  Uiso   1.00
C430   C     0.97384   0.18440   0.52468   0.00000  Uiso   1.00
C431   C     0.93441   0.20386   0.58014   0.00000  Uiso   1.00
C432   C     0.93812   0.18856   0.36750   0.00000  Uiso   1.00
C433   C     0.98785   0.22754   0.34516   0.00000  Uiso   1.00
C434   C     0.95483   0.26671   0.31852   0.00000  Uiso   1.00
C435   C     0.91607   0.07266   0.35731   0.00000  Uiso   1.00
C436   C     0.94726   0.01420   0.32639   0.00000  Uiso   1.00
C437   C     0.89568   0.95580   0.29115   0.00000  Uiso   1.00
H438   H     0.75257   0.14242   0.38753   0.00000  Uiso   1.00
H439   H     0.74931   0.18479   0.51306   0.00000  Uiso   1.00
H440   H     0.76332   0.22791   0.33356   0.00000  Uiso   1.00
H441   H     0.72274   0.01461   0.31480   0.00000  Uiso   1.00
H442   H     0.78092   0.23174   0.65404   0.00000  Uiso   1.00
H443   H     0.81046   0.32264   0.27555   0.00000  Uiso   1.00
H444   H     0.72489   0.87284   0.23597   0.00000  Uiso   1.00
H445   H     0.02402   0.14195   0.40156   0.00000  Uiso   1.00
H446   H     0.03565   0.18429   0.52786   0.00000  Uiso   1.00
H447   H     0.04966   0.22742   0.34836   0.00000  Uiso   1.00
H448   H     0.00908   0.01411   0.32960   0.00000  Uiso   1.00
H449   H     0.01333   0.23133   0.66606   0.00000  Uiso   1.00
H450   H     0.04287   0.32223   0.28756   0.00000  Uiso   1.00
H451   H     0.95730   0.87244   0.24799   0.00000  Uiso   1.00
O452   O     0.89989   0.25942   0.74288   0.00000  Uiso   1.00
O453   O     0.93864   0.37867   0.24630   0.00000  Uiso   1.00
O454   O     0.82637   0.78855   0.19438   0.00000  Uiso   1.00
N455   N     0.83402   0.22582   0.63954   0.00000  Uiso   1.00
N456   N     0.86164   0.31081   0.28568   0.00000  Uiso   1.00
N457   N     0.78164   0.89030   0.24866   0.00000  Uiso   1.00
N458   N     0.95908   0.22560   0.64600   0.00000  Uiso   1.00
N459   N     0.98670   0.31060   0.29215   0.00000  Uiso   1.00
N460   N     0.90669   0.89008   0.25513   0.00000  Uiso   1.00
C461   C     0.55310   0.45218   0.68454   0.00000  Uiso   1.00
C462   C     0.53133   0.49302   0.75264   0.00000  Uiso   1.00
C463   C     0.51299   0.55760   0.77429   0.00000  Uiso   1.00
C464   C     0.49469   0.58632   0.83831   0.00000  Uiso   1.00
C465   C     0.46092   0.65502   0.93785   0.00000  Uiso   1.00
C466   C     0.63182   0.43314   0.69473   0.00000  Uiso   1.00
C467   C     0.69797   0.44738   0.66769   0.00000  Uiso   1.00
C468   C     0.76425   0.42568   0.68294   0.00000  Uiso   1.00
C469   C     0.88648   0.40138   0.69254   0.00000  Uiso   1.00
C470   C     0.49622   0.38662   0.65777   0.00000  Uiso   1.00
C471   C     0.44837   0.36173   0.59964   0.00000  Uiso   1.00
C472   C     0.40050   0.30085   0.58377   0.00000  Uiso   1.00
C473   C     0.31219   0.20432   0.53598   0.00000  Uiso   1.00
C474   C     0.55320   0.38832   0.75972   0.00000  Uiso   1.00
C475   C     0.53139   0.45833   0.79348   0.00000  Uiso   1.00
C476   C     0.51311   0.48696   0.85748   0.00000  Uiso   1.00
C477   C     0.49474   0.55157   0.87922   0.00000  Uiso   1.00
C478   C     0.63188   0.39846   0.73557   0.00000  Uiso   1.00
C479   C     0.69808   0.37673   0.75087   0.00000  Uiso   1.00
C480   C     0.76431   0.39093   0.72385   0.00000  Uiso   1.00
C481   C     0.49628   0.35193   0.69861   0.00000  Uiso   1.00
C482   C     0.44848   0.29108   0.68282   0.00000  Uiso   1.00
C483   C     0.40056   0.26611   0.62468   0.00000  Uiso   1.00
H484   H     0.55306   0.47918   0.65275   0.00000  Uiso   1.00
H485   H     0.51296   0.58443   0.74268   0.00000  Uiso   1.00
H486   H     0.69790   0.47421   0.63608   0.00000  Uiso   1.00
H487   H     0.44834   0.38858   0.56805   0.00000  Uiso   1.00
H488   H     0.46856   0.68583   0.86040   0.00000  Uiso   1.00
H489   H     0.85851   0.45342   0.63562   0.00000  Uiso   1.00
H490   H     0.33226   0.27284   0.49215   0.00000  Uiso   1.00
H491   H     0.55325   0.36132   0.79152   0.00000  Uiso   1.00
H492   H     0.51316   0.46010   0.88907   0.00000  Uiso   1.00
H493   H     0.69811   0.34989   0.78247   0.00000  Uiso   1.00
H494   H     0.44854   0.26426   0.71443   0.00000  Uiso   1.00
H495   H     0.46872   0.58493   0.97921   0.00000  Uiso   1.00
H496   H     0.85868   0.35251   0.75443   0.00000  Uiso   1.00
H497   H     0.33243   0.17193   0.61096   0.00000  Uiso   1.00
O498   O     0.44229   0.70250   0.98148   0.00000  Uiso   1.00
O499   O     0.95389   0.39757   0.68656   0.00000  Uiso   1.00
O500   O     0.26346   0.16066   0.49834   0.00000  Uiso   1.00
N501   N     0.47408   0.64852   0.87497   0.00000  Uiso   1.00
N502   N     0.83867   0.43124   0.66482   0.00000  Uiso   1.00
N503   N     0.34668   0.26241   0.53068   0.00000  Uiso   1.00
N504   N     0.47417   0.59423   0.93890   0.00000  Uiso   1.00
N505   N     0.83876   0.37694   0.72875   0.00000  Uiso   1.00
N506   N     0.34677   0.20811   0.59461   0.00000  Uiso   1.00
C507   C     0.66719   0.69387   0.50906   0.00000  Uiso   1.00
C508   C     0.70438   0.70518   0.45314   0.00000  Uiso   1.00
C509   C     0.78314   0.71652   0.44854   0.00000  Uiso   1.00
C510   C     0.80555   0.72571   0.39351   0.00000  Uiso   1.00
C511   C     0.87157   0.74361   0.31409   0.00000  Uiso   1.00
C512   C     0.61481   0.74724   0.53488   0.00000  Uiso   1.00
C513   C     0.61826   0.79393   0.59902   0.00000  Uiso   1.00
C514   C     0.56525   0.83851   0.61280   0.00000  Uiso   1.00
C515   C     0.49218   0.92168   0.66030   0.00000  Uiso   1.00
C516   C     0.61367   0.62657   0.47780   0.00000  Uiso   1.00
C517   C     0.61615   0.57181   0.49395   0.00000  Uiso   1.00
C518   C     0.56216   0.51480   0.45969   0.00000  Uiso   1.00
C519   C     0.48732   0.41062   0.41856   0.00000  Uiso   1.00
C520   C     0.56691   0.69002   0.41951   0.00000  Uiso   1.00
C521   C     0.64991   0.70309   0.40450   0.00000  Uiso   1.00
C522   C     0.67219   0.71225   0.34946   0.00000  Uiso   1.00
C523   C     0.75098   0.72361   0.34478   0.00000  Uiso   1.00
C524   C     0.56034   0.74514   0.48624   0.00000  Uiso   1.00
C525   C     0.50731   0.78967   0.49994   0.00000  Uiso   1.00
C526   C     0.51068   0.83642   0.56407   0.00000  Uiso   1.00
C527   C     0.55920   0.62447   0.42916   0.00000  Uiso   1.00
C528   C     0.50520   0.56754   0.39487   0.00000  Uiso   1.00
C529   C     0.50759   0.51271   0.41096   0.00000  Uiso   1.00
H530   H     0.70960   0.69550   0.54694   0.00000  Uiso   1.00
H531   H     0.82528   0.71814   0.48620   0.00000  Uiso   1.00
H532   H     0.66042   0.79553   0.63665   0.00000  Uiso   1.00
H533   H     0.65831   0.57345   0.53160   0.00000  Uiso   1.00
H534   H     0.92951   0.74234   0.39742   0.00000  Uiso   1.00
H535   H     0.58187   0.90551   0.71466   0.00000  Uiso   1.00
H536   H     0.57742   0.43720   0.49314   0.00000  Uiso   1.00
H537   H     0.52450   0.68839   0.38164   0.00000  Uiso   1.00
H538   H     0.63003   0.71063   0.31183   0.00000  Uiso   1.00
H539   H     0.46516   0.78803   0.46228   0.00000  Uiso   1.00
H540   H     0.46305   0.56594   0.35723   0.00000  Uiso   1.00
H541   H     0.77104   0.73625   0.25589   0.00000  Uiso   1.00
H542   H     0.42340   0.89942   0.57314   0.00000  Uiso   1.00
H543   H     0.41894   0.43111   0.35162   0.00000  Uiso   1.00
O544   O     0.92304   0.75408   0.28372   0.00000  Uiso   1.00
O545   O     0.46694   0.96814   0.69994   0.00000  Uiso   1.00
O546   O     0.46110   0.35373   0.40931   0.00000  Uiso   1.00
N547   N     0.87774   0.73784   0.37368   0.00000  Uiso   1.00
N548   N     0.55272   0.89040   0.67029   0.00000  Uiso   1.00
N549   N     0.54854   0.45258   0.46320   0.00000  Uiso   1.00
N550   N     0.79246   0.73456   0.29753   0.00000  Uiso   1.00
N551   N     0.46745   0.88713   0.59413   0.00000  Uiso   1.00
N552   N     0.46327   0.44930   0.38704   0.00000  Uiso   1.00
