data_job_01659
_audit_creation_date              2018-12-19
_audit_creation_method            'Materials Studio'
_symmetry_space_group_name_H-M    'P1'
_symmetry_Int_Tables_number       1
_symmetry_cell_setting            triclinic
loop_
_symmetry_equiv_pos_as_xyz
  x,y,z
_cell_length_a                    24.8422
_cell_length_b                    11.3012
_cell_length_c                    23.9479
_cell_angle_alpha                 90.0000
_cell_angle_beta                  90.0000
_cell_angle_gamma                 90.0000
loop_
_atom_site_label
_atom_site_type_symbol
_atom_site_fract_x
_atom_site_fract_y
_atom_site_fract_z
_atom_site_U_iso_or_equiv
_atom_site_adp_type
_atom_site_occupancy
C1     C     0.67469   0.63005   0.68844   0.00000  Uiso   1.00
C2     C     0.63118   0.53553   0.68318   0.00000  Uiso   1.00
C3     C     0.63712   0.41665   0.69634   0.00000  Uiso   1.00
C4     C     0.59253   0.34445   0.68860   0.00000  Uiso   1.00
C5     C     0.53239   0.19079   0.68347   0.00000  Uiso   1.00
C6     C     0.68013   0.68559   0.63068   0.00000  Uiso   1.00
C7     C     0.72723   0.69291   0.59971   0.00000  Uiso   1.00
C8     C     0.72384   0.74705   0.54778   0.00000  Uiso   1.00
C9     C     0.73971   0.82645   0.46117   0.00000  Uiso   1.00
C10    C     0.65125   0.72604   0.72601   0.00000  Uiso   1.00
C11    C     0.67406   0.76738   0.77518   0.00000  Uiso   1.00
C12    C     0.64636   0.85560   0.80350   0.00000  Uiso   1.00
C13    C     0.61738   0.99779   0.86490   0.00000  Uiso   1.00
C14    C     0.58492   0.71322   0.65131   0.00000  Uiso   1.00
C15    C     0.58242   0.58070   0.66301   0.00000  Uiso   1.00
C16    C     0.53780   0.50866   0.65525   0.00000  Uiso   1.00
C17    C     0.54368   0.38970   0.66840   0.00000  Uiso   1.00
C18    C     0.63137   0.73077   0.61051   0.00000  Uiso   1.00
C19    C     0.62791   0.78492   0.55863   0.00000  Uiso   1.00
C20    C     0.67499   0.79231   0.52758   0.00000  Uiso   1.00
C21    C     0.60248   0.77121   0.70584   0.00000  Uiso   1.00
C22    C     0.57474   0.85939   0.73409   0.00000  Uiso   1.00
C23    C     0.59751   0.90085   0.78330   0.00000  Uiso   1.00
H24    H     0.71266   0.59489   0.70414   0.00000  Uiso   1.00
H25    H     0.67487   0.38172   0.71194   0.00000  Uiso   1.00
H26    H     0.76496   0.65795   0.61533   0.00000  Uiso   1.00
H27    H     0.71180   0.73240   0.79077   0.00000  Uiso   1.00
H28    H     0.61148   0.16530   0.71167   0.00000  Uiso   1.00
H29    H     0.80144   0.74778   0.50797   0.00000  Uiso   1.00
H30    H     0.68934   0.90478   0.87792   0.00000  Uiso   1.00
H31    H     0.54696   0.74840   0.63561   0.00000  Uiso   1.00
H32    H     0.50007   0.54365   0.63965   0.00000  Uiso   1.00
H33    H     0.59017   0.81988   0.54303   0.00000  Uiso   1.00
H34    H     0.53701   0.89433   0.71847   0.00000  Uiso   1.00
H35    H     0.46961   0.29672   0.65299   0.00000  Uiso   1.00
H36    H     0.65958   0.87921   0.44929   0.00000  Uiso   1.00
H37    H     0.54748   0.03620   0.81924   0.00000  Uiso   1.00
O38    O     0.51270   0.09355   0.68621   0.00000  Uiso   1.00
O39    O     0.76193   0.85775   0.41897   0.00000  Uiso   1.00
O40    O     0.61485   0.06373   0.90434   0.00000  Uiso   1.00
N41    N     0.58452   0.22433   0.69732   0.00000  Uiso   1.00
N42    N     0.76212   0.76890   0.50687   0.00000  Uiso   1.00
N43    N     0.65733   0.91570   0.85273   0.00000  Uiso   1.00
N44    N     0.50818   0.29505   0.66574   0.00000  Uiso   1.00
N45    N     0.68579   0.83962   0.47529   0.00000  Uiso   1.00
N46    N     0.58099   0.98642   0.82116   0.00000  Uiso   1.00
C47    C     0.82531   0.36995   0.68844   0.00000  Uiso   1.00
C48    C     0.86882   0.46447   0.68318   0.00000  Uiso   1.00
C49    C     0.86288   0.58335   0.69634   0.00000  Uiso   1.00
C50    C     0.90747   0.65555   0.68860   0.00000  Uiso   1.00
C51    C     0.96761   0.80921   0.68347   0.00000  Uiso   1.00
C52    C     0.81987   0.31441   0.63068   0.00000  Uiso   1.00
C53    C     0.77277   0.30709   0.59971   0.00000  Uiso   1.00
C54    C     0.77616   0.25295   0.54778   0.00000  Uiso   1.00
C55    C     0.76029   0.17355   0.46117   0.00000  Uiso   1.00
C56    C     0.84875   0.27396   0.72601   0.00000  Uiso   1.00
C57    C     0.82594   0.23262   0.77518   0.00000  Uiso   1.00
C58    C     0.85364   0.14440   0.80350   0.00000  Uiso   1.00
C59    C     0.88262   0.00221   0.86490   0.00000  Uiso   1.00
C60    C     0.91508   0.28678   0.65131   0.00000  Uiso   1.00
C61    C     0.91758   0.41930   0.66301   0.00000  Uiso   1.00
C62    C     0.96220   0.49134   0.65525   0.00000  Uiso   1.00
C63    C     0.95632   0.61030   0.66840   0.00000  Uiso   1.00
C64    C     0.86863   0.26923   0.61051   0.00000  Uiso   1.00
C65    C     0.87209   0.21508   0.55863   0.00000  Uiso   1.00
C66    C     0.82501   0.20769   0.52758   0.00000  Uiso   1.00
C67    C     0.89752   0.22879   0.70584   0.00000  Uiso   1.00
C68    C     0.92526   0.14061   0.73409   0.00000  Uiso   1.00
C69    C     0.90249   0.09915   0.78330   0.00000  Uiso   1.00
H70    H     0.78734   0.40511   0.70414   0.00000  Uiso   1.00
H71    H     0.82513   0.61828   0.71194   0.00000  Uiso   1.00
H72    H     0.73504   0.34205   0.61533   0.00000  Uiso   1.00
H73    H     0.78820   0.26760   0.79077   0.00000  Uiso   1.00
H74    H     0.88852   0.83470   0.71167   0.00000  Uiso   1.00
H75    H     0.69856   0.25222   0.50797   0.00000  Uiso   1.00
H76    H     0.81066   0.09522   0.87792   0.00000  Uiso   1.00
H77    H     0.95304   0.25160   0.63561   0.00000  Uiso   1.00
H78    H     0.99993   0.45635   0.63965   0.00000  Uiso   1.00
H79    H     0.90983   0.18012   0.54303   0.00000  Uiso   1.00
H80    H     0.96299   0.10567   0.71847   0.00000  Uiso   1.00
H81    H     0.03039   0.70328   0.65299   0.00000  Uiso   1.00
H82    H     0.84042   0.12079   0.44929   0.00000  Uiso   1.00
H83    H     0.95252   0.96380   0.81924   0.00000  Uiso   1.00
O84    O     0.98730   0.90645   0.68621   0.00000  Uiso   1.00
O85    O     0.73807   0.14225   0.41897   0.00000  Uiso   1.00
O86    O     0.88515   0.93627   0.90434   0.00000  Uiso   1.00
N87    N     0.91548   0.77567   0.69732   0.00000  Uiso   1.00
N88    N     0.73788   0.23110   0.50687   0.00000  Uiso   1.00
N89    N     0.84267   0.08430   0.85273   0.00000  Uiso   1.00
N90    N     0.99182   0.70495   0.66574   0.00000  Uiso   1.00
N91    N     0.81421   0.16038   0.47529   0.00000  Uiso   1.00
N92    N     0.91901   0.01358   0.82116   0.00000  Uiso   1.00
C93    C     0.32531   0.63005   0.81156   0.00000  Uiso   1.00
C94    C     0.36882   0.53553   0.81682   0.00000  Uiso   1.00
C95    C     0.36288   0.41665   0.80366   0.00000  Uiso   1.00
C96    C     0.40747   0.34445   0.81140   0.00000  Uiso   1.00
C97    C     0.46761   0.19079   0.81653   0.00000  Uiso   1.00
C98    C     0.31987   0.68559   0.86932   0.00000  Uiso   1.00
C99    C     0.27277   0.69291   0.90029   0.00000  Uiso   1.00
C100   C     0.27616   0.74705   0.95222   0.00000  Uiso   1.00
C101   C     0.26029   0.82645   0.03883   0.00000  Uiso   1.00
C102   C     0.34875   0.72604   0.77399   0.00000  Uiso   1.00
C103   C     0.32594   0.76738   0.72482   0.00000  Uiso   1.00
C104   C     0.35364   0.85560   0.69650   0.00000  Uiso   1.00
C105   C     0.38262   0.99779   0.63510   0.00000  Uiso   1.00
C106   C     0.41508   0.71322   0.84869   0.00000  Uiso   1.00
C107   C     0.41758   0.58070   0.83699   0.00000  Uiso   1.00
C108   C     0.46220   0.50866   0.84475   0.00000  Uiso   1.00
C109   C     0.45632   0.38970   0.83160   0.00000  Uiso   1.00
C110   C     0.36863   0.73077   0.88949   0.00000  Uiso   1.00
C111   C     0.37209   0.78492   0.94137   0.00000  Uiso   1.00
C112   C     0.32501   0.79231   0.97242   0.00000  Uiso   1.00
C113   C     0.39752   0.77121   0.79416   0.00000  Uiso   1.00
C114   C     0.42526   0.85939   0.76591   0.00000  Uiso   1.00
C115   C     0.40249   0.90085   0.71670   0.00000  Uiso   1.00
H116   H     0.28734   0.59489   0.79586   0.00000  Uiso   1.00
H117   H     0.32513   0.38172   0.78806   0.00000  Uiso   1.00
H118   H     0.23504   0.65795   0.88467   0.00000  Uiso   1.00
H119   H     0.28820   0.73240   0.70923   0.00000  Uiso   1.00
H120   H     0.38852   0.16530   0.78833   0.00000  Uiso   1.00
H121   H     0.19856   0.74778   0.99203   0.00000  Uiso   1.00
H122   H     0.31066   0.90478   0.62208   0.00000  Uiso   1.00
H123   H     0.45304   0.74840   0.86439   0.00000  Uiso   1.00
H124   H     0.49993   0.54365   0.86035   0.00000  Uiso   1.00
H125   H     0.40983   0.81988   0.95697   0.00000  Uiso   1.00
H126   H     0.46299   0.89433   0.78153   0.00000  Uiso   1.00
H127   H     0.53039   0.29672   0.84701   0.00000  Uiso   1.00
H128   H     0.34042   0.87921   0.05071   0.00000  Uiso   1.00
H129   H     0.45252   0.03620   0.68076   0.00000  Uiso   1.00
O130   O     0.48730   0.09355   0.81379   0.00000  Uiso   1.00
O131   O     0.23807   0.85775   0.08103   0.00000  Uiso   1.00
O132   O     0.38515   0.06373   0.59566   0.00000  Uiso   1.00
N133   N     0.41548   0.22433   0.80268   0.00000  Uiso   1.00
N134   N     0.23788   0.76890   0.99313   0.00000  Uiso   1.00
N135   N     0.34267   0.91570   0.64727   0.00000  Uiso   1.00
N136   N     0.49182   0.29505   0.83426   0.00000  Uiso   1.00
N137   N     0.31421   0.83962   0.02471   0.00000  Uiso   1.00
N138   N     0.41901   0.98642   0.67884   0.00000  Uiso   1.00
C139   C     0.17469   0.36995   0.81156   0.00000  Uiso   1.00
C140   C     0.13118   0.46447   0.81682   0.00000  Uiso   1.00
C141   C     0.13712   0.58335   0.80366   0.00000  Uiso   1.00
C142   C     0.09253   0.65555   0.81140   0.00000  Uiso   1.00
C143   C     0.03239   0.80921   0.81653   0.00000  Uiso   1.00
C144   C     0.18013   0.31441   0.86932   0.00000  Uiso   1.00
C145   C     0.22723   0.30709   0.90029   0.00000  Uiso   1.00
C146   C     0.22384   0.25295   0.95222   0.00000  Uiso   1.00
C147   C     0.23971   0.17355   0.03883   0.00000  Uiso   1.00
C148   C     0.15125   0.27396   0.77399   0.00000  Uiso   1.00
C149   C     0.17406   0.23262   0.72482   0.00000  Uiso   1.00
C150   C     0.14636   0.14440   0.69650   0.00000  Uiso   1.00
C151   C     0.11738   0.00221   0.63510   0.00000  Uiso   1.00
C152   C     0.08492   0.28678   0.84869   0.00000  Uiso   1.00
C153   C     0.08242   0.41930   0.83699   0.00000  Uiso   1.00
C154   C     0.03780   0.49134   0.84475   0.00000  Uiso   1.00
C155   C     0.04368   0.61030   0.83160   0.00000  Uiso   1.00
C156   C     0.13137   0.26923   0.88949   0.00000  Uiso   1.00
C157   C     0.12791   0.21508   0.94137   0.00000  Uiso   1.00
C158   C     0.17499   0.20769   0.97242   0.00000  Uiso   1.00
C159   C     0.10248   0.22879   0.79416   0.00000  Uiso   1.00
C160   C     0.07474   0.14061   0.76591   0.00000  Uiso   1.00
C161   C     0.09751   0.09915   0.71670   0.00000  Uiso   1.00
H162   H     0.21266   0.40511   0.79586   0.00000  Uiso   1.00
H163   H     0.17487   0.61828   0.78806   0.00000  Uiso   1.00
H164   H     0.26496   0.34205   0.88467   0.00000  Uiso   1.00
H165   H     0.21180   0.26760   0.70923   0.00000  Uiso   1.00
H166   H     0.11148   0.83470   0.78833   0.00000  Uiso   1.00
H167   H     0.30144   0.25222   0.99203   0.00000  Uiso   1.00
H168   H     0.18934   0.09522   0.62208   0.00000  Uiso   1.00
H169   H     0.04696   0.25160   0.86439   0.00000  Uiso   1.00
H170   H     0.00007   0.45635   0.86035   0.00000  Uiso   1.00
H171   H     0.09017   0.18012   0.95697   0.00000  Uiso   1.00
H172   H     0.03701   0.10567   0.78153   0.00000  Uiso   1.00
H173   H     0.96961   0.70328   0.84701   0.00000  Uiso   1.00
H174   H     0.15958   0.12079   0.05071   0.00000  Uiso   1.00
H175   H     0.04748   0.96380   0.68076   0.00000  Uiso   1.00
O176   O     0.01270   0.90645   0.81379   0.00000  Uiso   1.00
O177   O     0.26193   0.14225   0.08103   0.00000  Uiso   1.00
O178   O     0.11485   0.93627   0.59566   0.00000  Uiso   1.00
N179   N     0.08452   0.77567   0.80268   0.00000  Uiso   1.00
N180   N     0.26212   0.23110   0.99313   0.00000  Uiso   1.00
N181   N     0.15733   0.08430   0.64727   0.00000  Uiso   1.00
N182   N     0.00818   0.70495   0.83426   0.00000  Uiso   1.00
N183   N     0.18579   0.16038   0.02471   0.00000  Uiso   1.00
N184   N     0.08099   0.01358   0.67884   0.00000  Uiso   1.00
C185   C     0.32531   0.36995   0.31156   0.00000  Uiso   1.00
C186   C     0.36882   0.46447   0.31682   0.00000  Uiso   1.00
C187   C     0.36288   0.58335   0.30366   0.00000  Uiso   1.00
C188   C     0.40747   0.65555   0.31140   0.00000  Uiso   1.00
C189   C     0.46761   0.80921   0.31653   0.00000  Uiso   1.00
C190   C     0.31987   0.31441   0.36932   0.00000  Uiso   1.00
C191   C     0.27277   0.30709   0.40029   0.00000  Uiso   1.00
C192   C     0.27616   0.25295   0.45222   0.00000  Uiso   1.00
C193   C     0.26029   0.17355   0.53883   0.00000  Uiso   1.00
C194   C     0.34875   0.27396   0.27399   0.00000  Uiso   1.00
C195   C     0.32594   0.23262   0.22482   0.00000  Uiso   1.00
C196   C     0.35364   0.14440   0.19650   0.00000  Uiso   1.00
C197   C     0.38262   0.00221   0.13510   0.00000  Uiso   1.00
C198   C     0.41508   0.28678   0.34869   0.00000  Uiso   1.00
C199   C     0.41758   0.41930   0.33699   0.00000  Uiso   1.00
C200   C     0.46220   0.49134   0.34475   0.00000  Uiso   1.00
C201   C     0.45632   0.61030   0.33160   0.00000  Uiso   1.00
C202   C     0.36863   0.26923   0.38949   0.00000  Uiso   1.00
C203   C     0.37209   0.21508   0.44137   0.00000  Uiso   1.00
C204   C     0.32501   0.20769   0.47242   0.00000  Uiso   1.00
C205   C     0.39752   0.22879   0.29416   0.00000  Uiso   1.00
C206   C     0.42526   0.14061   0.26591   0.00000  Uiso   1.00
C207   C     0.40249   0.09915   0.21670   0.00000  Uiso   1.00
H208   H     0.28734   0.40511   0.29586   0.00000  Uiso   1.00
H209   H     0.32513   0.61828   0.28806   0.00000  Uiso   1.00
H210   H     0.23504   0.34205   0.38467   0.00000  Uiso   1.00
H211   H     0.28820   0.26760   0.20923   0.00000  Uiso   1.00
H212   H     0.38852   0.83470   0.28833   0.00000  Uiso   1.00
H213   H     0.19856   0.25222   0.49203   0.00000  Uiso   1.00
H214   H     0.31066   0.09522   0.12208   0.00000  Uiso   1.00
H215   H     0.45304   0.25160   0.36439   0.00000  Uiso   1.00
H216   H     0.49993   0.45635   0.36035   0.00000  Uiso   1.00
H217   H     0.40983   0.18012   0.45697   0.00000  Uiso   1.00
H218   H     0.46299   0.10567   0.28153   0.00000  Uiso   1.00
H219   H     0.53039   0.70328   0.34701   0.00000  Uiso   1.00
H220   H     0.34042   0.12079   0.55071   0.00000  Uiso   1.00
H221   H     0.45252   0.96380   0.18076   0.00000  Uiso   1.00
O222   O     0.48730   0.90645   0.31379   0.00000  Uiso   1.00
O223   O     0.23807   0.14225   0.58103   0.00000  Uiso   1.00
O224   O     0.38515   0.93627   0.09566   0.00000  Uiso   1.00
N225   N     0.41548   0.77567   0.30268   0.00000  Uiso   1.00
N226   N     0.23788   0.23110   0.49313   0.00000  Uiso   1.00
N227   N     0.34267   0.08430   0.14727   0.00000  Uiso   1.00
N228   N     0.49182   0.70495   0.33426   0.00000  Uiso   1.00
N229   N     0.31421   0.16038   0.52471   0.00000  Uiso   1.00
N230   N     0.41901   0.01358   0.17884   0.00000  Uiso   1.00
C231   C     0.17469   0.63005   0.31156   0.00000  Uiso   1.00
C232   C     0.13118   0.53553   0.31682   0.00000  Uiso   1.00
C233   C     0.13712   0.41665   0.30366   0.00000  Uiso   1.00
C234   C     0.09253   0.34445   0.31140   0.00000  Uiso   1.00
C235   C     0.03239   0.19079   0.31653   0.00000  Uiso   1.00
C236   C     0.18013   0.68559   0.36932   0.00000  Uiso   1.00
C237   C     0.22723   0.69291   0.40029   0.00000  Uiso   1.00
C238   C     0.22384   0.74705   0.45222   0.00000  Uiso   1.00
C239   C     0.23971   0.82645   0.53883   0.00000  Uiso   1.00
C240   C     0.15125   0.72604   0.27399   0.00000  Uiso   1.00
C241   C     0.17406   0.76738   0.22482   0.00000  Uiso   1.00
C242   C     0.14636   0.85560   0.19650   0.00000  Uiso   1.00
C243   C     0.11738   0.99779   0.13510   0.00000  Uiso   1.00
C244   C     0.08492   0.71322   0.34869   0.00000  Uiso   1.00
C245   C     0.08242   0.58070   0.33699   0.00000  Uiso   1.00
C246   C     0.03780   0.50866   0.34475   0.00000  Uiso   1.00
C247   C     0.04368   0.38970   0.33160   0.00000  Uiso   1.00
C248   C     0.13137   0.73077   0.38949   0.00000  Uiso   1.00
C249   C     0.12791   0.78492   0.44137   0.00000  Uiso   1.00
C250   C     0.17499   0.79231   0.47242   0.00000  Uiso   1.00
C251   C     0.10248   0.77121   0.29416   0.00000  Uiso   1.00
C252   C     0.07474   0.85939   0.26591   0.00000  Uiso   1.00
C253   C     0.09751   0.90085   0.21670   0.00000  Uiso   1.00
H254   H     0.21266   0.59489   0.29586   0.00000  Uiso   1.00
H255   H     0.17487   0.38172   0.28806   0.00000  Uiso   1.00
H256   H     0.26496   0.65795   0.38467   0.00000  Uiso   1.00
H257   H     0.21180   0.73240   0.20923   0.00000  Uiso   1.00
H258   H     0.11148   0.16530   0.28833   0.00000  Uiso   1.00
H259   H     0.30144   0.74778   0.49203   0.00000  Uiso   1.00
H260   H     0.18934   0.90478   0.12208   0.00000  Uiso   1.00
H261   H     0.04696   0.74840   0.36439   0.00000  Uiso   1.00
H262   H     0.00007   0.54365   0.36035   0.00000  Uiso   1.00
H263   H     0.09017   0.81988   0.45697   0.00000  Uiso   1.00
H264   H     0.03701   0.89433   0.28153   0.00000  Uiso   1.00
H265   H     0.96961   0.29672   0.34701   0.00000  Uiso   1.00
H266   H     0.15958   0.87921   0.55071   0.00000  Uiso   1.00
H267   H     0.04748   0.03620   0.18076   0.00000  Uiso   1.00
O268   O     0.01270   0.09355   0.31379   0.00000  Uiso   1.00
O269   O     0.26193   0.85775   0.58103   0.00000  Uiso   1.00
O270   O     0.11485   0.06373   0.09566   0.00000  Uiso   1.00
N271   N     0.08452   0.22433   0.30268   0.00000  Uiso   1.00
N272   N     0.26212   0.76890   0.49313   0.00000  Uiso   1.00
N273   N     0.15733   0.91570   0.14727   0.00000  Uiso   1.00
N274   N     0.00818   0.29505   0.33426   0.00000  Uiso   1.00
N275   N     0.18579   0.83962   0.52471   0.00000  Uiso   1.00
N276   N     0.08099   0.98642   0.17884   0.00000  Uiso   1.00
C277   C     0.67469   0.36995   0.18844   0.00000  Uiso   1.00
C278   C     0.63118   0.46447   0.18318   0.00000  Uiso   1.00
C279   C     0.63712   0.58335   0.19634   0.00000  Uiso   1.00
C280   C     0.59253   0.65555   0.18860   0.00000  Uiso   1.00
C281   C     0.53239   0.80921   0.18347   0.00000  Uiso   1.00
C282   C     0.68013   0.31441   0.13068   0.00000  Uiso   1.00
C283   C     0.72723   0.30709   0.09971   0.00000  Uiso   1.00
C284   C     0.72384   0.25295   0.04778   0.00000  Uiso   1.00
C285   C     0.73971   0.17355   0.96117   0.00000  Uiso   1.00
C286   C     0.65125   0.27396   0.22601   0.00000  Uiso   1.00
C287   C     0.67406   0.23262   0.27518   0.00000  Uiso   1.00
C288   C     0.64636   0.14440   0.30350   0.00000  Uiso   1.00
C289   C     0.61738   0.00221   0.36490   0.00000  Uiso   1.00
C290   C     0.58492   0.28678   0.15131   0.00000  Uiso   1.00
C291   C     0.58242   0.41930   0.16301   0.00000  Uiso   1.00
C292   C     0.53780   0.49134   0.15525   0.00000  Uiso   1.00
C293   C     0.54368   0.61030   0.16840   0.00000  Uiso   1.00
C294   C     0.63137   0.26923   0.11051   0.00000  Uiso   1.00
C295   C     0.62791   0.21508   0.05863   0.00000  Uiso   1.00
C296   C     0.67499   0.20769   0.02758   0.00000  Uiso   1.00
C297   C     0.60248   0.22879   0.20584   0.00000  Uiso   1.00
C298   C     0.57474   0.14061   0.23409   0.00000  Uiso   1.00
C299   C     0.59751   0.09915   0.28330   0.00000  Uiso   1.00
H300   H     0.71266   0.40511   0.20414   0.00000  Uiso   1.00
H301   H     0.67487   0.61828   0.21194   0.00000  Uiso   1.00
H302   H     0.76496   0.34205   0.11533   0.00000  Uiso   1.00
H303   H     0.71180   0.26760   0.29077   0.00000  Uiso   1.00
H304   H     0.61148   0.83470   0.21167   0.00000  Uiso   1.00
H305   H     0.80144   0.25222   0.00797   0.00000  Uiso   1.00
H306   H     0.68934   0.09522   0.37792   0.00000  Uiso   1.00
H307   H     0.54696   0.25160   0.13561   0.00000  Uiso   1.00
H308   H     0.50007   0.45635   0.13965   0.00000  Uiso   1.00
H309   H     0.59017   0.18012   0.04303   0.00000  Uiso   1.00
H310   H     0.53701   0.10567   0.21847   0.00000  Uiso   1.00
H311   H     0.46961   0.70328   0.15299   0.00000  Uiso   1.00
H312   H     0.65958   0.12079   0.94929   0.00000  Uiso   1.00
H313   H     0.54748   0.96380   0.31924   0.00000  Uiso   1.00
O314   O     0.51270   0.90645   0.18621   0.00000  Uiso   1.00
O315   O     0.76193   0.14225   0.91897   0.00000  Uiso   1.00
O316   O     0.61485   0.93627   0.40434   0.00000  Uiso   1.00
N317   N     0.58452   0.77567   0.19732   0.00000  Uiso   1.00
N318   N     0.76212   0.23110   0.00687   0.00000  Uiso   1.00
N319   N     0.65733   0.08430   0.35273   0.00000  Uiso   1.00
N320   N     0.50818   0.70495   0.16574   0.00000  Uiso   1.00
N321   N     0.68579   0.16038   0.97529   0.00000  Uiso   1.00
N322   N     0.58099   0.01358   0.32116   0.00000  Uiso   1.00
C323   C     0.82531   0.63005   0.18844   0.00000  Uiso   1.00
C324   C     0.86882   0.53553   0.18318   0.00000  Uiso   1.00
C325   C     0.86288   0.41665   0.19634   0.00000  Uiso   1.00
C326   C     0.90747   0.34445   0.18860   0.00000  Uiso   1.00
C327   C     0.96761   0.19079   0.18347   0.00000  Uiso   1.00
C328   C     0.81987   0.68559   0.13068   0.00000  Uiso   1.00
C329   C     0.77277   0.69291   0.09971   0.00000  Uiso   1.00
C330   C     0.77616   0.74705   0.04778   0.00000  Uiso   1.00
C331   C     0.76029   0.82645   0.96117   0.00000  Uiso   1.00
C332   C     0.84875   0.72604   0.22601   0.00000  Uiso   1.00
C333   C     0.82594   0.76738   0.27518   0.00000  Uiso   1.00
C334   C     0.85364   0.85560   0.30350   0.00000  Uiso   1.00
C335   C     0.88262   0.99779   0.36490   0.00000  Uiso   1.00
C336   C     0.91508   0.71322   0.15131   0.00000  Uiso   1.00
C337   C     0.91758   0.58070   0.16301   0.00000  Uiso   1.00
C338   C     0.96220   0.50866   0.15525   0.00000  Uiso   1.00
C339   C     0.95632   0.38970   0.16840   0.00000  Uiso   1.00
C340   C     0.86863   0.73077   0.11051   0.00000  Uiso   1.00
C341   C     0.87209   0.78492   0.05863   0.00000  Uiso   1.00
C342   C     0.82501   0.79231   0.02758   0.00000  Uiso   1.00
C343   C     0.89752   0.77121   0.20584   0.00000  Uiso   1.00
C344   C     0.92526   0.85939   0.23409   0.00000  Uiso   1.00
C345   C     0.90249   0.90085   0.28330   0.00000  Uiso   1.00
H346   H     0.78734   0.59489   0.20414   0.00000  Uiso   1.00
H347   H     0.82513   0.38172   0.21194   0.00000  Uiso   1.00
H348   H     0.73504   0.65795   0.11533   0.00000  Uiso   1.00
H349   H     0.78820   0.73240   0.29077   0.00000  Uiso   1.00
H350   H     0.88852   0.16530   0.21167   0.00000  Uiso   1.00
H351   H     0.69856   0.74778   0.00797   0.00000  Uiso   1.00
H352   H     0.81066   0.90478   0.37792   0.00000  Uiso   1.00
H353   H     0.95304   0.74840   0.13561   0.00000  Uiso   1.00
H354   H     0.99993   0.54365   0.13965   0.00000  Uiso   1.00
H355   H     0.90983   0.81988   0.04303   0.00000  Uiso   1.00
H356   H     0.96299   0.89433   0.21847   0.00000  Uiso   1.00
H357   H     0.03039   0.29672   0.15299   0.00000  Uiso   1.00
H358   H     0.84042   0.87921   0.94929   0.00000  Uiso   1.00
H359   H     0.95252   0.03620   0.31924   0.00000  Uiso   1.00
O360   O     0.98730   0.09355   0.18621   0.00000  Uiso   1.00
O361   O     0.73807   0.85775   0.91897   0.00000  Uiso   1.00
O362   O     0.88515   0.06373   0.40434   0.00000  Uiso   1.00
N363   N     0.91548   0.22433   0.19732   0.00000  Uiso   1.00
N364   N     0.73788   0.76890   0.00687   0.00000  Uiso   1.00
N365   N     0.84267   0.91570   0.35273   0.00000  Uiso   1.00
N366   N     0.99182   0.29505   0.16574   0.00000  Uiso   1.00
N367   N     0.81421   0.83962   0.97529   0.00000  Uiso   1.00
N368   N     0.91901   0.98642   0.32116   0.00000  Uiso   1.00
