data_job_01375
_audit_creation_date              2018-12-19
_audit_creation_method            'Materials Studio'
_symmetry_space_group_name_H-M    'P1'
_symmetry_Int_Tables_number       1
_symmetry_cell_setting            triclinic
loop_
_symmetry_equiv_pos_as_xyz
  x,y,z
_cell_length_a                    21.1531
_cell_length_b                    21.1531
_cell_length_c                    10.4058
_cell_angle_alpha                 90.0000
_cell_angle_beta                  90.0000
_cell_angle_gamma                 90.0000
loop_
_atom_site_label
_atom_site_type_symbol
_atom_site_fract_x
_atom_site_fract_y
_atom_site_fract_z
_atom_site_U_iso_or_equiv
_atom_site_adp_type
_atom_site_occupancy
C1     C     0.55760   0.75861   0.08587   0.00000  Uiso   1.00
C2     C     0.60630   0.72812   0.17438   0.00000  Uiso   1.00
C3     C     0.59891   0.71757   0.30514   0.00000  Uiso   1.00
C4     C     0.64898   0.68908   0.36909   0.00000  Uiso   1.00
C5     C     0.71618   0.64440   0.51636   0.00000  Uiso   1.00
C6     C     0.59075   0.81477   0.02342   0.00000  Uiso   1.00
C7     C     0.57028   0.87708   0.02725   0.00000  Uiso   1.00
C8     C     0.60725   0.92153   0.96410   0.00000  Uiso   1.00
C9     C     0.65029   0.01136   0.87692   0.00000  Uiso   1.00
C10    C     0.54569   0.71113   0.97830   0.00000  Uiso   1.00
C11    C     0.48733   0.68631   0.94417   0.00000  Uiso   1.00
C12    C     0.48637   0.64351   0.84301   0.00000  Uiso   1.00
C13    C     0.45944   0.57243   0.68578   0.00000  Uiso   1.00
C14    C     0.65967   0.72677   0.96690   0.00000  Uiso   1.00
C15    C     0.66174   0.71083   0.10975   0.00000  Uiso   1.00
C16    C     0.71183   0.68235   0.17351   0.00000  Uiso   1.00
C17    C     0.70451   0.67176   0.30436   0.00000  Uiso   1.00
C18    C     0.64619   0.79748   0.95880   0.00000  Uiso   1.00
C19    C     0.68320   0.84185   0.89562   0.00000  Uiso   1.00
C20    C     0.66279   0.90421   0.89936   0.00000  Uiso   1.00
C21    C     0.60113   0.69384   0.91368   0.00000  Uiso   1.00
C22    C     0.60026   0.65108   0.81254   0.00000  Uiso   1.00
C23    C     0.54191   0.62619   0.77827   0.00000  Uiso   1.00
H24    H     0.51444   0.77208   0.13618   0.00000  Uiso   1.00
H25    H     0.55600   0.73097   0.35512   0.00000  Uiso   1.00
H26    H     0.52737   0.89044   0.07726   0.00000  Uiso   1.00
H27    H     0.44444   0.69970   0.99420   0.00000  Uiso   1.00
H28    H     0.62653   0.67778   0.56937   0.00000  Uiso   1.00
H29    H     0.56616   0.01404   0.98344   0.00000  Uiso   1.00
H30    H     0.39128   0.61182   0.80828   0.00000  Uiso   1.00
H31    H     0.70283   0.71331   0.91658   0.00000  Uiso   1.00
H32    H     0.75473   0.66897   0.12348   0.00000  Uiso   1.00
H33    H     0.72610   0.82845   0.84562   0.00000  Uiso   1.00
H34    H     0.64317   0.63771   0.76256   0.00000  Uiso   1.00
H35    H     0.78783   0.62747   0.38136   0.00000  Uiso   1.00
H36    H     0.72745   0.96373   0.79543   0.00000  Uiso   1.00
H37    H     0.55257   0.56151   0.62028   0.00000  Uiso   1.00
O38    O     0.73793   0.62454   0.61544   0.00000  Uiso   1.00
O39    O     0.65871   0.06570   0.84670   0.00000  Uiso   1.00
O40    O     0.42928   0.53799   0.61691   0.00000  Uiso   1.00
N41    N     0.65737   0.67201   0.49672   0.00000  Uiso   1.00
N42    N     0.60092   0.98640   0.94893   0.00000  Uiso   1.00
N43    N     0.43742   0.61037   0.78515   0.00000  Uiso   1.00
N44    N     0.74416   0.64494   0.39556   0.00000  Uiso   1.00
N45    N     0.68772   0.95932   0.84777   0.00000  Uiso   1.00
N46    N     0.52422   0.58330   0.68399   0.00000  Uiso   1.00
C47    C     0.44240   0.24139   0.08587   0.00000  Uiso   1.00
C48    C     0.39370   0.27188   0.17438   0.00000  Uiso   1.00
C49    C     0.40109   0.28243   0.30514   0.00000  Uiso   1.00
C50    C     0.35102   0.31092   0.36909   0.00000  Uiso   1.00
C51    C     0.28382   0.35560   0.51636   0.00000  Uiso   1.00
C52    C     0.40925   0.18523   0.02342   0.00000  Uiso   1.00
C53    C     0.42972   0.12292   0.02725   0.00000  Uiso   1.00
C54    C     0.39275   0.07847   0.96410   0.00000  Uiso   1.00
C55    C     0.34971   0.98864   0.87692   0.00000  Uiso   1.00
C56    C     0.45431   0.28887   0.97830   0.00000  Uiso   1.00
C57    C     0.51267   0.31369   0.94417   0.00000  Uiso   1.00
C58    C     0.51363   0.35649   0.84301   0.00000  Uiso   1.00
C59    C     0.54056   0.42757   0.68578   0.00000  Uiso   1.00
C60    C     0.34033   0.27323   0.96690   0.00000  Uiso   1.00
C61    C     0.33826   0.28917   0.10975   0.00000  Uiso   1.00
C62    C     0.28817   0.31765   0.17351   0.00000  Uiso   1.00
C63    C     0.29549   0.32824   0.30436   0.00000  Uiso   1.00
C64    C     0.35381   0.20252   0.95880   0.00000  Uiso   1.00
C65    C     0.31680   0.15815   0.89562   0.00000  Uiso   1.00
C66    C     0.33721   0.09579   0.89936   0.00000  Uiso   1.00
C67    C     0.39887   0.30616   0.91368   0.00000  Uiso   1.00
C68    C     0.39974   0.34892   0.81254   0.00000  Uiso   1.00
C69    C     0.45809   0.37381   0.77827   0.00000  Uiso   1.00
H70    H     0.48556   0.22792   0.13618   0.00000  Uiso   1.00
H71    H     0.44400   0.26903   0.35512   0.00000  Uiso   1.00
H72    H     0.47263   0.10956   0.07726   0.00000  Uiso   1.00
H73    H     0.55556   0.30030   0.99420   0.00000  Uiso   1.00
H74    H     0.37347   0.32222   0.56937   0.00000  Uiso   1.00
H75    H     0.43384   0.98596   0.98344   0.00000  Uiso   1.00
H76    H     0.60872   0.38818   0.80828   0.00000  Uiso   1.00
H77    H     0.29717   0.28669   0.91658   0.00000  Uiso   1.00
H78    H     0.24527   0.33103   0.12348   0.00000  Uiso   1.00
H79    H     0.27390   0.17155   0.84562   0.00000  Uiso   1.00
H80    H     0.35683   0.36229   0.76256   0.00000  Uiso   1.00
H81    H     0.21217   0.37253   0.38136   0.00000  Uiso   1.00
H82    H     0.27255   0.03627   0.79543   0.00000  Uiso   1.00
H83    H     0.44743   0.43849   0.62028   0.00000  Uiso   1.00
O84    O     0.26207   0.37546   0.61544   0.00000  Uiso   1.00
O85    O     0.34129   0.93430   0.84670   0.00000  Uiso   1.00
O86    O     0.57072   0.46201   0.61691   0.00000  Uiso   1.00
N87    N     0.34263   0.32799   0.49672   0.00000  Uiso   1.00
N88    N     0.39908   0.01360   0.94893   0.00000  Uiso   1.00
N89    N     0.56258   0.38963   0.78515   0.00000  Uiso   1.00
N90    N     0.25584   0.35506   0.39556   0.00000  Uiso   1.00
N91    N     0.31228   0.04068   0.84777   0.00000  Uiso   1.00
N92    N     0.47578   0.41670   0.68399   0.00000  Uiso   1.00
C93    C     0.75861   0.44240   0.91413   0.00000  Uiso   1.00
C94    C     0.72812   0.39370   0.82562   0.00000  Uiso   1.00
C95    C     0.71757   0.40109   0.69486   0.00000  Uiso   1.00
C96    C     0.68908   0.35102   0.63091   0.00000  Uiso   1.00
C97    C     0.64440   0.28382   0.48364   0.00000  Uiso   1.00
C98    C     0.81477   0.40925   0.97658   0.00000  Uiso   1.00
C99    C     0.87708   0.42972   0.97275   0.00000  Uiso   1.00
C100   C     0.92153   0.39275   0.03590   0.00000  Uiso   1.00
C101   C     0.01136   0.34971   0.12308   0.00000  Uiso   1.00
C102   C     0.71113   0.45431   0.02170   0.00000  Uiso   1.00
C103   C     0.68631   0.51267   0.05583   0.00000  Uiso   1.00
C104   C     0.64351   0.51363   0.15699   0.00000  Uiso   1.00
C105   C     0.57243   0.54056   0.31422   0.00000  Uiso   1.00
C106   C     0.72677   0.34033   0.03310   0.00000  Uiso   1.00
C107   C     0.71083   0.33826   0.89025   0.00000  Uiso   1.00
C108   C     0.68235   0.28817   0.82649   0.00000  Uiso   1.00
C109   C     0.67176   0.29549   0.69564   0.00000  Uiso   1.00
C110   C     0.79748   0.35381   0.04120   0.00000  Uiso   1.00
C111   C     0.84185   0.31680   0.10438   0.00000  Uiso   1.00
C112   C     0.90421   0.33721   0.10064   0.00000  Uiso   1.00
C113   C     0.69384   0.39887   0.08632   0.00000  Uiso   1.00
C114   C     0.65108   0.39974   0.18746   0.00000  Uiso   1.00
C115   C     0.62619   0.45809   0.22173   0.00000  Uiso   1.00
H116   H     0.77208   0.48556   0.86382   0.00000  Uiso   1.00
H117   H     0.73097   0.44400   0.64488   0.00000  Uiso   1.00
H118   H     0.89044   0.47263   0.92274   0.00000  Uiso   1.00
H119   H     0.69970   0.55556   0.00580   0.00000  Uiso   1.00
H120   H     0.67778   0.37347   0.43063   0.00000  Uiso   1.00
H121   H     0.01404   0.43384   0.01656   0.00000  Uiso   1.00
H122   H     0.61182   0.60872   0.19172   0.00000  Uiso   1.00
H123   H     0.71331   0.29717   0.08342   0.00000  Uiso   1.00
H124   H     0.66897   0.24527   0.87652   0.00000  Uiso   1.00
H125   H     0.82845   0.27390   0.15438   0.00000  Uiso   1.00
H126   H     0.63771   0.35683   0.23744   0.00000  Uiso   1.00
H127   H     0.62747   0.21217   0.61864   0.00000  Uiso   1.00
H128   H     0.96373   0.27255   0.20457   0.00000  Uiso   1.00
H129   H     0.56151   0.44743   0.37972   0.00000  Uiso   1.00
O130   O     0.62454   0.26207   0.38456   0.00000  Uiso   1.00
O131   O     0.06570   0.34129   0.15330   0.00000  Uiso   1.00
O132   O     0.53799   0.57072   0.38309   0.00000  Uiso   1.00
N133   N     0.67201   0.34263   0.50328   0.00000  Uiso   1.00
N134   N     0.98640   0.39908   0.05107   0.00000  Uiso   1.00
N135   N     0.61037   0.56258   0.21485   0.00000  Uiso   1.00
N136   N     0.64494   0.25584   0.60444   0.00000  Uiso   1.00
N137   N     0.95932   0.31228   0.15223   0.00000  Uiso   1.00
N138   N     0.58330   0.47578   0.31601   0.00000  Uiso   1.00
C139   C     0.24139   0.55760   0.91413   0.00000  Uiso   1.00
C140   C     0.27188   0.60630   0.82562   0.00000  Uiso   1.00
C141   C     0.28243   0.59891   0.69486   0.00000  Uiso   1.00
C142   C     0.31092   0.64898   0.63091   0.00000  Uiso   1.00
C143   C     0.35560   0.71618   0.48364   0.00000  Uiso   1.00
C144   C     0.18523   0.59075   0.97658   0.00000  Uiso   1.00
C145   C     0.12292   0.57028   0.97275   0.00000  Uiso   1.00
C146   C     0.07847   0.60725   0.03590   0.00000  Uiso   1.00
C147   C     0.98864   0.65029   0.12308   0.00000  Uiso   1.00
C148   C     0.28887   0.54569   0.02170   0.00000  Uiso   1.00
C149   C     0.31369   0.48733   0.05583   0.00000  Uiso   1.00
C150   C     0.35649   0.48637   0.15699   0.00000  Uiso   1.00
C151   C     0.42757   0.45944   0.31422   0.00000  Uiso   1.00
C152   C     0.27323   0.65967   0.03310   0.00000  Uiso   1.00
C153   C     0.28917   0.66174   0.89025   0.00000  Uiso   1.00
C154   C     0.31765   0.71183   0.82649   0.00000  Uiso   1.00
C155   C     0.32824   0.70451   0.69564   0.00000  Uiso   1.00
C156   C     0.20252   0.64619   0.04120   0.00000  Uiso   1.00
C157   C     0.15815   0.68320   0.10438   0.00000  Uiso   1.00
C158   C     0.09579   0.66279   0.10064   0.00000  Uiso   1.00
C159   C     0.30616   0.60113   0.08632   0.00000  Uiso   1.00
C160   C     0.34892   0.60026   0.18746   0.00000  Uiso   1.00
C161   C     0.37381   0.54191   0.22173   0.00000  Uiso   1.00
H162   H     0.22792   0.51444   0.86382   0.00000  Uiso   1.00
H163   H     0.26903   0.55600   0.64488   0.00000  Uiso   1.00
H164   H     0.10956   0.52737   0.92274   0.00000  Uiso   1.00
H165   H     0.30030   0.44444   0.00580   0.00000  Uiso   1.00
H166   H     0.32222   0.62653   0.43063   0.00000  Uiso   1.00
H167   H     0.98596   0.56616   0.01656   0.00000  Uiso   1.00
H168   H     0.38818   0.39128   0.19172   0.00000  Uiso   1.00
H169   H     0.28669   0.70283   0.08342   0.00000  Uiso   1.00
H170   H     0.33103   0.75473   0.87652   0.00000  Uiso   1.00
H171   H     0.17155   0.72610   0.15438   0.00000  Uiso   1.00
H172   H     0.36229   0.64317   0.23744   0.00000  Uiso   1.00
H173   H     0.37253   0.78783   0.61864   0.00000  Uiso   1.00
H174   H     0.03627   0.72745   0.20457   0.00000  Uiso   1.00
H175   H     0.43849   0.55257   0.37972   0.00000  Uiso   1.00
O176   O     0.37546   0.73793   0.38456   0.00000  Uiso   1.00
O177   O     0.93430   0.65871   0.15330   0.00000  Uiso   1.00
O178   O     0.46201   0.42928   0.38309   0.00000  Uiso   1.00
N179   N     0.32799   0.65737   0.50328   0.00000  Uiso   1.00
N180   N     0.01360   0.60092   0.05107   0.00000  Uiso   1.00
N181   N     0.38963   0.43742   0.21485   0.00000  Uiso   1.00
N182   N     0.35506   0.74416   0.60444   0.00000  Uiso   1.00
N183   N     0.04068   0.68772   0.15223   0.00000  Uiso   1.00
N184   N     0.41670   0.52422   0.31601   0.00000  Uiso   1.00
C185   C     0.05760   0.74139   0.58587   0.00000  Uiso   1.00
C186   C     0.10630   0.77188   0.67438   0.00000  Uiso   1.00
C187   C     0.09891   0.78243   0.80514   0.00000  Uiso   1.00
C188   C     0.14898   0.81092   0.86909   0.00000  Uiso   1.00
C189   C     0.21618   0.85560   0.01636   0.00000  Uiso   1.00
C190   C     0.09075   0.68523   0.52342   0.00000  Uiso   1.00
C191   C     0.07028   0.62292   0.52725   0.00000  Uiso   1.00
C192   C     0.10725   0.57847   0.46410   0.00000  Uiso   1.00
C193   C     0.15029   0.48864   0.37692   0.00000  Uiso   1.00
C194   C     0.04569   0.78887   0.47830   0.00000  Uiso   1.00
C195   C     0.98733   0.81369   0.44417   0.00000  Uiso   1.00
C196   C     0.98637   0.85649   0.34301   0.00000  Uiso   1.00
C197   C     0.95944   0.92757   0.18578   0.00000  Uiso   1.00
C198   C     0.15967   0.77323   0.46690   0.00000  Uiso   1.00
C199   C     0.16174   0.78917   0.60975   0.00000  Uiso   1.00
C200   C     0.21183   0.81765   0.67351   0.00000  Uiso   1.00
C201   C     0.20451   0.82824   0.80436   0.00000  Uiso   1.00
C202   C     0.14619   0.70252   0.45880   0.00000  Uiso   1.00
C203   C     0.18320   0.65815   0.39562   0.00000  Uiso   1.00
C204   C     0.16279   0.59579   0.39936   0.00000  Uiso   1.00
C205   C     0.10113   0.80616   0.41368   0.00000  Uiso   1.00
C206   C     0.10026   0.84892   0.31254   0.00000  Uiso   1.00
C207   C     0.04191   0.87381   0.27827   0.00000  Uiso   1.00
H208   H     0.01444   0.72792   0.63618   0.00000  Uiso   1.00
H209   H     0.05600   0.76903   0.85512   0.00000  Uiso   1.00
H210   H     0.02737   0.60956   0.57726   0.00000  Uiso   1.00
H211   H     0.94444   0.80030   0.49420   0.00000  Uiso   1.00
H212   H     0.12653   0.82222   0.06937   0.00000  Uiso   1.00
H213   H     0.06616   0.48596   0.48344   0.00000  Uiso   1.00
H214   H     0.89128   0.88818   0.30828   0.00000  Uiso   1.00
H215   H     0.20283   0.78669   0.41658   0.00000  Uiso   1.00
H216   H     0.25473   0.83103   0.62348   0.00000  Uiso   1.00
H217   H     0.22610   0.67155   0.34562   0.00000  Uiso   1.00
H218   H     0.14317   0.86229   0.26256   0.00000  Uiso   1.00
H219   H     0.28783   0.87253   0.88136   0.00000  Uiso   1.00
H220   H     0.22745   0.53627   0.29543   0.00000  Uiso   1.00
H221   H     0.05257   0.93849   0.12028   0.00000  Uiso   1.00
O222   O     0.23793   0.87546   0.11544   0.00000  Uiso   1.00
O223   O     0.15871   0.43430   0.34670   0.00000  Uiso   1.00
O224   O     0.92928   0.96201   0.11691   0.00000  Uiso   1.00
N225   N     0.15737   0.82799   0.99672   0.00000  Uiso   1.00
N226   N     0.10092   0.51360   0.44893   0.00000  Uiso   1.00
N227   N     0.93742   0.88963   0.28515   0.00000  Uiso   1.00
N228   N     0.24416   0.85506   0.89556   0.00000  Uiso   1.00
N229   N     0.18772   0.54068   0.34777   0.00000  Uiso   1.00
N230   N     0.02422   0.91670   0.18399   0.00000  Uiso   1.00
C231   C     0.94240   0.25861   0.58587   0.00000  Uiso   1.00
C232   C     0.89370   0.22812   0.67438   0.00000  Uiso   1.00
C233   C     0.90109   0.21757   0.80514   0.00000  Uiso   1.00
C234   C     0.85102   0.18908   0.86909   0.00000  Uiso   1.00
C235   C     0.78382   0.14440   0.01636   0.00000  Uiso   1.00
C236   C     0.90925   0.31477   0.52342   0.00000  Uiso   1.00
C237   C     0.92972   0.37708   0.52725   0.00000  Uiso   1.00
C238   C     0.89275   0.42153   0.46410   0.00000  Uiso   1.00
C239   C     0.84971   0.51136   0.37692   0.00000  Uiso   1.00
C240   C     0.95431   0.21113   0.47830   0.00000  Uiso   1.00
C241   C     0.01267   0.18631   0.44417   0.00000  Uiso   1.00
C242   C     0.01363   0.14351   0.34301   0.00000  Uiso   1.00
C243   C     0.04056   0.07243   0.18578   0.00000  Uiso   1.00
C244   C     0.84033   0.22677   0.46690   0.00000  Uiso   1.00
C245   C     0.83826   0.21083   0.60975   0.00000  Uiso   1.00
C246   C     0.78817   0.18235   0.67351   0.00000  Uiso   1.00
C247   C     0.79549   0.17176   0.80436   0.00000  Uiso   1.00
C248   C     0.85381   0.29748   0.45880   0.00000  Uiso   1.00
C249   C     0.81680   0.34185   0.39562   0.00000  Uiso   1.00
C250   C     0.83721   0.40421   0.39936   0.00000  Uiso   1.00
C251   C     0.89887   0.19384   0.41368   0.00000  Uiso   1.00
C252   C     0.89974   0.15108   0.31254   0.00000  Uiso   1.00
C253   C     0.95809   0.12619   0.27827   0.00000  Uiso   1.00
H254   H     0.98556   0.27208   0.63618   0.00000  Uiso   1.00
H255   H     0.94400   0.23097   0.85512   0.00000  Uiso   1.00
H256   H     0.97263   0.39044   0.57726   0.00000  Uiso   1.00
H257   H     0.05556   0.19970   0.49420   0.00000  Uiso   1.00
H258   H     0.87347   0.17778   0.06937   0.00000  Uiso   1.00
H259   H     0.93384   0.51404   0.48344   0.00000  Uiso   1.00
H260   H     0.10872   0.11182   0.30828   0.00000  Uiso   1.00
H261   H     0.79717   0.21331   0.41658   0.00000  Uiso   1.00
H262   H     0.74527   0.16897   0.62348   0.00000  Uiso   1.00
H263   H     0.77390   0.32845   0.34562   0.00000  Uiso   1.00
H264   H     0.85683   0.13771   0.26256   0.00000  Uiso   1.00
H265   H     0.71217   0.12747   0.88136   0.00000  Uiso   1.00
H266   H     0.77255   0.46373   0.29543   0.00000  Uiso   1.00
H267   H     0.94743   0.06151   0.12028   0.00000  Uiso   1.00
O268   O     0.76207   0.12454   0.11544   0.00000  Uiso   1.00
O269   O     0.84129   0.56570   0.34670   0.00000  Uiso   1.00
O270   O     0.07072   0.03799   0.11691   0.00000  Uiso   1.00
N271   N     0.84263   0.17201   0.99672   0.00000  Uiso   1.00
N272   N     0.89908   0.48640   0.44893   0.00000  Uiso   1.00
N273   N     0.06258   0.11037   0.28515   0.00000  Uiso   1.00
N274   N     0.75584   0.14494   0.89556   0.00000  Uiso   1.00
N275   N     0.81228   0.45932   0.34777   0.00000  Uiso   1.00
N276   N     0.97578   0.08330   0.18399   0.00000  Uiso   1.00
C277   C     0.25861   0.05760   0.41413   0.00000  Uiso   1.00
C278   C     0.22812   0.10630   0.32562   0.00000  Uiso   1.00
C279   C     0.21757   0.09891   0.19486   0.00000  Uiso   1.00
C280   C     0.18908   0.14898   0.13091   0.00000  Uiso   1.00
C281   C     0.14440   0.21618   0.98364   0.00000  Uiso   1.00
C282   C     0.31477   0.09075   0.47658   0.00000  Uiso   1.00
C283   C     0.37708   0.07028   0.47275   0.00000  Uiso   1.00
C284   C     0.42153   0.10725   0.53590   0.00000  Uiso   1.00
C285   C     0.51136   0.15029   0.62308   0.00000  Uiso   1.00
C286   C     0.21113   0.04569   0.52170   0.00000  Uiso   1.00
C287   C     0.18631   0.98733   0.55583   0.00000  Uiso   1.00
C288   C     0.14351   0.98637   0.65699   0.00000  Uiso   1.00
C289   C     0.07243   0.95944   0.81422   0.00000  Uiso   1.00
C290   C     0.22677   0.15967   0.53310   0.00000  Uiso   1.00
C291   C     0.21083   0.16174   0.39025   0.00000  Uiso   1.00
C292   C     0.18235   0.21183   0.32649   0.00000  Uiso   1.00
C293   C     0.17176   0.20451   0.19564   0.00000  Uiso   1.00
C294   C     0.29748   0.14619   0.54120   0.00000  Uiso   1.00
C295   C     0.34185   0.18320   0.60438   0.00000  Uiso   1.00
C296   C     0.40421   0.16279   0.60064   0.00000  Uiso   1.00
C297   C     0.19384   0.10113   0.58632   0.00000  Uiso   1.00
C298   C     0.15108   0.10026   0.68746   0.00000  Uiso   1.00
C299   C     0.12619   0.04191   0.72173   0.00000  Uiso   1.00
H300   H     0.27208   0.01444   0.36382   0.00000  Uiso   1.00
H301   H     0.23097   0.05600   0.14488   0.00000  Uiso   1.00
H302   H     0.39044   0.02737   0.42274   0.00000  Uiso   1.00
H303   H     0.19970   0.94444   0.50580   0.00000  Uiso   1.00
H304   H     0.17778   0.12653   0.93063   0.00000  Uiso   1.00
H305   H     0.51404   0.06616   0.51656   0.00000  Uiso   1.00
H306   H     0.11182   0.89128   0.69172   0.00000  Uiso   1.00
H307   H     0.21331   0.20283   0.58342   0.00000  Uiso   1.00
H308   H     0.16897   0.25473   0.37652   0.00000  Uiso   1.00
H309   H     0.32845   0.22610   0.65438   0.00000  Uiso   1.00
H310   H     0.13771   0.14317   0.73744   0.00000  Uiso   1.00
H311   H     0.12747   0.28783   0.11864   0.00000  Uiso   1.00
H312   H     0.46373   0.22745   0.70457   0.00000  Uiso   1.00
H313   H     0.06151   0.05257   0.87972   0.00000  Uiso   1.00
O314   O     0.12454   0.23793   0.88456   0.00000  Uiso   1.00
O315   O     0.56570   0.15871   0.65330   0.00000  Uiso   1.00
O316   O     0.03799   0.92928   0.88309   0.00000  Uiso   1.00
N317   N     0.17201   0.15737   0.00328   0.00000  Uiso   1.00
N318   N     0.48640   0.10092   0.55107   0.00000  Uiso   1.00
N319   N     0.11037   0.93742   0.71485   0.00000  Uiso   1.00
N320   N     0.14494   0.24416   0.10444   0.00000  Uiso   1.00
N321   N     0.45932   0.18772   0.65223   0.00000  Uiso   1.00
N322   N     0.08330   0.02422   0.81601   0.00000  Uiso   1.00
C323   C     0.74139   0.94240   0.41413   0.00000  Uiso   1.00
C324   C     0.77188   0.89370   0.32562   0.00000  Uiso   1.00
C325   C     0.78243   0.90109   0.19486   0.00000  Uiso   1.00
C326   C     0.81092   0.85102   0.13091   0.00000  Uiso   1.00
C327   C     0.85560   0.78382   0.98364   0.00000  Uiso   1.00
C328   C     0.68523   0.90925   0.47658   0.00000  Uiso   1.00
C329   C     0.62292   0.92972   0.47275   0.00000  Uiso   1.00
C330   C     0.57847   0.89275   0.53590   0.00000  Uiso   1.00
C331   C     0.48864   0.84971   0.62308   0.00000  Uiso   1.00
C332   C     0.78887   0.95431   0.52170   0.00000  Uiso   1.00
C333   C     0.81369   0.01267   0.55583   0.00000  Uiso   1.00
C334   C     0.85649   0.01363   0.65699   0.00000  Uiso   1.00
C335   C     0.92757   0.04056   0.81422   0.00000  Uiso   1.00
C336   C     0.77323   0.84033   0.53310   0.00000  Uiso   1.00
C337   C     0.78917   0.83826   0.39025   0.00000  Uiso   1.00
C338   C     0.81765   0.78817   0.32649   0.00000  Uiso   1.00
C339   C     0.82824   0.79549   0.19564   0.00000  Uiso   1.00
C340   C     0.70252   0.85381   0.54120   0.00000  Uiso   1.00
C341   C     0.65815   0.81680   0.60438   0.00000  Uiso   1.00
C342   C     0.59579   0.83721   0.60064   0.00000  Uiso   1.00
C343   C     0.80616   0.89887   0.58632   0.00000  Uiso   1.00
C344   C     0.84892   0.89974   0.68746   0.00000  Uiso   1.00
C345   C     0.87381   0.95809   0.72173   0.00000  Uiso   1.00
H346   H     0.72792   0.98556   0.36382   0.00000  Uiso   1.00
H347   H     0.76903   0.94400   0.14488   0.00000  Uiso   1.00
H348   H     0.60956   0.97263   0.42274   0.00000  Uiso   1.00
H349   H     0.80030   0.05556   0.50580   0.00000  Uiso   1.00
H350   H     0.82222   0.87347   0.93063   0.00000  Uiso   1.00
H351   H     0.48596   0.93384   0.51656   0.00000  Uiso   1.00
H352   H     0.88818   0.10872   0.69172   0.00000  Uiso   1.00
H353   H     0.78669   0.79717   0.58342   0.00000  Uiso   1.00
H354   H     0.83103   0.74527   0.37652   0.00000  Uiso   1.00
H355   H     0.67155   0.77390   0.65438   0.00000  Uiso   1.00
H356   H     0.86229   0.85683   0.73744   0.00000  Uiso   1.00
H357   H     0.87253   0.71217   0.11864   0.00000  Uiso   1.00
H358   H     0.53627   0.77255   0.70457   0.00000  Uiso   1.00
H359   H     0.93849   0.94743   0.87972   0.00000  Uiso   1.00
O360   O     0.87546   0.76207   0.88456   0.00000  Uiso   1.00
O361   O     0.43430   0.84129   0.65330   0.00000  Uiso   1.00
O362   O     0.96201   0.07072   0.88309   0.00000  Uiso   1.00
N363   N     0.82799   0.84263   0.00328   0.00000  Uiso   1.00
N364   N     0.51360   0.89908   0.55107   0.00000  Uiso   1.00
N365   N     0.88963   0.06258   0.71485   0.00000  Uiso   1.00
N366   N     0.85506   0.75584   0.10444   0.00000  Uiso   1.00
N367   N     0.54068   0.81228   0.65223   0.00000  Uiso   1.00
N368   N     0.91670   0.97578   0.81601   0.00000  Uiso   1.00
