data_job_01691
_audit_creation_date              2018-12-19
_audit_creation_method            'Materials Studio'
_symmetry_space_group_name_H-M    'P1'
_symmetry_Int_Tables_number       1
_symmetry_cell_setting            triclinic
loop_
_symmetry_equiv_pos_as_xyz
  x,y,z
_cell_length_a                    12.6158
_cell_length_b                    23.6441
_cell_length_c                    8.0314
_cell_angle_alpha                 90.0000
_cell_angle_beta                  90.0000
_cell_angle_gamma                 90.0000
loop_
_atom_site_label
_atom_site_type_symbol
_atom_site_fract_x
_atom_site_fract_y
_atom_site_fract_z
_atom_site_U_iso_or_equiv
_atom_site_adp_type
_atom_site_occupancy
C1     C     0.20969   0.92879   0.14786   0.00000  Uiso   1.00
C2     C     0.18307   0.97017   0.00834   0.00000  Uiso   1.00
C3     C     0.12701   0.02030   0.02625   0.00000  Uiso   1.00
C4     C     0.11090   0.05225   0.88344   0.00000  Uiso   1.00
C5     C     0.06365   0.11916   0.69037   0.00000  Uiso   1.00
C6     C     0.16477   0.87179   0.09387   0.00000  Uiso   1.00
C7     C     0.09334   0.83921   0.18370   0.00000  Uiso   1.00
C8     C     0.06183   0.78835   0.11289   0.00000  Uiso   1.00
C9     C     0.98623   0.70251   0.05267   0.00000  Uiso   1.00
C10    C     0.32992   0.92220   0.14574   0.00000  Uiso   1.00
C11    C     0.39734   0.93199   0.27919   0.00000  Uiso   1.00
C12    C     0.50488   0.92356   0.25206   0.00000  Uiso   1.00
C13    C     0.68570   0.91600   0.27237   0.00000  Uiso   1.00
C14    C     0.28076   0.89639   0.86239   0.00000  Uiso   1.00
C15    C     0.22167   0.95256   0.85328   0.00000  Uiso   1.00
C16    C     0.20565   0.98445   0.71041   0.00000  Uiso   1.00
C17    C     0.14958   0.03462   0.72810   0.00000  Uiso   1.00
C18    C     0.20337   0.85419   0.93882   0.00000  Uiso   1.00
C19    C     0.17197   0.80336   0.86786   0.00000  Uiso   1.00
C20    C     0.10051   0.77071   0.95756   0.00000  Uiso   1.00
C21    C     0.36853   0.90460   0.99068   0.00000  Uiso   1.00
C22    C     0.47598   0.89615   0.96334   0.00000  Uiso   1.00
C23    C     0.54356   0.90593   0.09673   0.00000  Uiso   1.00
H24    H     0.17963   0.94249   0.26857   0.00000  Uiso   1.00
H25    H     0.09714   0.03390   0.14626   0.00000  Uiso   1.00
H26    H     0.06348   0.85284   0.30369   0.00000  Uiso   1.00
H27    H     0.36744   0.94561   0.39916   0.00000  Uiso   1.00
H28    H     0.02268   0.12748   0.94227   0.00000  Uiso   1.00
H29    H     0.95174   0.74569   0.27425   0.00000  Uiso   1.00
H30    H     0.59269   0.94132   0.47557   0.00000  Uiso   1.00
H31    H     0.31082   0.88268   0.74167   0.00000  Uiso   1.00
H32    H     0.23553   0.97082   0.59043   0.00000  Uiso   1.00
H33    H     0.20187   0.78975   0.74787   0.00000  Uiso   1.00
H34    H     0.50583   0.88253   0.84334   0.00000  Uiso   1.00
H35    H     0.13500   0.07628   0.49113   0.00000  Uiso   1.00
H36    H     0.06406   0.69448   0.82312   0.00000  Uiso   1.00
H37    H     0.70501   0.89011   0.02444   0.00000  Uiso   1.00
O38    O     0.02692   0.16093   0.62671   0.00000  Uiso   1.00
O39    O     0.93386   0.66002   0.06228   0.00000  Uiso   1.00
O40    O     0.77477   0.91669   0.32640   0.00000  Uiso   1.00
N41    N     0.05947   0.10334   0.85685   0.00000  Uiso   1.00
N42    N     0.99312   0.74639   0.16722   0.00000  Uiso   1.00
N43    N     0.59236   0.92927   0.35546   0.00000  Uiso   1.00
N44    N     0.11990   0.07579   0.61410   0.00000  Uiso   1.00
N45    N     0.05356   0.71884   0.92447   0.00000  Uiso   1.00
N46    N     0.65280   0.90172   0.11271   0.00000  Uiso   1.00
C47    C     0.79031   0.07121   0.14786   0.00000  Uiso   1.00
C48    C     0.81693   0.02983   0.00834   0.00000  Uiso   1.00
C49    C     0.87299   0.97970   0.02625   0.00000  Uiso   1.00
C50    C     0.88910   0.94775   0.88344   0.00000  Uiso   1.00
C51    C     0.93635   0.88084   0.69037   0.00000  Uiso   1.00
C52    C     0.83523   0.12821   0.09387   0.00000  Uiso   1.00
C53    C     0.90666   0.16079   0.18370   0.00000  Uiso   1.00
C54    C     0.93817   0.21165   0.11289   0.00000  Uiso   1.00
C55    C     0.01377   0.29749   0.05267   0.00000  Uiso   1.00
C56    C     0.67008   0.07780   0.14574   0.00000  Uiso   1.00
C57    C     0.60266   0.06801   0.27919   0.00000  Uiso   1.00
C58    C     0.49512   0.07644   0.25206   0.00000  Uiso   1.00
C59    C     0.31430   0.08400   0.27237   0.00000  Uiso   1.00
C60    C     0.71924   0.10361   0.86239   0.00000  Uiso   1.00
C61    C     0.77833   0.04744   0.85328   0.00000  Uiso   1.00
C62    C     0.79435   0.01555   0.71041   0.00000  Uiso   1.00
C63    C     0.85042   0.96538   0.72810   0.00000  Uiso   1.00
C64    C     0.79663   0.14581   0.93882   0.00000  Uiso   1.00
C65    C     0.82803   0.19664   0.86786   0.00000  Uiso   1.00
C66    C     0.89949   0.22929   0.95756   0.00000  Uiso   1.00
C67    C     0.63147   0.09540   0.99068   0.00000  Uiso   1.00
C68    C     0.52402   0.10385   0.96334   0.00000  Uiso   1.00
C69    C     0.45644   0.09407   0.09673   0.00000  Uiso   1.00
H70    H     0.82037   0.05751   0.26857   0.00000  Uiso   1.00
H71    H     0.90286   0.96610   0.14626   0.00000  Uiso   1.00
H72    H     0.93652   0.14716   0.30369   0.00000  Uiso   1.00
H73    H     0.63256   0.05439   0.39916   0.00000  Uiso   1.00
H74    H     0.97732   0.87252   0.94227   0.00000  Uiso   1.00
H75    H     0.04826   0.25431   0.27425   0.00000  Uiso   1.00
H76    H     0.40731   0.05868   0.47557   0.00000  Uiso   1.00
H77    H     0.68918   0.11732   0.74167   0.00000  Uiso   1.00
H78    H     0.76447   0.02918   0.59043   0.00000  Uiso   1.00
H79    H     0.79813   0.21025   0.74787   0.00000  Uiso   1.00
H80    H     0.49417   0.11747   0.84334   0.00000  Uiso   1.00
H81    H     0.86500   0.92372   0.49113   0.00000  Uiso   1.00
H82    H     0.93594   0.30552   0.82312   0.00000  Uiso   1.00
H83    H     0.29499   0.10989   0.02444   0.00000  Uiso   1.00
O84    O     0.97308   0.83907   0.62671   0.00000  Uiso   1.00
O85    O     0.06614   0.33998   0.06228   0.00000  Uiso   1.00
O86    O     0.22523   0.08331   0.32640   0.00000  Uiso   1.00
N87    N     0.94053   0.89666   0.85685   0.00000  Uiso   1.00
N88    N     0.00688   0.25361   0.16722   0.00000  Uiso   1.00
N89    N     0.40764   0.07073   0.35546   0.00000  Uiso   1.00
N90    N     0.88010   0.92421   0.61410   0.00000  Uiso   1.00
N91    N     0.94644   0.28116   0.92447   0.00000  Uiso   1.00
N92    N     0.34720   0.09828   0.11271   0.00000  Uiso   1.00
C93    C     0.70969   0.57121   0.64786   0.00000  Uiso   1.00
C94    C     0.68307   0.52983   0.50834   0.00000  Uiso   1.00
C95    C     0.62701   0.47970   0.52625   0.00000  Uiso   1.00
C96    C     0.61090   0.44775   0.38344   0.00000  Uiso   1.00
C97    C     0.56365   0.38084   0.19037   0.00000  Uiso   1.00
C98    C     0.66477   0.62821   0.59387   0.00000  Uiso   1.00
C99    C     0.59334   0.66079   0.68370   0.00000  Uiso   1.00
C100   C     0.56183   0.71165   0.61289   0.00000  Uiso   1.00
C101   C     0.48623   0.79749   0.55267   0.00000  Uiso   1.00
C102   C     0.82992   0.57780   0.64574   0.00000  Uiso   1.00
C103   C     0.89734   0.56801   0.77919   0.00000  Uiso   1.00
C104   C     0.00488   0.57644   0.75206   0.00000  Uiso   1.00
C105   C     0.18570   0.58400   0.77237   0.00000  Uiso   1.00
C106   C     0.78076   0.60361   0.36239   0.00000  Uiso   1.00
C107   C     0.72167   0.54744   0.35328   0.00000  Uiso   1.00
C108   C     0.70565   0.51555   0.21041   0.00000  Uiso   1.00
C109   C     0.64958   0.46538   0.22810   0.00000  Uiso   1.00
C110   C     0.70337   0.64581   0.43882   0.00000  Uiso   1.00
C111   C     0.67197   0.69664   0.36786   0.00000  Uiso   1.00
C112   C     0.60051   0.72929   0.45756   0.00000  Uiso   1.00
C113   C     0.86853   0.59540   0.49068   0.00000  Uiso   1.00
C114   C     0.97598   0.60385   0.46334   0.00000  Uiso   1.00
C115   C     0.04356   0.59407   0.59673   0.00000  Uiso   1.00
H116   H     0.67963   0.55751   0.76857   0.00000  Uiso   1.00
H117   H     0.59714   0.46610   0.64626   0.00000  Uiso   1.00
H118   H     0.56348   0.64716   0.80369   0.00000  Uiso   1.00
H119   H     0.86744   0.55439   0.89916   0.00000  Uiso   1.00
H120   H     0.52268   0.37252   0.44227   0.00000  Uiso   1.00
H121   H     0.45174   0.75431   0.77425   0.00000  Uiso   1.00
H122   H     0.09269   0.55868   0.97557   0.00000  Uiso   1.00
H123   H     0.81082   0.61732   0.24167   0.00000  Uiso   1.00
H124   H     0.73553   0.52918   0.09043   0.00000  Uiso   1.00
H125   H     0.70187   0.71025   0.24787   0.00000  Uiso   1.00
H126   H     0.00583   0.61747   0.34334   0.00000  Uiso   1.00
H127   H     0.63500   0.42372   0.99113   0.00000  Uiso   1.00
H128   H     0.56406   0.80552   0.32312   0.00000  Uiso   1.00
H129   H     0.20501   0.60989   0.52444   0.00000  Uiso   1.00
O130   O     0.52692   0.33907   0.12671   0.00000  Uiso   1.00
O131   O     0.43386   0.83998   0.56228   0.00000  Uiso   1.00
O132   O     0.27477   0.58331   0.82640   0.00000  Uiso   1.00
N133   N     0.55947   0.39666   0.35685   0.00000  Uiso   1.00
N134   N     0.49312   0.75361   0.66722   0.00000  Uiso   1.00
N135   N     0.09236   0.57073   0.85546   0.00000  Uiso   1.00
N136   N     0.61990   0.42421   0.11410   0.00000  Uiso   1.00
N137   N     0.55356   0.78116   0.42447   0.00000  Uiso   1.00
N138   N     0.15280   0.59828   0.61271   0.00000  Uiso   1.00
C139   C     0.29031   0.42879   0.64786   0.00000  Uiso   1.00
C140   C     0.31693   0.47017   0.50834   0.00000  Uiso   1.00
C141   C     0.37299   0.52030   0.52625   0.00000  Uiso   1.00
C142   C     0.38910   0.55225   0.38344   0.00000  Uiso   1.00
C143   C     0.43635   0.61916   0.19037   0.00000  Uiso   1.00
C144   C     0.33523   0.37179   0.59387   0.00000  Uiso   1.00
C145   C     0.40666   0.33921   0.68370   0.00000  Uiso   1.00
C146   C     0.43817   0.28835   0.61289   0.00000  Uiso   1.00
C147   C     0.51377   0.20251   0.55267   0.00000  Uiso   1.00
C148   C     0.17008   0.42220   0.64574   0.00000  Uiso   1.00
C149   C     0.10266   0.43199   0.77919   0.00000  Uiso   1.00
C150   C     0.99512   0.42356   0.75206   0.00000  Uiso   1.00
C151   C     0.81430   0.41600   0.77237   0.00000  Uiso   1.00
C152   C     0.21924   0.39639   0.36239   0.00000  Uiso   1.00
C153   C     0.27833   0.45256   0.35328   0.00000  Uiso   1.00
C154   C     0.29435   0.48445   0.21041   0.00000  Uiso   1.00
C155   C     0.35042   0.53462   0.22810   0.00000  Uiso   1.00
C156   C     0.29663   0.35419   0.43882   0.00000  Uiso   1.00
C157   C     0.32803   0.30336   0.36786   0.00000  Uiso   1.00
C158   C     0.39949   0.27071   0.45756   0.00000  Uiso   1.00
C159   C     0.13147   0.40460   0.49068   0.00000  Uiso   1.00
C160   C     0.02402   0.39615   0.46334   0.00000  Uiso   1.00
C161   C     0.95644   0.40593   0.59673   0.00000  Uiso   1.00
H162   H     0.32037   0.44249   0.76857   0.00000  Uiso   1.00
H163   H     0.40286   0.53390   0.64626   0.00000  Uiso   1.00
H164   H     0.43652   0.35284   0.80369   0.00000  Uiso   1.00
H165   H     0.13256   0.44561   0.89916   0.00000  Uiso   1.00
H166   H     0.47732   0.62748   0.44227   0.00000  Uiso   1.00
H167   H     0.54826   0.24569   0.77425   0.00000  Uiso   1.00
H168   H     0.90731   0.44132   0.97557   0.00000  Uiso   1.00
H169   H     0.18918   0.38268   0.24167   0.00000  Uiso   1.00
H170   H     0.26447   0.47082   0.09043   0.00000  Uiso   1.00
H171   H     0.29813   0.28975   0.24787   0.00000  Uiso   1.00
H172   H     0.99417   0.38253   0.34334   0.00000  Uiso   1.00
H173   H     0.36500   0.57628   0.99113   0.00000  Uiso   1.00
H174   H     0.43594   0.19448   0.32312   0.00000  Uiso   1.00
H175   H     0.79499   0.39011   0.52444   0.00000  Uiso   1.00
O176   O     0.47308   0.66093   0.12671   0.00000  Uiso   1.00
O177   O     0.56614   0.16002   0.56228   0.00000  Uiso   1.00
O178   O     0.72523   0.41669   0.82640   0.00000  Uiso   1.00
N179   N     0.44053   0.60334   0.35685   0.00000  Uiso   1.00
N180   N     0.50688   0.24639   0.66722   0.00000  Uiso   1.00
N181   N     0.90764   0.42927   0.85546   0.00000  Uiso   1.00
N182   N     0.38010   0.57579   0.11410   0.00000  Uiso   1.00
N183   N     0.44644   0.21884   0.42447   0.00000  Uiso   1.00
N184   N     0.84720   0.40172   0.61271   0.00000  Uiso   1.00
