data_job_00308
_audit_creation_date              2018-12-19
_audit_creation_method            'Materials Studio'
_symmetry_space_group_name_H-M    'P1'
_symmetry_Int_Tables_number       1
_symmetry_cell_setting            triclinic
loop_
_symmetry_equiv_pos_as_xyz
  x,y,z
_cell_length_a                    29.6176
_cell_length_b                    10.9255
_cell_length_c                    12.8856
_cell_angle_alpha                 90.0000
_cell_angle_beta                  90.0000
_cell_angle_gamma                 90.0000
loop_
_atom_site_label
_atom_site_type_symbol
_atom_site_fract_x
_atom_site_fract_y
_atom_site_fract_z
_atom_site_U_iso_or_equiv
_atom_site_adp_type
_atom_site_occupancy
C1     C     0.91683   0.80176   0.37522   0.00000  Uiso   1.00
C2     C     0.89730   0.76871   0.26937   0.00000  Uiso   1.00
C3     C     0.91267   0.67588   0.20490   0.00000  Uiso   1.00
C4     C     0.89028   0.66027   0.11118   0.00000  Uiso   1.00
C5     C     0.86551   0.59764   0.95107   0.00000  Uiso   1.00
C6     C     0.92954   0.93682   0.36906   0.00000  Uiso   1.00
C7     C     0.97202   0.98534   0.38842   0.00000  Uiso   1.00
C8     C     0.97676   0.11124   0.37863   0.00000  Uiso   1.00
C9     C     0.00204   0.30962   0.37338   0.00000  Uiso   1.00
C10    C     0.87766   0.79386   0.45173   0.00000  Uiso   1.00
C11    C     0.87652   0.72221   0.54063   0.00000  Uiso   1.00
C12    C     0.83759   0.72778   0.60046   0.00000  Uiso   1.00
C13    C     0.78232   0.70420   0.72356   0.00000  Uiso   1.00
C14    C     0.84972   0.93908   0.32342   0.00000  Uiso   1.00
C15    C     0.86085   0.84330   0.24124   0.00000  Uiso   1.00
C16    C     0.83842   0.82782   0.14759   0.00000  Uiso   1.00
C17    C     0.85376   0.73498   0.08299   0.00000  Uiso   1.00
C18    C     0.89309   0.01141   0.34093   0.00000  Uiso   1.00
C19    C     0.89777   0.13727   0.33111   0.00000  Uiso   1.00
C20    C     0.94024   0.18597   0.35045   0.00000  Uiso   1.00
C21    C     0.84121   0.86845   0.42360   0.00000  Uiso   1.00
C22    C     0.80227   0.87414   0.48331   0.00000  Uiso   1.00
C23    C     0.80107   0.80251   0.57227   0.00000  Uiso   1.00
H24    H     0.94521   0.74370   0.39713   0.00000  Uiso   1.00
H25    H     0.94089   0.61819   0.22670   0.00000  Uiso   1.00
H26    H     0.00022   0.92759   0.41020   0.00000  Uiso   1.00
H27    H     0.90474   0.66450   0.56238   0.00000  Uiso   1.00
H28    H     0.92003   0.51196   0.02532   0.00000  Uiso   1.00
H29    H     0.04513   0.16437   0.41229   0.00000  Uiso   1.00
H30    H     0.84379   0.60959   0.73318   0.00000  Uiso   1.00
H31    H     0.82134   0.99716   0.30152   0.00000  Uiso   1.00
H32    H     0.81021   0.88555   0.12584   0.00000  Uiso   1.00
H33    H     0.86955   0.19496   0.30934   0.00000  Uiso   1.00
H34    H     0.77407   0.93187   0.46151   0.00000  Uiso   1.00
H35    H     0.81397   0.72897   0.94345   0.00000  Uiso   1.00
H36    H     0.93908   0.38138   0.33043   0.00000  Uiso   1.00
H37    H     0.73773   0.82660   0.65131   0.00000  Uiso   1.00
O38    O     0.86192   0.54250   0.87053   0.00000  Uiso   1.00
O39    O     0.02606   0.39843   0.37824   0.00000  Uiso   1.00
O40    O     0.76190   0.67058   0.79923   0.00000  Uiso   1.00
N41    N     0.89659   0.57833   0.03017   0.00000  Uiso   1.00
N42    N     0.01356   0.18829   0.39195   0.00000  Uiso   1.00
N43    N     0.82532   0.66965   0.69197   0.00000  Uiso   1.00
N44    N     0.83952   0.69510   0.98612   0.00000  Uiso   1.00
N45    N     0.95649   0.30506   0.34790   0.00000  Uiso   1.00
N46    N     0.76825   0.78642   0.64792   0.00000  Uiso   1.00
C47    C     0.58317   0.69824   0.87522   0.00000  Uiso   1.00
C48    C     0.60270   0.73129   0.76937   0.00000  Uiso   1.00
C49    C     0.58733   0.82412   0.70490   0.00000  Uiso   1.00
C50    C     0.60972   0.83973   0.61118   0.00000  Uiso   1.00
C51    C     0.63449   0.90236   0.45107   0.00000  Uiso   1.00
C52    C     0.57046   0.56318   0.86906   0.00000  Uiso   1.00
C53    C     0.52798   0.51466   0.88842   0.00000  Uiso   1.00
C54    C     0.52324   0.38876   0.87863   0.00000  Uiso   1.00
C55    C     0.49796   0.19038   0.87338   0.00000  Uiso   1.00
C56    C     0.62234   0.70614   0.95173   0.00000  Uiso   1.00
C57    C     0.62348   0.77779   0.04063   0.00000  Uiso   1.00
C58    C     0.66241   0.77222   0.10046   0.00000  Uiso   1.00
C59    C     0.71768   0.79580   0.22356   0.00000  Uiso   1.00
C60    C     0.65028   0.56092   0.82342   0.00000  Uiso   1.00
C61    C     0.63915   0.65670   0.74124   0.00000  Uiso   1.00
C62    C     0.66158   0.67218   0.64759   0.00000  Uiso   1.00
C63    C     0.64624   0.76502   0.58299   0.00000  Uiso   1.00
C64    C     0.60691   0.48859   0.84093   0.00000  Uiso   1.00
C65    C     0.60223   0.36273   0.83111   0.00000  Uiso   1.00
C66    C     0.55976   0.31403   0.85045   0.00000  Uiso   1.00
C67    C     0.65879   0.63155   0.92360   0.00000  Uiso   1.00
C68    C     0.69773   0.62586   0.98331   0.00000  Uiso   1.00
C69    C     0.69893   0.69749   0.07227   0.00000  Uiso   1.00
H70    H     0.55479   0.75630   0.89713   0.00000  Uiso   1.00
H71    H     0.55911   0.88181   0.72670   0.00000  Uiso   1.00
H72    H     0.49978   0.57241   0.91020   0.00000  Uiso   1.00
H73    H     0.59526   0.83550   0.06238   0.00000  Uiso   1.00
H74    H     0.57997   0.98804   0.52532   0.00000  Uiso   1.00
H75    H     0.45487   0.33563   0.91229   0.00000  Uiso   1.00
H76    H     0.65621   0.89041   0.23318   0.00000  Uiso   1.00
H77    H     0.67866   0.50284   0.80152   0.00000  Uiso   1.00
H78    H     0.68979   0.61445   0.62584   0.00000  Uiso   1.00
H79    H     0.63045   0.30504   0.80934   0.00000  Uiso   1.00
H80    H     0.72593   0.56813   0.96151   0.00000  Uiso   1.00
H81    H     0.68603   0.77103   0.44345   0.00000  Uiso   1.00
H82    H     0.56092   0.11862   0.83043   0.00000  Uiso   1.00
H83    H     0.76227   0.67340   0.15131   0.00000  Uiso   1.00
O84    O     0.63808   0.95750   0.37053   0.00000  Uiso   1.00
O85    O     0.47394   0.10157   0.87824   0.00000  Uiso   1.00
O86    O     0.73810   0.82942   0.29923   0.00000  Uiso   1.00
N87    N     0.60341   0.92167   0.53017   0.00000  Uiso   1.00
N88    N     0.48644   0.31171   0.89195   0.00000  Uiso   1.00
N89    N     0.67468   0.83035   0.19197   0.00000  Uiso   1.00
N90    N     0.66048   0.80490   0.48612   0.00000  Uiso   1.00
N91    N     0.54351   0.19494   0.84790   0.00000  Uiso   1.00
N92    N     0.73175   0.71358   0.14792   0.00000  Uiso   1.00
C93    C     0.08317   0.80176   0.12478   0.00000  Uiso   1.00
C94    C     0.10270   0.76871   0.23063   0.00000  Uiso   1.00
C95    C     0.08733   0.67588   0.29510   0.00000  Uiso   1.00
C96    C     0.10972   0.66027   0.38882   0.00000  Uiso   1.00
C97    C     0.13449   0.59764   0.54893   0.00000  Uiso   1.00
C98    C     0.07046   0.93682   0.13094   0.00000  Uiso   1.00
C99    C     0.02798   0.98534   0.11158   0.00000  Uiso   1.00
C100   C     0.02324   0.11124   0.12137   0.00000  Uiso   1.00
C101   C     0.99796   0.30962   0.12662   0.00000  Uiso   1.00
C102   C     0.12234   0.79386   0.04827   0.00000  Uiso   1.00
C103   C     0.12348   0.72221   0.95937   0.00000  Uiso   1.00
C104   C     0.16241   0.72778   0.89954   0.00000  Uiso   1.00
C105   C     0.21768   0.70420   0.77644   0.00000  Uiso   1.00
C106   C     0.15028   0.93908   0.17658   0.00000  Uiso   1.00
C107   C     0.13915   0.84330   0.25876   0.00000  Uiso   1.00
C108   C     0.16158   0.82782   0.35241   0.00000  Uiso   1.00
C109   C     0.14624   0.73498   0.41701   0.00000  Uiso   1.00
C110   C     0.10691   0.01141   0.15907   0.00000  Uiso   1.00
C111   C     0.10223   0.13727   0.16889   0.00000  Uiso   1.00
C112   C     0.05976   0.18597   0.14955   0.00000  Uiso   1.00
C113   C     0.15879   0.86845   0.07640   0.00000  Uiso   1.00
C114   C     0.19773   0.87414   0.01669   0.00000  Uiso   1.00
C115   C     0.19893   0.80251   0.92773   0.00000  Uiso   1.00
H116   H     0.05479   0.74370   0.10287   0.00000  Uiso   1.00
H117   H     0.05911   0.61819   0.27330   0.00000  Uiso   1.00
H118   H     0.99978   0.92759   0.08980   0.00000  Uiso   1.00
H119   H     0.09526   0.66450   0.93762   0.00000  Uiso   1.00
H120   H     0.07997   0.51196   0.47468   0.00000  Uiso   1.00
H121   H     0.95487   0.16437   0.08771   0.00000  Uiso   1.00
H122   H     0.15621   0.60959   0.76682   0.00000  Uiso   1.00
H123   H     0.17866   0.99716   0.19848   0.00000  Uiso   1.00
H124   H     0.18979   0.88555   0.37416   0.00000  Uiso   1.00
H125   H     0.13045   0.19496   0.19066   0.00000  Uiso   1.00
H126   H     0.22593   0.93187   0.03849   0.00000  Uiso   1.00
H127   H     0.18603   0.72897   0.55655   0.00000  Uiso   1.00
H128   H     0.06092   0.38138   0.16957   0.00000  Uiso   1.00
H129   H     0.26227   0.82660   0.84869   0.00000  Uiso   1.00
O130   O     0.13808   0.54250   0.62947   0.00000  Uiso   1.00
O131   O     0.97394   0.39843   0.12176   0.00000  Uiso   1.00
O132   O     0.23810   0.67058   0.70077   0.00000  Uiso   1.00
N133   N     0.10341   0.57833   0.46983   0.00000  Uiso   1.00
N134   N     0.98644   0.18829   0.10805   0.00000  Uiso   1.00
N135   N     0.17468   0.66965   0.80803   0.00000  Uiso   1.00
N136   N     0.16048   0.69510   0.51388   0.00000  Uiso   1.00
N137   N     0.04351   0.30506   0.15210   0.00000  Uiso   1.00
N138   N     0.23175   0.78642   0.85208   0.00000  Uiso   1.00
C139   C     0.41683   0.69824   0.62478   0.00000  Uiso   1.00
C140   C     0.39730   0.73129   0.73063   0.00000  Uiso   1.00
C141   C     0.41267   0.82412   0.79510   0.00000  Uiso   1.00
C142   C     0.39028   0.83973   0.88882   0.00000  Uiso   1.00
C143   C     0.36551   0.90236   0.04893   0.00000  Uiso   1.00
C144   C     0.42954   0.56318   0.63094   0.00000  Uiso   1.00
C145   C     0.47202   0.51466   0.61158   0.00000  Uiso   1.00
C146   C     0.47676   0.38876   0.62137   0.00000  Uiso   1.00
C147   C     0.50204   0.19038   0.62662   0.00000  Uiso   1.00
C148   C     0.37766   0.70614   0.54827   0.00000  Uiso   1.00
C149   C     0.37652   0.77779   0.45937   0.00000  Uiso   1.00
C150   C     0.33759   0.77222   0.39954   0.00000  Uiso   1.00
C151   C     0.28232   0.79580   0.27644   0.00000  Uiso   1.00
C152   C     0.34972   0.56092   0.67658   0.00000  Uiso   1.00
C153   C     0.36085   0.65670   0.75876   0.00000  Uiso   1.00
C154   C     0.33842   0.67218   0.85241   0.00000  Uiso   1.00
C155   C     0.35376   0.76502   0.91701   0.00000  Uiso   1.00
C156   C     0.39309   0.48859   0.65907   0.00000  Uiso   1.00
C157   C     0.39777   0.36273   0.66889   0.00000  Uiso   1.00
C158   C     0.44024   0.31403   0.64955   0.00000  Uiso   1.00
C159   C     0.34121   0.63155   0.57640   0.00000  Uiso   1.00
C160   C     0.30227   0.62586   0.51669   0.00000  Uiso   1.00
C161   C     0.30107   0.69749   0.42773   0.00000  Uiso   1.00
H162   H     0.44521   0.75630   0.60287   0.00000  Uiso   1.00
H163   H     0.44089   0.88181   0.77330   0.00000  Uiso   1.00
H164   H     0.50022   0.57241   0.58980   0.00000  Uiso   1.00
H165   H     0.40474   0.83550   0.43762   0.00000  Uiso   1.00
H166   H     0.42003   0.98804   0.97468   0.00000  Uiso   1.00
H167   H     0.54513   0.33563   0.58771   0.00000  Uiso   1.00
H168   H     0.34379   0.89041   0.26682   0.00000  Uiso   1.00
H169   H     0.32134   0.50284   0.69848   0.00000  Uiso   1.00
H170   H     0.31021   0.61445   0.87416   0.00000  Uiso   1.00
H171   H     0.36955   0.30504   0.69066   0.00000  Uiso   1.00
H172   H     0.27407   0.56813   0.53849   0.00000  Uiso   1.00
H173   H     0.31397   0.77103   0.05655   0.00000  Uiso   1.00
H174   H     0.43908   0.11862   0.66957   0.00000  Uiso   1.00
H175   H     0.23773   0.67340   0.34869   0.00000  Uiso   1.00
O176   O     0.36192   0.95750   0.12947   0.00000  Uiso   1.00
O177   O     0.52606   0.10157   0.62176   0.00000  Uiso   1.00
O178   O     0.26190   0.82942   0.20077   0.00000  Uiso   1.00
N179   N     0.39659   0.92167   0.96983   0.00000  Uiso   1.00
N180   N     0.51356   0.31171   0.60805   0.00000  Uiso   1.00
N181   N     0.32532   0.83035   0.30803   0.00000  Uiso   1.00
N182   N     0.33952   0.80490   0.01388   0.00000  Uiso   1.00
N183   N     0.45649   0.19494   0.65210   0.00000  Uiso   1.00
N184   N     0.26825   0.71358   0.35208   0.00000  Uiso   1.00
C185   C     0.08317   0.19824   0.62478   0.00000  Uiso   1.00
C186   C     0.10270   0.23129   0.73063   0.00000  Uiso   1.00
C187   C     0.08733   0.32412   0.79510   0.00000  Uiso   1.00
C188   C     0.10972   0.33973   0.88882   0.00000  Uiso   1.00
C189   C     0.13449   0.40236   0.04893   0.00000  Uiso   1.00
C190   C     0.07046   0.06318   0.63094   0.00000  Uiso   1.00
C191   C     0.02798   0.01466   0.61158   0.00000  Uiso   1.00
C192   C     0.02324   0.88876   0.62137   0.00000  Uiso   1.00
C193   C     0.99796   0.69038   0.62662   0.00000  Uiso   1.00
C194   C     0.12234   0.20614   0.54827   0.00000  Uiso   1.00
C195   C     0.12348   0.27779   0.45937   0.00000  Uiso   1.00
C196   C     0.16241   0.27222   0.39954   0.00000  Uiso   1.00
C197   C     0.21768   0.29580   0.27644   0.00000  Uiso   1.00
C198   C     0.15028   0.06092   0.67658   0.00000  Uiso   1.00
C199   C     0.13915   0.15670   0.75876   0.00000  Uiso   1.00
C200   C     0.16158   0.17218   0.85241   0.00000  Uiso   1.00
C201   C     0.14624   0.26502   0.91701   0.00000  Uiso   1.00
C202   C     0.10691   0.98859   0.65907   0.00000  Uiso   1.00
C203   C     0.10223   0.86273   0.66889   0.00000  Uiso   1.00
C204   C     0.05976   0.81403   0.64955   0.00000  Uiso   1.00
C205   C     0.15879   0.13155   0.57640   0.00000  Uiso   1.00
C206   C     0.19773   0.12586   0.51669   0.00000  Uiso   1.00
C207   C     0.19893   0.19749   0.42773   0.00000  Uiso   1.00
H208   H     0.05479   0.25630   0.60287   0.00000  Uiso   1.00
H209   H     0.05911   0.38181   0.77330   0.00000  Uiso   1.00
H210   H     0.99978   0.07241   0.58980   0.00000  Uiso   1.00
H211   H     0.09526   0.33550   0.43762   0.00000  Uiso   1.00
H212   H     0.07997   0.48804   0.97468   0.00000  Uiso   1.00
H213   H     0.95487   0.83563   0.58771   0.00000  Uiso   1.00
H214   H     0.15621   0.39041   0.26682   0.00000  Uiso   1.00
H215   H     0.17866   0.00284   0.69848   0.00000  Uiso   1.00
H216   H     0.18979   0.11445   0.87416   0.00000  Uiso   1.00
H217   H     0.13045   0.80504   0.69066   0.00000  Uiso   1.00
H218   H     0.22593   0.06813   0.53849   0.00000  Uiso   1.00
H219   H     0.18603   0.27103   0.05655   0.00000  Uiso   1.00
H220   H     0.06092   0.61862   0.66957   0.00000  Uiso   1.00
H221   H     0.26227   0.17340   0.34869   0.00000  Uiso   1.00
O222   O     0.13808   0.45750   0.12947   0.00000  Uiso   1.00
O223   O     0.97394   0.60157   0.62176   0.00000  Uiso   1.00
O224   O     0.23810   0.32942   0.20077   0.00000  Uiso   1.00
N225   N     0.10341   0.42167   0.96983   0.00000  Uiso   1.00
N226   N     0.98644   0.81171   0.60805   0.00000  Uiso   1.00
N227   N     0.17468   0.33035   0.30803   0.00000  Uiso   1.00
N228   N     0.16048   0.30490   0.01388   0.00000  Uiso   1.00
N229   N     0.04351   0.69494   0.65210   0.00000  Uiso   1.00
N230   N     0.23175   0.21358   0.35208   0.00000  Uiso   1.00
C231   C     0.41683   0.30176   0.12478   0.00000  Uiso   1.00
C232   C     0.39730   0.26871   0.23063   0.00000  Uiso   1.00
C233   C     0.41267   0.17588   0.29510   0.00000  Uiso   1.00
C234   C     0.39028   0.16027   0.38882   0.00000  Uiso   1.00
C235   C     0.36551   0.09764   0.54893   0.00000  Uiso   1.00
C236   C     0.42954   0.43682   0.13094   0.00000  Uiso   1.00
C237   C     0.47202   0.48534   0.11158   0.00000  Uiso   1.00
C238   C     0.47676   0.61124   0.12137   0.00000  Uiso   1.00
C239   C     0.50204   0.80962   0.12662   0.00000  Uiso   1.00
C240   C     0.37766   0.29386   0.04827   0.00000  Uiso   1.00
C241   C     0.37652   0.22221   0.95937   0.00000  Uiso   1.00
C242   C     0.33759   0.22778   0.89954   0.00000  Uiso   1.00
C243   C     0.28232   0.20420   0.77644   0.00000  Uiso   1.00
C244   C     0.34972   0.43908   0.17658   0.00000  Uiso   1.00
C245   C     0.36085   0.34330   0.25876   0.00000  Uiso   1.00
C246   C     0.33842   0.32782   0.35241   0.00000  Uiso   1.00
C247   C     0.35376   0.23498   0.41701   0.00000  Uiso   1.00
C248   C     0.39309   0.51141   0.15907   0.00000  Uiso   1.00
C249   C     0.39777   0.63727   0.16889   0.00000  Uiso   1.00
C250   C     0.44024   0.68597   0.14955   0.00000  Uiso   1.00
C251   C     0.34121   0.36845   0.07640   0.00000  Uiso   1.00
C252   C     0.30227   0.37414   0.01669   0.00000  Uiso   1.00
C253   C     0.30107   0.30251   0.92773   0.00000  Uiso   1.00
H254   H     0.44521   0.24370   0.10287   0.00000  Uiso   1.00
H255   H     0.44089   0.11819   0.27330   0.00000  Uiso   1.00
H256   H     0.50022   0.42759   0.08980   0.00000  Uiso   1.00
H257   H     0.40474   0.16450   0.93762   0.00000  Uiso   1.00
H258   H     0.42003   0.01196   0.47468   0.00000  Uiso   1.00
H259   H     0.54513   0.66437   0.08771   0.00000  Uiso   1.00
H260   H     0.34379   0.10959   0.76682   0.00000  Uiso   1.00
H261   H     0.32134   0.49716   0.19848   0.00000  Uiso   1.00
H262   H     0.31021   0.38555   0.37416   0.00000  Uiso   1.00
H263   H     0.36955   0.69496   0.19066   0.00000  Uiso   1.00
H264   H     0.27407   0.43187   0.03849   0.00000  Uiso   1.00
H265   H     0.31397   0.22897   0.55655   0.00000  Uiso   1.00
H266   H     0.43908   0.88138   0.16957   0.00000  Uiso   1.00
H267   H     0.23773   0.32660   0.84869   0.00000  Uiso   1.00
O268   O     0.36192   0.04250   0.62947   0.00000  Uiso   1.00
O269   O     0.52606   0.89843   0.12176   0.00000  Uiso   1.00
O270   O     0.26190   0.17058   0.70077   0.00000  Uiso   1.00
N271   N     0.39659   0.07833   0.46983   0.00000  Uiso   1.00
N272   N     0.51356   0.68829   0.10805   0.00000  Uiso   1.00
N273   N     0.32532   0.16965   0.80803   0.00000  Uiso   1.00
N274   N     0.33952   0.19510   0.51388   0.00000  Uiso   1.00
N275   N     0.45649   0.80506   0.15210   0.00000  Uiso   1.00
N276   N     0.26825   0.28642   0.85208   0.00000  Uiso   1.00
C277   C     0.91683   0.19824   0.87522   0.00000  Uiso   1.00
C278   C     0.89730   0.23129   0.76937   0.00000  Uiso   1.00
C279   C     0.91267   0.32412   0.70490   0.00000  Uiso   1.00
C280   C     0.89028   0.33973   0.61118   0.00000  Uiso   1.00
C281   C     0.86551   0.40236   0.45107   0.00000  Uiso   1.00
C282   C     0.92954   0.06318   0.86906   0.00000  Uiso   1.00
C283   C     0.97202   0.01466   0.88842   0.00000  Uiso   1.00
C284   C     0.97676   0.88876   0.87863   0.00000  Uiso   1.00
C285   C     0.00204   0.69038   0.87338   0.00000  Uiso   1.00
C286   C     0.87766   0.20614   0.95173   0.00000  Uiso   1.00
C287   C     0.87652   0.27779   0.04063   0.00000  Uiso   1.00
C288   C     0.83759   0.27222   0.10046   0.00000  Uiso   1.00
C289   C     0.78232   0.29580   0.22356   0.00000  Uiso   1.00
C290   C     0.84972   0.06092   0.82342   0.00000  Uiso   1.00
C291   C     0.86085   0.15670   0.74124   0.00000  Uiso   1.00
C292   C     0.83842   0.17218   0.64759   0.00000  Uiso   1.00
C293   C     0.85376   0.26502   0.58299   0.00000  Uiso   1.00
C294   C     0.89309   0.98859   0.84093   0.00000  Uiso   1.00
C295   C     0.89777   0.86273   0.83111   0.00000  Uiso   1.00
C296   C     0.94024   0.81403   0.85045   0.00000  Uiso   1.00
C297   C     0.84121   0.13155   0.92360   0.00000  Uiso   1.00
C298   C     0.80227   0.12586   0.98331   0.00000  Uiso   1.00
C299   C     0.80107   0.19749   0.07227   0.00000  Uiso   1.00
H300   H     0.94521   0.25630   0.89713   0.00000  Uiso   1.00
H301   H     0.94089   0.38181   0.72670   0.00000  Uiso   1.00
H302   H     0.00022   0.07241   0.91020   0.00000  Uiso   1.00
H303   H     0.90474   0.33550   0.06238   0.00000  Uiso   1.00
H304   H     0.92003   0.48804   0.52532   0.00000  Uiso   1.00
H305   H     0.04513   0.83563   0.91229   0.00000  Uiso   1.00
H306   H     0.84379   0.39041   0.23318   0.00000  Uiso   1.00
H307   H     0.82134   0.00284   0.80152   0.00000  Uiso   1.00
H308   H     0.81021   0.11445   0.62584   0.00000  Uiso   1.00
H309   H     0.86955   0.80504   0.80934   0.00000  Uiso   1.00
H310   H     0.77407   0.06813   0.96151   0.00000  Uiso   1.00
H311   H     0.81397   0.27103   0.44345   0.00000  Uiso   1.00
H312   H     0.93908   0.61862   0.83043   0.00000  Uiso   1.00
H313   H     0.73773   0.17340   0.15131   0.00000  Uiso   1.00
O314   O     0.86192   0.45750   0.37053   0.00000  Uiso   1.00
O315   O     0.02606   0.60157   0.87824   0.00000  Uiso   1.00
O316   O     0.76190   0.32942   0.29923   0.00000  Uiso   1.00
N317   N     0.89659   0.42167   0.53017   0.00000  Uiso   1.00
N318   N     0.01356   0.81171   0.89195   0.00000  Uiso   1.00
N319   N     0.82532   0.33035   0.19197   0.00000  Uiso   1.00
N320   N     0.83952   0.30490   0.48612   0.00000  Uiso   1.00
N321   N     0.95649   0.69494   0.84790   0.00000  Uiso   1.00
N322   N     0.76825   0.21358   0.14792   0.00000  Uiso   1.00
C323   C     0.58317   0.30176   0.37522   0.00000  Uiso   1.00
C324   C     0.60270   0.26871   0.26937   0.00000  Uiso   1.00
C325   C     0.58733   0.17588   0.20490   0.00000  Uiso   1.00
C326   C     0.60972   0.16027   0.11118   0.00000  Uiso   1.00
C327   C     0.63449   0.09764   0.95107   0.00000  Uiso   1.00
C328   C     0.57046   0.43682   0.36906   0.00000  Uiso   1.00
C329   C     0.52798   0.48534   0.38842   0.00000  Uiso   1.00
C330   C     0.52324   0.61124   0.37863   0.00000  Uiso   1.00
C331   C     0.49796   0.80962   0.37338   0.00000  Uiso   1.00
C332   C     0.62234   0.29386   0.45173   0.00000  Uiso   1.00
C333   C     0.62348   0.22221   0.54063   0.00000  Uiso   1.00
C334   C     0.66241   0.22778   0.60046   0.00000  Uiso   1.00
C335   C     0.71768   0.20420   0.72356   0.00000  Uiso   1.00
C336   C     0.65028   0.43908   0.32342   0.00000  Uiso   1.00
C337   C     0.63915   0.34330   0.24124   0.00000  Uiso   1.00
C338   C     0.66158   0.32782   0.14759   0.00000  Uiso   1.00
C339   C     0.64624   0.23498   0.08299   0.00000  Uiso   1.00
C340   C     0.60691   0.51141   0.34093   0.00000  Uiso   1.00
C341   C     0.60223   0.63727   0.33111   0.00000  Uiso   1.00
C342   C     0.55976   0.68597   0.35045   0.00000  Uiso   1.00
C343   C     0.65879   0.36845   0.42360   0.00000  Uiso   1.00
C344   C     0.69773   0.37414   0.48331   0.00000  Uiso   1.00
C345   C     0.69893   0.30251   0.57227   0.00000  Uiso   1.00
H346   H     0.55479   0.24370   0.39713   0.00000  Uiso   1.00
H347   H     0.55911   0.11819   0.22670   0.00000  Uiso   1.00
H348   H     0.49978   0.42759   0.41020   0.00000  Uiso   1.00
H349   H     0.59526   0.16450   0.56238   0.00000  Uiso   1.00
H350   H     0.57997   0.01196   0.02532   0.00000  Uiso   1.00
H351   H     0.45487   0.66437   0.41229   0.00000  Uiso   1.00
H352   H     0.65621   0.10959   0.73318   0.00000  Uiso   1.00
H353   H     0.67866   0.49716   0.30152   0.00000  Uiso   1.00
H354   H     0.68979   0.38555   0.12584   0.00000  Uiso   1.00
H355   H     0.63045   0.69496   0.30934   0.00000  Uiso   1.00
H356   H     0.72593   0.43187   0.46151   0.00000  Uiso   1.00
H357   H     0.68603   0.22897   0.94345   0.00000  Uiso   1.00
H358   H     0.56092   0.88138   0.33043   0.00000  Uiso   1.00
H359   H     0.76227   0.32660   0.65131   0.00000  Uiso   1.00
O360   O     0.63808   0.04250   0.87053   0.00000  Uiso   1.00
O361   O     0.47394   0.89843   0.37824   0.00000  Uiso   1.00
O362   O     0.73810   0.17058   0.79923   0.00000  Uiso   1.00
N363   N     0.60341   0.07833   0.03017   0.00000  Uiso   1.00
N364   N     0.48644   0.68829   0.39195   0.00000  Uiso   1.00
N365   N     0.67468   0.16965   0.69197   0.00000  Uiso   1.00
N366   N     0.66048   0.19510   0.98612   0.00000  Uiso   1.00
N367   N     0.54351   0.80506   0.34790   0.00000  Uiso   1.00
N368   N     0.73175   0.28642   0.64792   0.00000  Uiso   1.00
