data_job_02125
_audit_creation_date              2018-12-19
_audit_creation_method            'Materials Studio'
_symmetry_space_group_name_H-M    'P1'
_symmetry_Int_Tables_number       1
_symmetry_cell_setting            triclinic
loop_
_symmetry_equiv_pos_as_xyz
  x,y,z
_cell_length_a                    21.2977
_cell_length_b                    21.2977
_cell_length_c                    12.4066
_cell_angle_alpha                 90.0000
_cell_angle_beta                  90.0000
_cell_angle_gamma                 90.0000
loop_
_atom_site_label
_atom_site_type_symbol
_atom_site_fract_x
_atom_site_fract_y
_atom_site_fract_z
_atom_site_U_iso_or_equiv
_atom_site_adp_type
_atom_site_occupancy
C1     C     0.79109   0.82201   0.11009   0.00000  Uiso   1.00
C2     C     0.72972   0.85612   0.13412   0.00000  Uiso   1.00
C3     C     0.67002   0.83036   0.12677   0.00000  Uiso   1.00
C4     C     0.61987   0.86928   0.15215   0.00000  Uiso   1.00
C5     C     0.52315   0.91276   0.18462   0.00000  Uiso   1.00
C6     C     0.82438   0.86093   0.02419   0.00000  Uiso   1.00
C7     C     0.84429   0.83921   0.92442   0.00000  Uiso   1.00
C8     C     0.87383   0.88219   0.85728   0.00000  Uiso   1.00
C9     C     0.92413   0.93312   0.71911   0.00000  Uiso   1.00
C10    C     0.83088   0.82776   0.21179   0.00000  Uiso   1.00
C11    C     0.85627   0.77814   0.26973   0.00000  Uiso   1.00
C12    C     0.89130   0.79319   0.36051   0.00000  Uiso   1.00
C13    C     0.95169   0.79261   0.51361   0.00000  Uiso   1.00
C14    C     0.80817   0.93697   0.16825   0.00000  Uiso   1.00
C15    C     0.73900   0.91857   0.16571   0.00000  Uiso   1.00
C16    C     0.68892   0.95754   0.19112   0.00000  Uiso   1.00
C17    C     0.62916   0.93184   0.18380   0.00000  Uiso   1.00
C18    C     0.83366   0.92337   0.05578   0.00000  Uiso   1.00
C19    C     0.86318   0.96640   0.98877   0.00000  Uiso   1.00
C20    C     0.88312   0.94474   0.88892   0.00000  Uiso   1.00
C21    C     0.84016   0.89020   0.24338   0.00000  Uiso   1.00
C22    C     0.87516   0.90533   0.33409   0.00000  Uiso   1.00
C23    C     0.90060   0.85574   0.39216   0.00000  Uiso   1.00
H24    H     0.78387   0.77340   0.08549   0.00000  Uiso   1.00
H25    H     0.66286   0.78203   0.10231   0.00000  Uiso   1.00
H26    H     0.83711   0.79088   0.90000   0.00000  Uiso   1.00
H27    H     0.84908   0.72982   0.24526   0.00000  Uiso   1.00
H28    H     0.53279   0.81915   0.13485   0.00000  Uiso   1.00
H29    H     0.90021   0.83780   0.70829   0.00000  Uiso   1.00
H30    H     0.92547   0.70905   0.43634   0.00000  Uiso   1.00
H31    H     0.81540   0.98559   0.19284   0.00000  Uiso   1.00
H32    H     0.69611   0.00586   0.21556   0.00000  Uiso   1.00
H33    H     0.87036   0.01471   0.01325   0.00000  Uiso   1.00
H34    H     0.88233   0.95365   0.35851   0.00000  Uiso   1.00
H35    H     0.55978   0.00082   0.22677   0.00000  Uiso   1.00
H36    H     0.92720   0.01947   0.80021   0.00000  Uiso   1.00
H37    H     0.95246   0.89072   0.52825   0.00000  Uiso   1.00
O38    O     0.46724   0.91950   0.19378   0.00000  Uiso   1.00
O39    O     0.94930   0.94396   0.63416   0.00000  Uiso   1.00
O40    O     0.98243   0.77504   0.58934   0.00000  Uiso   1.00
N41    N     0.55551   0.85912   0.15339   0.00000  Uiso   1.00
N42    N     0.89902   0.87656   0.75457   0.00000  Uiso   1.00
N43    N     0.92265   0.75618   0.43522   0.00000  Uiso   1.00
N44    N     0.57003   0.95687   0.20285   0.00000  Uiso   1.00
N45    N     0.91354   0.97431   0.80403   0.00000  Uiso   1.00
N46    N     0.93717   0.85394   0.48468   0.00000  Uiso   1.00
C47    C     0.20891   0.17799   0.11009   0.00000  Uiso   1.00
C48    C     0.27028   0.14388   0.13412   0.00000  Uiso   1.00
C49    C     0.32998   0.16964   0.12677   0.00000  Uiso   1.00
C50    C     0.38013   0.13072   0.15215   0.00000  Uiso   1.00
C51    C     0.47685   0.08724   0.18462   0.00000  Uiso   1.00
C52    C     0.17562   0.13907   0.02419   0.00000  Uiso   1.00
C53    C     0.15571   0.16079   0.92442   0.00000  Uiso   1.00
C54    C     0.12617   0.11781   0.85728   0.00000  Uiso   1.00
C55    C     0.07587   0.06688   0.71911   0.00000  Uiso   1.00
C56    C     0.16912   0.17224   0.21179   0.00000  Uiso   1.00
C57    C     0.14373   0.22186   0.26973   0.00000  Uiso   1.00
C58    C     0.10870   0.20681   0.36051   0.00000  Uiso   1.00
C59    C     0.04831   0.20739   0.51361   0.00000  Uiso   1.00
C60    C     0.19183   0.06303   0.16825   0.00000  Uiso   1.00
C61    C     0.26100   0.08143   0.16571   0.00000  Uiso   1.00
C62    C     0.31108   0.04246   0.19112   0.00000  Uiso   1.00
C63    C     0.37084   0.06816   0.18380   0.00000  Uiso   1.00
C64    C     0.16634   0.07663   0.05578   0.00000  Uiso   1.00
C65    C     0.13682   0.03360   0.98877   0.00000  Uiso   1.00
C66    C     0.11688   0.05526   0.88892   0.00000  Uiso   1.00
C67    C     0.15984   0.10980   0.24338   0.00000  Uiso   1.00
C68    C     0.12484   0.09467   0.33409   0.00000  Uiso   1.00
C69    C     0.09940   0.14426   0.39216   0.00000  Uiso   1.00
H70    H     0.21613   0.22660   0.08549   0.00000  Uiso   1.00
H71    H     0.33714   0.21797   0.10231   0.00000  Uiso   1.00
H72    H     0.16289   0.20912   0.90000   0.00000  Uiso   1.00
H73    H     0.15092   0.27018   0.24526   0.00000  Uiso   1.00
H74    H     0.46721   0.18085   0.13485   0.00000  Uiso   1.00
H75    H     0.09979   0.16220   0.70829   0.00000  Uiso   1.00
H76    H     0.07453   0.29095   0.43634   0.00000  Uiso   1.00
H77    H     0.18460   0.01441   0.19284   0.00000  Uiso   1.00
H78    H     0.30389   0.99414   0.21556   0.00000  Uiso   1.00
H79    H     0.12964   0.98529   0.01325   0.00000  Uiso   1.00
H80    H     0.11767   0.04635   0.35851   0.00000  Uiso   1.00
H81    H     0.44022   0.99918   0.22677   0.00000  Uiso   1.00
H82    H     0.07280   0.98053   0.80021   0.00000  Uiso   1.00
H83    H     0.04754   0.10928   0.52825   0.00000  Uiso   1.00
O84    O     0.53276   0.08050   0.19378   0.00000  Uiso   1.00
O85    O     0.05070   0.05604   0.63416   0.00000  Uiso   1.00
O86    O     0.01757   0.22496   0.58934   0.00000  Uiso   1.00
N87    N     0.44449   0.14088   0.15339   0.00000  Uiso   1.00
N88    N     0.10098   0.12344   0.75457   0.00000  Uiso   1.00
N89    N     0.07735   0.24382   0.43522   0.00000  Uiso   1.00
N90    N     0.42997   0.04313   0.20285   0.00000  Uiso   1.00
N91    N     0.08646   0.02569   0.80403   0.00000  Uiso   1.00
N92    N     0.06283   0.14606   0.48468   0.00000  Uiso   1.00
C93    C     0.82201   0.20891   0.88991   0.00000  Uiso   1.00
C94    C     0.85612   0.27028   0.86588   0.00000  Uiso   1.00
C95    C     0.83036   0.32998   0.87323   0.00000  Uiso   1.00
C96    C     0.86928   0.38013   0.84785   0.00000  Uiso   1.00
C97    C     0.91276   0.47685   0.81538   0.00000  Uiso   1.00
C98    C     0.86093   0.17562   0.97581   0.00000  Uiso   1.00
C99    C     0.83921   0.15571   0.07558   0.00000  Uiso   1.00
C100   C     0.88219   0.12617   0.14272   0.00000  Uiso   1.00
C101   C     0.93312   0.07587   0.28089   0.00000  Uiso   1.00
C102   C     0.82776   0.16912   0.78821   0.00000  Uiso   1.00
C103   C     0.77814   0.14373   0.73027   0.00000  Uiso   1.00
C104   C     0.79319   0.10870   0.63949   0.00000  Uiso   1.00
C105   C     0.79261   0.04831   0.48639   0.00000  Uiso   1.00
C106   C     0.93697   0.19183   0.83175   0.00000  Uiso   1.00
C107   C     0.91857   0.26100   0.83429   0.00000  Uiso   1.00
C108   C     0.95754   0.31108   0.80888   0.00000  Uiso   1.00
C109   C     0.93184   0.37084   0.81620   0.00000  Uiso   1.00
C110   C     0.92337   0.16634   0.94422   0.00000  Uiso   1.00
C111   C     0.96640   0.13682   0.01123   0.00000  Uiso   1.00
C112   C     0.94474   0.11688   0.11108   0.00000  Uiso   1.00
C113   C     0.89020   0.15984   0.75662   0.00000  Uiso   1.00
C114   C     0.90533   0.12484   0.66591   0.00000  Uiso   1.00
C115   C     0.85574   0.09940   0.60784   0.00000  Uiso   1.00
H116   H     0.77340   0.21613   0.91451   0.00000  Uiso   1.00
H117   H     0.78203   0.33714   0.89769   0.00000  Uiso   1.00
H118   H     0.79088   0.16289   0.10000   0.00000  Uiso   1.00
H119   H     0.72982   0.15092   0.75474   0.00000  Uiso   1.00
H120   H     0.81915   0.46721   0.86515   0.00000  Uiso   1.00
H121   H     0.83780   0.09979   0.29171   0.00000  Uiso   1.00
H122   H     0.70905   0.07453   0.56366   0.00000  Uiso   1.00
H123   H     0.98559   0.18460   0.80716   0.00000  Uiso   1.00
H124   H     0.00586   0.30389   0.78444   0.00000  Uiso   1.00
H125   H     0.01471   0.12964   0.98675   0.00000  Uiso   1.00
H126   H     0.95365   0.11767   0.64149   0.00000  Uiso   1.00
H127   H     0.00082   0.44022   0.77323   0.00000  Uiso   1.00
H128   H     0.01947   0.07280   0.19979   0.00000  Uiso   1.00
H129   H     0.89072   0.04754   0.47175   0.00000  Uiso   1.00
O130   O     0.91950   0.53276   0.80622   0.00000  Uiso   1.00
O131   O     0.94396   0.05070   0.36584   0.00000  Uiso   1.00
O132   O     0.77504   0.01757   0.41066   0.00000  Uiso   1.00
N133   N     0.85912   0.44449   0.84661   0.00000  Uiso   1.00
N134   N     0.87656   0.10098   0.24543   0.00000  Uiso   1.00
N135   N     0.75618   0.07735   0.56478   0.00000  Uiso   1.00
N136   N     0.95687   0.42997   0.79715   0.00000  Uiso   1.00
N137   N     0.97431   0.08646   0.19597   0.00000  Uiso   1.00
N138   N     0.85394   0.06283   0.51532   0.00000  Uiso   1.00
C139   C     0.17799   0.79109   0.88991   0.00000  Uiso   1.00
C140   C     0.14388   0.72972   0.86588   0.00000  Uiso   1.00
C141   C     0.16964   0.67002   0.87323   0.00000  Uiso   1.00
C142   C     0.13072   0.61987   0.84785   0.00000  Uiso   1.00
C143   C     0.08724   0.52315   0.81538   0.00000  Uiso   1.00
C144   C     0.13907   0.82438   0.97581   0.00000  Uiso   1.00
C145   C     0.16079   0.84429   0.07558   0.00000  Uiso   1.00
C146   C     0.11781   0.87383   0.14272   0.00000  Uiso   1.00
C147   C     0.06688   0.92413   0.28089   0.00000  Uiso   1.00
C148   C     0.17224   0.83088   0.78821   0.00000  Uiso   1.00
C149   C     0.22186   0.85627   0.73027   0.00000  Uiso   1.00
C150   C     0.20681   0.89130   0.63949   0.00000  Uiso   1.00
C151   C     0.20739   0.95169   0.48639   0.00000  Uiso   1.00
C152   C     0.06303   0.80817   0.83175   0.00000  Uiso   1.00
C153   C     0.08143   0.73900   0.83429   0.00000  Uiso   1.00
C154   C     0.04246   0.68892   0.80888   0.00000  Uiso   1.00
C155   C     0.06816   0.62916   0.81620   0.00000  Uiso   1.00
C156   C     0.07663   0.83366   0.94422   0.00000  Uiso   1.00
C157   C     0.03360   0.86318   0.01123   0.00000  Uiso   1.00
C158   C     0.05526   0.88312   0.11108   0.00000  Uiso   1.00
C159   C     0.10980   0.84016   0.75662   0.00000  Uiso   1.00
C160   C     0.09467   0.87516   0.66591   0.00000  Uiso   1.00
C161   C     0.14426   0.90060   0.60784   0.00000  Uiso   1.00
H162   H     0.22660   0.78387   0.91451   0.00000  Uiso   1.00
H163   H     0.21797   0.66286   0.89769   0.00000  Uiso   1.00
H164   H     0.20912   0.83711   0.10000   0.00000  Uiso   1.00
H165   H     0.27018   0.84908   0.75474   0.00000  Uiso   1.00
H166   H     0.18085   0.53279   0.86515   0.00000  Uiso   1.00
H167   H     0.16220   0.90021   0.29171   0.00000  Uiso   1.00
H168   H     0.29095   0.92547   0.56366   0.00000  Uiso   1.00
H169   H     0.01441   0.81540   0.80716   0.00000  Uiso   1.00
H170   H     0.99414   0.69611   0.78444   0.00000  Uiso   1.00
H171   H     0.98529   0.87036   0.98675   0.00000  Uiso   1.00
H172   H     0.04635   0.88233   0.64149   0.00000  Uiso   1.00
H173   H     0.99918   0.55978   0.77323   0.00000  Uiso   1.00
H174   H     0.98053   0.92720   0.19979   0.00000  Uiso   1.00
H175   H     0.10928   0.95246   0.47175   0.00000  Uiso   1.00
O176   O     0.08050   0.46724   0.80622   0.00000  Uiso   1.00
O177   O     0.05604   0.94930   0.36584   0.00000  Uiso   1.00
O178   O     0.22496   0.98243   0.41066   0.00000  Uiso   1.00
N179   N     0.14088   0.55551   0.84661   0.00000  Uiso   1.00
N180   N     0.12344   0.89902   0.24543   0.00000  Uiso   1.00
N181   N     0.24382   0.92265   0.56478   0.00000  Uiso   1.00
N182   N     0.04313   0.57003   0.79715   0.00000  Uiso   1.00
N183   N     0.02569   0.91354   0.19597   0.00000  Uiso   1.00
N184   N     0.14606   0.93717   0.51532   0.00000  Uiso   1.00
C185   C     0.29109   0.67799   0.11009   0.00000  Uiso   1.00
C186   C     0.22972   0.64388   0.13412   0.00000  Uiso   1.00
C187   C     0.17002   0.66964   0.12677   0.00000  Uiso   1.00
C188   C     0.11987   0.63072   0.15215   0.00000  Uiso   1.00
C189   C     0.02315   0.58724   0.18462   0.00000  Uiso   1.00
C190   C     0.32438   0.63907   0.02419   0.00000  Uiso   1.00
C191   C     0.34429   0.66079   0.92442   0.00000  Uiso   1.00
C192   C     0.37383   0.61781   0.85728   0.00000  Uiso   1.00
C193   C     0.42413   0.56688   0.71911   0.00000  Uiso   1.00
C194   C     0.33088   0.67224   0.21179   0.00000  Uiso   1.00
C195   C     0.35627   0.72186   0.26973   0.00000  Uiso   1.00
C196   C     0.39130   0.70681   0.36051   0.00000  Uiso   1.00
C197   C     0.45169   0.70739   0.51361   0.00000  Uiso   1.00
C198   C     0.30817   0.56303   0.16825   0.00000  Uiso   1.00
C199   C     0.23900   0.58143   0.16571   0.00000  Uiso   1.00
C200   C     0.18892   0.54246   0.19112   0.00000  Uiso   1.00
C201   C     0.12916   0.56816   0.18380   0.00000  Uiso   1.00
C202   C     0.33366   0.57663   0.05578   0.00000  Uiso   1.00
C203   C     0.36318   0.53360   0.98877   0.00000  Uiso   1.00
C204   C     0.38312   0.55526   0.88892   0.00000  Uiso   1.00
C205   C     0.34016   0.60980   0.24338   0.00000  Uiso   1.00
C206   C     0.37516   0.59467   0.33409   0.00000  Uiso   1.00
C207   C     0.40060   0.64426   0.39216   0.00000  Uiso   1.00
H208   H     0.28387   0.72660   0.08549   0.00000  Uiso   1.00
H209   H     0.16286   0.71797   0.10231   0.00000  Uiso   1.00
H210   H     0.33711   0.70912   0.90000   0.00000  Uiso   1.00
H211   H     0.34908   0.77018   0.24526   0.00000  Uiso   1.00
H212   H     0.03279   0.68085   0.13485   0.00000  Uiso   1.00
H213   H     0.40021   0.66220   0.70829   0.00000  Uiso   1.00
H214   H     0.42547   0.79095   0.43634   0.00000  Uiso   1.00
H215   H     0.31540   0.51441   0.19284   0.00000  Uiso   1.00
H216   H     0.19611   0.49414   0.21556   0.00000  Uiso   1.00
H217   H     0.37036   0.48529   0.01325   0.00000  Uiso   1.00
H218   H     0.38233   0.54635   0.35851   0.00000  Uiso   1.00
H219   H     0.05978   0.49918   0.22677   0.00000  Uiso   1.00
H220   H     0.42720   0.48053   0.80021   0.00000  Uiso   1.00
H221   H     0.45246   0.60928   0.52825   0.00000  Uiso   1.00
O222   O     0.96724   0.58050   0.19378   0.00000  Uiso   1.00
O223   O     0.44930   0.55604   0.63416   0.00000  Uiso   1.00
O224   O     0.48243   0.72496   0.58934   0.00000  Uiso   1.00
N225   N     0.05551   0.64088   0.15339   0.00000  Uiso   1.00
N226   N     0.39902   0.62344   0.75457   0.00000  Uiso   1.00
N227   N     0.42265   0.74382   0.43522   0.00000  Uiso   1.00
N228   N     0.07003   0.54313   0.20285   0.00000  Uiso   1.00
N229   N     0.41354   0.52569   0.80403   0.00000  Uiso   1.00
N230   N     0.43717   0.64606   0.48468   0.00000  Uiso   1.00
C231   C     0.70891   0.32201   0.11009   0.00000  Uiso   1.00
C232   C     0.77028   0.35612   0.13412   0.00000  Uiso   1.00
C233   C     0.82998   0.33036   0.12677   0.00000  Uiso   1.00
C234   C     0.88013   0.36928   0.15215   0.00000  Uiso   1.00
C235   C     0.97685   0.41276   0.18462   0.00000  Uiso   1.00
C236   C     0.67562   0.36093   0.02419   0.00000  Uiso   1.00
C237   C     0.65571   0.33921   0.92442   0.00000  Uiso   1.00
C238   C     0.62617   0.38219   0.85728   0.00000  Uiso   1.00
C239   C     0.57587   0.43312   0.71911   0.00000  Uiso   1.00
C240   C     0.66912   0.32776   0.21179   0.00000  Uiso   1.00
C241   C     0.64373   0.27814   0.26973   0.00000  Uiso   1.00
C242   C     0.60870   0.29319   0.36051   0.00000  Uiso   1.00
C243   C     0.54831   0.29261   0.51361   0.00000  Uiso   1.00
C244   C     0.69183   0.43697   0.16825   0.00000  Uiso   1.00
C245   C     0.76100   0.41857   0.16571   0.00000  Uiso   1.00
C246   C     0.81108   0.45754   0.19112   0.00000  Uiso   1.00
C247   C     0.87084   0.43184   0.18380   0.00000  Uiso   1.00
C248   C     0.66634   0.42337   0.05578   0.00000  Uiso   1.00
C249   C     0.63682   0.46640   0.98877   0.00000  Uiso   1.00
C250   C     0.61688   0.44474   0.88892   0.00000  Uiso   1.00
C251   C     0.65984   0.39020   0.24338   0.00000  Uiso   1.00
C252   C     0.62484   0.40533   0.33409   0.00000  Uiso   1.00
C253   C     0.59940   0.35574   0.39216   0.00000  Uiso   1.00
H254   H     0.71613   0.27340   0.08549   0.00000  Uiso   1.00
H255   H     0.83714   0.28203   0.10231   0.00000  Uiso   1.00
H256   H     0.66289   0.29088   0.90000   0.00000  Uiso   1.00
H257   H     0.65092   0.22982   0.24526   0.00000  Uiso   1.00
H258   H     0.96721   0.31915   0.13485   0.00000  Uiso   1.00
H259   H     0.59979   0.33780   0.70829   0.00000  Uiso   1.00
H260   H     0.57453   0.20905   0.43634   0.00000  Uiso   1.00
H261   H     0.68460   0.48559   0.19284   0.00000  Uiso   1.00
H262   H     0.80389   0.50586   0.21556   0.00000  Uiso   1.00
H263   H     0.62964   0.51471   0.01325   0.00000  Uiso   1.00
H264   H     0.61767   0.45365   0.35851   0.00000  Uiso   1.00
H265   H     0.94022   0.50082   0.22677   0.00000  Uiso   1.00
H266   H     0.57280   0.51947   0.80021   0.00000  Uiso   1.00
H267   H     0.54754   0.39072   0.52825   0.00000  Uiso   1.00
O268   O     0.03276   0.41950   0.19378   0.00000  Uiso   1.00
O269   O     0.55070   0.44396   0.63416   0.00000  Uiso   1.00
O270   O     0.51757   0.27504   0.58934   0.00000  Uiso   1.00
N271   N     0.94449   0.35912   0.15339   0.00000  Uiso   1.00
N272   N     0.60098   0.37656   0.75457   0.00000  Uiso   1.00
N273   N     0.57735   0.25618   0.43522   0.00000  Uiso   1.00
N274   N     0.92997   0.45687   0.20285   0.00000  Uiso   1.00
N275   N     0.58646   0.47431   0.80403   0.00000  Uiso   1.00
N276   N     0.56283   0.35394   0.48468   0.00000  Uiso   1.00
C277   C     0.32201   0.29109   0.88991   0.00000  Uiso   1.00
C278   C     0.35612   0.22972   0.86588   0.00000  Uiso   1.00
C279   C     0.33036   0.17002   0.87323   0.00000  Uiso   1.00
C280   C     0.36928   0.11987   0.84785   0.00000  Uiso   1.00
C281   C     0.41276   0.02315   0.81538   0.00000  Uiso   1.00
C282   C     0.36093   0.32438   0.97581   0.00000  Uiso   1.00
C283   C     0.33921   0.34429   0.07558   0.00000  Uiso   1.00
C284   C     0.38219   0.37383   0.14272   0.00000  Uiso   1.00
C285   C     0.43312   0.42413   0.28089   0.00000  Uiso   1.00
C286   C     0.32776   0.33088   0.78821   0.00000  Uiso   1.00
C287   C     0.27814   0.35627   0.73027   0.00000  Uiso   1.00
C288   C     0.29319   0.39130   0.63949   0.00000  Uiso   1.00
C289   C     0.29261   0.45169   0.48639   0.00000  Uiso   1.00
C290   C     0.43697   0.30817   0.83175   0.00000  Uiso   1.00
C291   C     0.41857   0.23900   0.83429   0.00000  Uiso   1.00
C292   C     0.45754   0.18892   0.80888   0.00000  Uiso   1.00
C293   C     0.43184   0.12916   0.81620   0.00000  Uiso   1.00
C294   C     0.42337   0.33366   0.94422   0.00000  Uiso   1.00
C295   C     0.46640   0.36318   0.01123   0.00000  Uiso   1.00
C296   C     0.44474   0.38312   0.11108   0.00000  Uiso   1.00
C297   C     0.39020   0.34016   0.75662   0.00000  Uiso   1.00
C298   C     0.40533   0.37516   0.66591   0.00000  Uiso   1.00
C299   C     0.35574   0.40060   0.60784   0.00000  Uiso   1.00
H300   H     0.27340   0.28387   0.91451   0.00000  Uiso   1.00
H301   H     0.28203   0.16286   0.89769   0.00000  Uiso   1.00
H302   H     0.29088   0.33711   0.10000   0.00000  Uiso   1.00
H303   H     0.22982   0.34908   0.75474   0.00000  Uiso   1.00
H304   H     0.31915   0.03279   0.86515   0.00000  Uiso   1.00
H305   H     0.33780   0.40021   0.29171   0.00000  Uiso   1.00
H306   H     0.20905   0.42547   0.56366   0.00000  Uiso   1.00
H307   H     0.48559   0.31540   0.80716   0.00000  Uiso   1.00
H308   H     0.50586   0.19611   0.78444   0.00000  Uiso   1.00
H309   H     0.51471   0.37036   0.98675   0.00000  Uiso   1.00
H310   H     0.45365   0.38233   0.64149   0.00000  Uiso   1.00
H311   H     0.50082   0.05978   0.77323   0.00000  Uiso   1.00
H312   H     0.51947   0.42720   0.19979   0.00000  Uiso   1.00
H313   H     0.39072   0.45246   0.47175   0.00000  Uiso   1.00
O314   O     0.41950   0.96724   0.80622   0.00000  Uiso   1.00
O315   O     0.44396   0.44930   0.36584   0.00000  Uiso   1.00
O316   O     0.27504   0.48243   0.41066   0.00000  Uiso   1.00
N317   N     0.35912   0.05551   0.84661   0.00000  Uiso   1.00
N318   N     0.37656   0.39902   0.24543   0.00000  Uiso   1.00
N319   N     0.25618   0.42265   0.56478   0.00000  Uiso   1.00
N320   N     0.45687   0.07003   0.79715   0.00000  Uiso   1.00
N321   N     0.47431   0.41354   0.19597   0.00000  Uiso   1.00
N322   N     0.35394   0.43717   0.51532   0.00000  Uiso   1.00
C323   C     0.67799   0.70891   0.88991   0.00000  Uiso   1.00
C324   C     0.64388   0.77028   0.86588   0.00000  Uiso   1.00
C325   C     0.66964   0.82998   0.87323   0.00000  Uiso   1.00
C326   C     0.63072   0.88013   0.84785   0.00000  Uiso   1.00
C327   C     0.58724   0.97685   0.81538   0.00000  Uiso   1.00
C328   C     0.63907   0.67562   0.97581   0.00000  Uiso   1.00
C329   C     0.66079   0.65571   0.07558   0.00000  Uiso   1.00
C330   C     0.61781   0.62617   0.14272   0.00000  Uiso   1.00
C331   C     0.56688   0.57587   0.28089   0.00000  Uiso   1.00
C332   C     0.67224   0.66912   0.78821   0.00000  Uiso   1.00
C333   C     0.72186   0.64373   0.73027   0.00000  Uiso   1.00
C334   C     0.70681   0.60870   0.63949   0.00000  Uiso   1.00
C335   C     0.70739   0.54831   0.48639   0.00000  Uiso   1.00
C336   C     0.56303   0.69183   0.83175   0.00000  Uiso   1.00
C337   C     0.58143   0.76100   0.83429   0.00000  Uiso   1.00
C338   C     0.54246   0.81108   0.80888   0.00000  Uiso   1.00
C339   C     0.56816   0.87084   0.81620   0.00000  Uiso   1.00
C340   C     0.57663   0.66634   0.94422   0.00000  Uiso   1.00
C341   C     0.53360   0.63682   0.01123   0.00000  Uiso   1.00
C342   C     0.55526   0.61688   0.11108   0.00000  Uiso   1.00
C343   C     0.60980   0.65984   0.75662   0.00000  Uiso   1.00
C344   C     0.59467   0.62484   0.66591   0.00000  Uiso   1.00
C345   C     0.64426   0.59940   0.60784   0.00000  Uiso   1.00
H346   H     0.72660   0.71613   0.91451   0.00000  Uiso   1.00
H347   H     0.71797   0.83714   0.89769   0.00000  Uiso   1.00
H348   H     0.70912   0.66289   0.10000   0.00000  Uiso   1.00
H349   H     0.77018   0.65092   0.75474   0.00000  Uiso   1.00
H350   H     0.68085   0.96721   0.86515   0.00000  Uiso   1.00
H351   H     0.66220   0.59979   0.29171   0.00000  Uiso   1.00
H352   H     0.79095   0.57453   0.56366   0.00000  Uiso   1.00
H353   H     0.51441   0.68460   0.80716   0.00000  Uiso   1.00
H354   H     0.49414   0.80389   0.78444   0.00000  Uiso   1.00
H355   H     0.48529   0.62964   0.98675   0.00000  Uiso   1.00
H356   H     0.54635   0.61767   0.64149   0.00000  Uiso   1.00
H357   H     0.49918   0.94022   0.77323   0.00000  Uiso   1.00
H358   H     0.48053   0.57280   0.19979   0.00000  Uiso   1.00
H359   H     0.60928   0.54754   0.47175   0.00000  Uiso   1.00
O360   O     0.58050   0.03276   0.80622   0.00000  Uiso   1.00
O361   O     0.55604   0.55070   0.36584   0.00000  Uiso   1.00
O362   O     0.72496   0.51757   0.41066   0.00000  Uiso   1.00
N363   N     0.64088   0.94449   0.84661   0.00000  Uiso   1.00
N364   N     0.62344   0.60098   0.24543   0.00000  Uiso   1.00
N365   N     0.74382   0.57735   0.56478   0.00000  Uiso   1.00
N366   N     0.54313   0.92997   0.79715   0.00000  Uiso   1.00
N367   N     0.52569   0.58646   0.19597   0.00000  Uiso   1.00
N368   N     0.64606   0.56283   0.51532   0.00000  Uiso   1.00
