data_job_04549
_audit_creation_date              2018-12-19
_audit_creation_method            'Materials Studio'
_symmetry_space_group_name_H-M    'P1'
_symmetry_Int_Tables_number       1
_symmetry_cell_setting            triclinic
loop_
_symmetry_equiv_pos_as_xyz
  x,y,z
_cell_length_a                    11.3290
_cell_length_b                    20.0410
_cell_length_c                    21.5450
_cell_angle_alpha                 90.0000
_cell_angle_beta                  117.0460
_cell_angle_gamma                 90.0000
loop_
_atom_site_label
_atom_site_type_symbol
_atom_site_fract_x
_atom_site_fract_y
_atom_site_fract_z
_atom_site_U_iso_or_equiv
_atom_site_adp_type
_atom_site_occupancy
C1     C     0.75735   0.13038   0.37030   0.00000  Uiso   1.00
C2     C     0.74514   0.10503   0.30090   0.00000  Uiso   1.00
C3     C     0.67204   0.05003   0.26446   0.00000  Uiso   1.00
C4     C     0.67357   0.03499   0.20193   0.00000  Uiso   1.00
C5     C     0.64370   0.98973   0.09800   0.00000  Uiso   1.00
C6     C     0.90530   0.13181   0.42006   0.00000  Uiso   1.00
C7     C     0.96685   0.09933   0.48383   0.00000  Uiso   1.00
C8     C     0.10320   0.10684   0.52161   0.00000  Uiso   1.00
C9     C     0.32196   0.10319   0.60271   0.00000  Uiso   1.00
C10    C     0.71255   0.20304   0.35825   0.00000  Uiso   1.00
C11    C     0.61205   0.23045   0.37005   0.00000  Uiso   1.00
C12    C     0.58614   0.29794   0.35580   0.00000  Uiso   1.00
C13    C     0.50563   0.40488   0.34092   0.00000  Uiso   1.00
C14    C     0.89004   0.20149   0.32403   0.00000  Uiso   1.00
C15    C     0.81722   0.14365   0.27576   0.00000  Uiso   1.00
C16    C     0.81885   0.12870   0.21326   0.00000  Uiso   1.00
C17    C     0.74576   0.07368   0.17674   0.00000  Uiso   1.00
C18    C     0.97737   0.17043   0.39493   0.00000  Uiso   1.00
C19    C     0.11366   0.17800   0.43263   0.00000  Uiso   1.00
C20    C     0.17540   0.14553   0.49643   0.00000  Uiso   1.00
C21    C     0.78462   0.24166   0.33311   0.00000  Uiso   1.00
C22    C     0.75886   0.30912   0.31885   0.00000  Uiso   1.00
C23    C     0.65834   0.33663   0.33062   0.00000  Uiso   1.00
H24    H     0.70124   0.10031   0.38988   0.00000  Uiso   1.00
H25    H     0.61629   0.02015   0.28394   0.00000  Uiso   1.00
H26    H     0.91105   0.06945   0.50327   0.00000  Uiso   1.00
H27    H     0.55630   0.20055   0.38950   0.00000  Uiso   1.00
H28    H     0.55392   0.94829   0.15541   0.00000  Uiso   1.00
H29    H     0.17543   0.05225   0.61789   0.00000  Uiso   1.00
H30    H     0.42739   0.32871   0.37800   0.00000  Uiso   1.00
H31    H     0.94616   0.23156   0.30446   0.00000  Uiso   1.00
H32    H     0.87463   0.15860   0.19383   0.00000  Uiso   1.00
H33    H     0.16940   0.20789   0.41316   0.00000  Uiso   1.00
H34    H     0.81465   0.33899   0.29940   0.00000  Uiso   1.00
H35    H     0.76361   0.06065   0.08228   0.00000  Uiso   1.00
H36    H     0.38512   0.16462   0.54476   0.00000  Uiso   1.00
H37    H     0.63707   0.44108   0.30487   0.00000  Uiso   1.00
O38    O     0.60734   0.95409   0.04762   0.00000  Uiso   1.00
O39    O     0.42272   0.09050   0.65438   0.00000  Uiso   1.00
O40    O     0.44130   0.45320   0.33965   0.00000  Uiso   1.00
N41    N     0.61307   0.98475   0.15337   0.00000  Uiso   1.00
N42    N     0.19414   0.08195   0.58576   0.00000  Uiso   1.00
N43    N     0.49481   0.34041   0.36150   0.00000  Uiso   1.00
N44    N     0.72590   0.04522   0.11402   0.00000  Uiso   1.00
N45    N     0.30697   0.14241   0.54641   0.00000  Uiso   1.00
N46    N     0.60764   0.40088   0.32215   0.00000  Uiso   1.00
C47    C     0.25735   0.63038   0.37030   0.00000  Uiso   1.00
C48    C     0.24514   0.60503   0.30090   0.00000  Uiso   1.00
C49    C     0.17204   0.55003   0.26446   0.00000  Uiso   1.00
C50    C     0.17357   0.53499   0.20193   0.00000  Uiso   1.00
C51    C     0.14370   0.48973   0.09800   0.00000  Uiso   1.00
C52    C     0.40530   0.63181   0.42006   0.00000  Uiso   1.00
C53    C     0.46685   0.59933   0.48383   0.00000  Uiso   1.00
C54    C     0.60320   0.60684   0.52161   0.00000  Uiso   1.00
C55    C     0.82196   0.60319   0.60271   0.00000  Uiso   1.00
C56    C     0.21255   0.70304   0.35825   0.00000  Uiso   1.00
C57    C     0.11205   0.73045   0.37005   0.00000  Uiso   1.00
C58    C     0.08614   0.79794   0.35580   0.00000  Uiso   1.00
C59    C     0.00563   0.90488   0.34092   0.00000  Uiso   1.00
C60    C     0.39004   0.70149   0.32403   0.00000  Uiso   1.00
C61    C     0.31722   0.64365   0.27576   0.00000  Uiso   1.00
C62    C     0.31885   0.62870   0.21326   0.00000  Uiso   1.00
C63    C     0.24576   0.57368   0.17674   0.00000  Uiso   1.00
C64    C     0.47737   0.67043   0.39493   0.00000  Uiso   1.00
C65    C     0.61366   0.67800   0.43263   0.00000  Uiso   1.00
C66    C     0.67540   0.64553   0.49643   0.00000  Uiso   1.00
C67    C     0.28462   0.74166   0.33311   0.00000  Uiso   1.00
C68    C     0.25886   0.80912   0.31885   0.00000  Uiso   1.00
C69    C     0.15834   0.83663   0.33062   0.00000  Uiso   1.00
H70    H     0.20124   0.60031   0.38988   0.00000  Uiso   1.00
H71    H     0.11629   0.52015   0.28394   0.00000  Uiso   1.00
H72    H     0.41105   0.56945   0.50327   0.00000  Uiso   1.00
H73    H     0.05630   0.70055   0.38950   0.00000  Uiso   1.00
H74    H     0.05392   0.44829   0.15541   0.00000  Uiso   1.00
H75    H     0.67543   0.55225   0.61789   0.00000  Uiso   1.00
H76    H     0.92739   0.82871   0.37800   0.00000  Uiso   1.00
H77    H     0.44616   0.73156   0.30446   0.00000  Uiso   1.00
H78    H     0.37463   0.65860   0.19383   0.00000  Uiso   1.00
H79    H     0.66940   0.70789   0.41316   0.00000  Uiso   1.00
H80    H     0.31465   0.83899   0.29940   0.00000  Uiso   1.00
H81    H     0.26361   0.56065   0.08228   0.00000  Uiso   1.00
H82    H     0.88512   0.66462   0.54476   0.00000  Uiso   1.00
H83    H     0.13707   0.94108   0.30487   0.00000  Uiso   1.00
O84    O     0.10734   0.45409   0.04762   0.00000  Uiso   1.00
O85    O     0.92272   0.59050   0.65438   0.00000  Uiso   1.00
O86    O     0.94130   0.95320   0.33965   0.00000  Uiso   1.00
N87    N     0.11307   0.48475   0.15337   0.00000  Uiso   1.00
N88    N     0.69414   0.58195   0.58576   0.00000  Uiso   1.00
N89    N     0.99481   0.84041   0.36150   0.00000  Uiso   1.00
N90    N     0.22590   0.54522   0.11402   0.00000  Uiso   1.00
N91    N     0.80697   0.64241   0.54641   0.00000  Uiso   1.00
N92    N     0.10764   0.90088   0.32215   0.00000  Uiso   1.00
C93    C     0.24265   0.13038   0.12970   0.00000  Uiso   1.00
C94    C     0.25486   0.10503   0.19910   0.00000  Uiso   1.00
C95    C     0.32796   0.05003   0.23554   0.00000  Uiso   1.00
C96    C     0.32643   0.03499   0.29807   0.00000  Uiso   1.00
C97    C     0.35630   0.98973   0.40200   0.00000  Uiso   1.00
C98    C     0.09470   0.13181   0.07994   0.00000  Uiso   1.00
C99    C     0.03315   0.09933   0.01617   0.00000  Uiso   1.00
C100   C     0.89680   0.10684   0.97839   0.00000  Uiso   1.00
C101   C     0.67804   0.10319   0.89729   0.00000  Uiso   1.00
C102   C     0.28745   0.20304   0.14175   0.00000  Uiso   1.00
C103   C     0.38795   0.23045   0.12995   0.00000  Uiso   1.00
C104   C     0.41386   0.29794   0.14420   0.00000  Uiso   1.00
C105   C     0.49437   0.40488   0.15908   0.00000  Uiso   1.00
C106   C     0.10996   0.20149   0.17597   0.00000  Uiso   1.00
C107   C     0.18278   0.14365   0.22424   0.00000  Uiso   1.00
C108   C     0.18115   0.12870   0.28674   0.00000  Uiso   1.00
C109   C     0.25424   0.07368   0.32326   0.00000  Uiso   1.00
C110   C     0.02263   0.17043   0.10507   0.00000  Uiso   1.00
C111   C     0.88634   0.17800   0.06737   0.00000  Uiso   1.00
C112   C     0.82460   0.14553   0.00357   0.00000  Uiso   1.00
C113   C     0.21538   0.24166   0.16689   0.00000  Uiso   1.00
C114   C     0.24114   0.30912   0.18115   0.00000  Uiso   1.00
C115   C     0.34166   0.33663   0.16938   0.00000  Uiso   1.00
H116   H     0.29876   0.10031   0.11012   0.00000  Uiso   1.00
H117   H     0.38371   0.02015   0.21606   0.00000  Uiso   1.00
H118   H     0.08895   0.06945   0.99673   0.00000  Uiso   1.00
H119   H     0.44370   0.20055   0.11050   0.00000  Uiso   1.00
H120   H     0.44608   0.94829   0.34459   0.00000  Uiso   1.00
H121   H     0.82457   0.05225   0.88211   0.00000  Uiso   1.00
H122   H     0.57261   0.32871   0.12200   0.00000  Uiso   1.00
H123   H     0.05384   0.23156   0.19554   0.00000  Uiso   1.00
H124   H     0.12537   0.15860   0.30617   0.00000  Uiso   1.00
H125   H     0.83060   0.20789   0.08684   0.00000  Uiso   1.00
H126   H     0.18535   0.33899   0.20060   0.00000  Uiso   1.00
H127   H     0.23639   0.06065   0.41772   0.00000  Uiso   1.00
H128   H     0.61488   0.16462   0.95524   0.00000  Uiso   1.00
H129   H     0.36293   0.44108   0.19513   0.00000  Uiso   1.00
O130   O     0.39266   0.95409   0.45238   0.00000  Uiso   1.00
O131   O     0.57728   0.09050   0.84562   0.00000  Uiso   1.00
O132   O     0.55870   0.45320   0.16035   0.00000  Uiso   1.00
N133   N     0.38693   0.98475   0.34663   0.00000  Uiso   1.00
N134   N     0.80586   0.08195   0.91424   0.00000  Uiso   1.00
N135   N     0.50519   0.34041   0.13850   0.00000  Uiso   1.00
N136   N     0.27410   0.04522   0.38598   0.00000  Uiso   1.00
N137   N     0.69303   0.14241   0.95359   0.00000  Uiso   1.00
N138   N     0.39236   0.40088   0.17785   0.00000  Uiso   1.00
C139   C     0.74265   0.63038   0.12970   0.00000  Uiso   1.00
C140   C     0.75486   0.60503   0.19910   0.00000  Uiso   1.00
C141   C     0.82796   0.55003   0.23554   0.00000  Uiso   1.00
C142   C     0.82643   0.53499   0.29807   0.00000  Uiso   1.00
C143   C     0.85630   0.48973   0.40200   0.00000  Uiso   1.00
C144   C     0.59470   0.63181   0.07994   0.00000  Uiso   1.00
C145   C     0.53315   0.59933   0.01617   0.00000  Uiso   1.00
C146   C     0.39680   0.60684   0.97839   0.00000  Uiso   1.00
C147   C     0.17804   0.60319   0.89729   0.00000  Uiso   1.00
C148   C     0.78745   0.70304   0.14175   0.00000  Uiso   1.00
C149   C     0.88795   0.73045   0.12995   0.00000  Uiso   1.00
C150   C     0.91386   0.79794   0.14420   0.00000  Uiso   1.00
C151   C     0.99437   0.90488   0.15908   0.00000  Uiso   1.00
C152   C     0.60996   0.70149   0.17597   0.00000  Uiso   1.00
C153   C     0.68278   0.64365   0.22424   0.00000  Uiso   1.00
C154   C     0.68115   0.62870   0.28674   0.00000  Uiso   1.00
C155   C     0.75424   0.57368   0.32326   0.00000  Uiso   1.00
C156   C     0.52263   0.67043   0.10507   0.00000  Uiso   1.00
C157   C     0.38634   0.67800   0.06737   0.00000  Uiso   1.00
C158   C     0.32460   0.64553   0.00357   0.00000  Uiso   1.00
C159   C     0.71538   0.74166   0.16689   0.00000  Uiso   1.00
C160   C     0.74114   0.80912   0.18115   0.00000  Uiso   1.00
C161   C     0.84166   0.83663   0.16938   0.00000  Uiso   1.00
H162   H     0.79876   0.60031   0.11012   0.00000  Uiso   1.00
H163   H     0.88371   0.52015   0.21606   0.00000  Uiso   1.00
H164   H     0.58895   0.56945   0.99673   0.00000  Uiso   1.00
H165   H     0.94370   0.70055   0.11050   0.00000  Uiso   1.00
H166   H     0.94608   0.44829   0.34459   0.00000  Uiso   1.00
H167   H     0.32457   0.55225   0.88211   0.00000  Uiso   1.00
H168   H     0.07261   0.82871   0.12200   0.00000  Uiso   1.00
H169   H     0.55384   0.73156   0.19554   0.00000  Uiso   1.00
H170   H     0.62537   0.65860   0.30617   0.00000  Uiso   1.00
H171   H     0.33060   0.70789   0.08684   0.00000  Uiso   1.00
H172   H     0.68535   0.83899   0.20060   0.00000  Uiso   1.00
H173   H     0.73639   0.56065   0.41772   0.00000  Uiso   1.00
H174   H     0.11488   0.66462   0.95524   0.00000  Uiso   1.00
H175   H     0.86293   0.94108   0.19513   0.00000  Uiso   1.00
O176   O     0.89266   0.45409   0.45238   0.00000  Uiso   1.00
O177   O     0.07728   0.59050   0.84562   0.00000  Uiso   1.00
O178   O     0.05870   0.95320   0.16035   0.00000  Uiso   1.00
N179   N     0.88693   0.48475   0.34663   0.00000  Uiso   1.00
N180   N     0.30586   0.58195   0.91424   0.00000  Uiso   1.00
N181   N     0.00519   0.84041   0.13850   0.00000  Uiso   1.00
N182   N     0.77410   0.54522   0.38598   0.00000  Uiso   1.00
N183   N     0.19303   0.64241   0.95359   0.00000  Uiso   1.00
N184   N     0.89236   0.90088   0.17785   0.00000  Uiso   1.00
C185   C     0.24265   0.86962   0.62970   0.00000  Uiso   1.00
C186   C     0.25486   0.89497   0.69910   0.00000  Uiso   1.00
C187   C     0.32796   0.94997   0.73554   0.00000  Uiso   1.00
C188   C     0.32643   0.96501   0.79807   0.00000  Uiso   1.00
C189   C     0.35630   0.01027   0.90200   0.00000  Uiso   1.00
C190   C     0.09470   0.86819   0.57994   0.00000  Uiso   1.00
C191   C     0.03315   0.90067   0.51617   0.00000  Uiso   1.00
C192   C     0.89680   0.89316   0.47839   0.00000  Uiso   1.00
C193   C     0.67804   0.89681   0.39729   0.00000  Uiso   1.00
C194   C     0.28745   0.79696   0.64175   0.00000  Uiso   1.00
C195   C     0.38795   0.76955   0.62995   0.00000  Uiso   1.00
C196   C     0.41386   0.70206   0.64420   0.00000  Uiso   1.00
C197   C     0.49437   0.59512   0.65908   0.00000  Uiso   1.00
C198   C     0.10996   0.79851   0.67597   0.00000  Uiso   1.00
C199   C     0.18278   0.85635   0.72424   0.00000  Uiso   1.00
C200   C     0.18115   0.87130   0.78674   0.00000  Uiso   1.00
C201   C     0.25424   0.92632   0.82326   0.00000  Uiso   1.00
C202   C     0.02263   0.82957   0.60507   0.00000  Uiso   1.00
C203   C     0.88634   0.82200   0.56737   0.00000  Uiso   1.00
C204   C     0.82460   0.85447   0.50357   0.00000  Uiso   1.00
C205   C     0.21538   0.75834   0.66689   0.00000  Uiso   1.00
C206   C     0.24114   0.69088   0.68115   0.00000  Uiso   1.00
C207   C     0.34166   0.66337   0.66938   0.00000  Uiso   1.00
H208   H     0.29876   0.89969   0.61012   0.00000  Uiso   1.00
H209   H     0.38371   0.97985   0.71606   0.00000  Uiso   1.00
H210   H     0.08895   0.93055   0.49673   0.00000  Uiso   1.00
H211   H     0.44370   0.79945   0.61050   0.00000  Uiso   1.00
H212   H     0.44608   0.05171   0.84459   0.00000  Uiso   1.00
H213   H     0.82457   0.94775   0.38211   0.00000  Uiso   1.00
H214   H     0.57261   0.67129   0.62200   0.00000  Uiso   1.00
H215   H     0.05384   0.76844   0.69554   0.00000  Uiso   1.00
H216   H     0.12537   0.84140   0.80617   0.00000  Uiso   1.00
H217   H     0.83060   0.79211   0.58684   0.00000  Uiso   1.00
H218   H     0.18535   0.66101   0.70060   0.00000  Uiso   1.00
H219   H     0.23639   0.93935   0.91772   0.00000  Uiso   1.00
H220   H     0.61488   0.83538   0.45524   0.00000  Uiso   1.00
H221   H     0.36293   0.55892   0.69513   0.00000  Uiso   1.00
O222   O     0.39266   0.04591   0.95238   0.00000  Uiso   1.00
O223   O     0.57728   0.90950   0.34562   0.00000  Uiso   1.00
O224   O     0.55870   0.54680   0.66035   0.00000  Uiso   1.00
N225   N     0.38693   0.01525   0.84663   0.00000  Uiso   1.00
N226   N     0.80586   0.91805   0.41424   0.00000  Uiso   1.00
N227   N     0.50519   0.65959   0.63850   0.00000  Uiso   1.00
N228   N     0.27410   0.95478   0.88598   0.00000  Uiso   1.00
N229   N     0.69303   0.85759   0.45359   0.00000  Uiso   1.00
N230   N     0.39236   0.59912   0.67785   0.00000  Uiso   1.00
C231   C     0.74265   0.36962   0.62970   0.00000  Uiso   1.00
C232   C     0.75486   0.39497   0.69910   0.00000  Uiso   1.00
C233   C     0.82796   0.44997   0.73554   0.00000  Uiso   1.00
C234   C     0.82643   0.46501   0.79807   0.00000  Uiso   1.00
C235   C     0.85630   0.51027   0.90200   0.00000  Uiso   1.00
C236   C     0.59470   0.36819   0.57994   0.00000  Uiso   1.00
C237   C     0.53315   0.40067   0.51617   0.00000  Uiso   1.00
C238   C     0.39680   0.39316   0.47839   0.00000  Uiso   1.00
C239   C     0.17804   0.39681   0.39729   0.00000  Uiso   1.00
C240   C     0.78745   0.29696   0.64175   0.00000  Uiso   1.00
C241   C     0.88795   0.26955   0.62995   0.00000  Uiso   1.00
C242   C     0.91386   0.20206   0.64420   0.00000  Uiso   1.00
C243   C     0.99437   0.09512   0.65908   0.00000  Uiso   1.00
C244   C     0.60996   0.29851   0.67597   0.00000  Uiso   1.00
C245   C     0.68278   0.35635   0.72424   0.00000  Uiso   1.00
C246   C     0.68115   0.37130   0.78674   0.00000  Uiso   1.00
C247   C     0.75424   0.42632   0.82326   0.00000  Uiso   1.00
C248   C     0.52263   0.32957   0.60507   0.00000  Uiso   1.00
C249   C     0.38634   0.32200   0.56737   0.00000  Uiso   1.00
C250   C     0.32460   0.35447   0.50357   0.00000  Uiso   1.00
C251   C     0.71538   0.25834   0.66689   0.00000  Uiso   1.00
C252   C     0.74114   0.19088   0.68115   0.00000  Uiso   1.00
C253   C     0.84166   0.16337   0.66938   0.00000  Uiso   1.00
H254   H     0.79876   0.39969   0.61012   0.00000  Uiso   1.00
H255   H     0.88371   0.47985   0.71606   0.00000  Uiso   1.00
H256   H     0.58895   0.43055   0.49673   0.00000  Uiso   1.00
H257   H     0.94370   0.29945   0.61050   0.00000  Uiso   1.00
H258   H     0.94608   0.55171   0.84459   0.00000  Uiso   1.00
H259   H     0.32457   0.44775   0.38211   0.00000  Uiso   1.00
H260   H     0.07261   0.17129   0.62200   0.00000  Uiso   1.00
H261   H     0.55384   0.26844   0.69554   0.00000  Uiso   1.00
H262   H     0.62537   0.34140   0.80617   0.00000  Uiso   1.00
H263   H     0.33060   0.29211   0.58684   0.00000  Uiso   1.00
H264   H     0.68535   0.16101   0.70060   0.00000  Uiso   1.00
H265   H     0.73639   0.43935   0.91772   0.00000  Uiso   1.00
H266   H     0.11488   0.33538   0.45524   0.00000  Uiso   1.00
H267   H     0.86293   0.05892   0.69513   0.00000  Uiso   1.00
O268   O     0.89266   0.54591   0.95238   0.00000  Uiso   1.00
O269   O     0.07728   0.40950   0.34562   0.00000  Uiso   1.00
O270   O     0.05870   0.04680   0.66035   0.00000  Uiso   1.00
N271   N     0.88693   0.51525   0.84663   0.00000  Uiso   1.00
N272   N     0.30586   0.41805   0.41424   0.00000  Uiso   1.00
N273   N     0.00519   0.15959   0.63850   0.00000  Uiso   1.00
N274   N     0.77410   0.45478   0.88598   0.00000  Uiso   1.00
N275   N     0.19303   0.35759   0.45359   0.00000  Uiso   1.00
N276   N     0.89236   0.09912   0.67785   0.00000  Uiso   1.00
C277   C     0.75735   0.86962   0.87030   0.00000  Uiso   1.00
C278   C     0.74514   0.89497   0.80090   0.00000  Uiso   1.00
C279   C     0.67204   0.94997   0.76446   0.00000  Uiso   1.00
C280   C     0.67357   0.96501   0.70193   0.00000  Uiso   1.00
C281   C     0.64370   0.01027   0.59800   0.00000  Uiso   1.00
C282   C     0.90530   0.86819   0.92006   0.00000  Uiso   1.00
C283   C     0.96685   0.90067   0.98383   0.00000  Uiso   1.00
C284   C     0.10320   0.89316   0.02161   0.00000  Uiso   1.00
C285   C     0.32196   0.89681   0.10271   0.00000  Uiso   1.00
C286   C     0.71255   0.79696   0.85825   0.00000  Uiso   1.00
C287   C     0.61205   0.76955   0.87005   0.00000  Uiso   1.00
C288   C     0.58614   0.70206   0.85580   0.00000  Uiso   1.00
C289   C     0.50563   0.59512   0.84092   0.00000  Uiso   1.00
C290   C     0.89004   0.79851   0.82403   0.00000  Uiso   1.00
C291   C     0.81722   0.85635   0.77576   0.00000  Uiso   1.00
C292   C     0.81885   0.87130   0.71326   0.00000  Uiso   1.00
C293   C     0.74576   0.92632   0.67674   0.00000  Uiso   1.00
C294   C     0.97737   0.82957   0.89493   0.00000  Uiso   1.00
C295   C     0.11366   0.82200   0.93263   0.00000  Uiso   1.00
C296   C     0.17540   0.85447   0.99643   0.00000  Uiso   1.00
C297   C     0.78462   0.75834   0.83311   0.00000  Uiso   1.00
C298   C     0.75886   0.69088   0.81885   0.00000  Uiso   1.00
C299   C     0.65834   0.66337   0.83062   0.00000  Uiso   1.00
H300   H     0.70124   0.89969   0.88988   0.00000  Uiso   1.00
H301   H     0.61629   0.97985   0.78394   0.00000  Uiso   1.00
H302   H     0.91105   0.93055   0.00327   0.00000  Uiso   1.00
H303   H     0.55630   0.79945   0.88950   0.00000  Uiso   1.00
H304   H     0.55392   0.05171   0.65541   0.00000  Uiso   1.00
H305   H     0.17543   0.94775   0.11789   0.00000  Uiso   1.00
H306   H     0.42739   0.67129   0.87800   0.00000  Uiso   1.00
H307   H     0.94616   0.76844   0.80446   0.00000  Uiso   1.00
H308   H     0.87463   0.84140   0.69383   0.00000  Uiso   1.00
H309   H     0.16940   0.79211   0.91316   0.00000  Uiso   1.00
H310   H     0.81465   0.66101   0.79940   0.00000  Uiso   1.00
H311   H     0.76361   0.93935   0.58228   0.00000  Uiso   1.00
H312   H     0.38512   0.83538   0.04476   0.00000  Uiso   1.00
H313   H     0.63707   0.55892   0.80487   0.00000  Uiso   1.00
O314   O     0.60734   0.04591   0.54762   0.00000  Uiso   1.00
O315   O     0.42272   0.90950   0.15438   0.00000  Uiso   1.00
O316   O     0.44130   0.54680   0.83965   0.00000  Uiso   1.00
N317   N     0.61307   0.01525   0.65337   0.00000  Uiso   1.00
N318   N     0.19414   0.91805   0.08576   0.00000  Uiso   1.00
N319   N     0.49481   0.65959   0.86150   0.00000  Uiso   1.00
N320   N     0.72590   0.95478   0.61402   0.00000  Uiso   1.00
N321   N     0.30697   0.85759   0.04641   0.00000  Uiso   1.00
N322   N     0.60764   0.59912   0.82215   0.00000  Uiso   1.00
C323   C     0.25735   0.36962   0.87030   0.00000  Uiso   1.00
C324   C     0.24514   0.39497   0.80090   0.00000  Uiso   1.00
C325   C     0.17204   0.44997   0.76446   0.00000  Uiso   1.00
C326   C     0.17357   0.46501   0.70193   0.00000  Uiso   1.00
C327   C     0.14370   0.51027   0.59800   0.00000  Uiso   1.00
C328   C     0.40530   0.36819   0.92006   0.00000  Uiso   1.00
C329   C     0.46685   0.40067   0.98383   0.00000  Uiso   1.00
C330   C     0.60320   0.39316   0.02161   0.00000  Uiso   1.00
C331   C     0.82196   0.39681   0.10271   0.00000  Uiso   1.00
C332   C     0.21255   0.29696   0.85825   0.00000  Uiso   1.00
C333   C     0.11205   0.26955   0.87005   0.00000  Uiso   1.00
C334   C     0.08614   0.20206   0.85580   0.00000  Uiso   1.00
C335   C     0.00563   0.09512   0.84092   0.00000  Uiso   1.00
C336   C     0.39004   0.29851   0.82403   0.00000  Uiso   1.00
C337   C     0.31722   0.35635   0.77576   0.00000  Uiso   1.00
C338   C     0.31885   0.37130   0.71326   0.00000  Uiso   1.00
C339   C     0.24576   0.42632   0.67674   0.00000  Uiso   1.00
C340   C     0.47737   0.32957   0.89493   0.00000  Uiso   1.00
C341   C     0.61366   0.32200   0.93263   0.00000  Uiso   1.00
C342   C     0.67540   0.35447   0.99643   0.00000  Uiso   1.00
C343   C     0.28462   0.25834   0.83311   0.00000  Uiso   1.00
C344   C     0.25886   0.19088   0.81885   0.00000  Uiso   1.00
C345   C     0.15834   0.16337   0.83062   0.00000  Uiso   1.00
H346   H     0.20124   0.39969   0.88988   0.00000  Uiso   1.00
H347   H     0.11629   0.47985   0.78394   0.00000  Uiso   1.00
H348   H     0.41105   0.43055   0.00327   0.00000  Uiso   1.00
H349   H     0.05630   0.29945   0.88950   0.00000  Uiso   1.00
H350   H     0.05392   0.55171   0.65541   0.00000  Uiso   1.00
H351   H     0.67543   0.44775   0.11789   0.00000  Uiso   1.00
H352   H     0.92739   0.17129   0.87800   0.00000  Uiso   1.00
H353   H     0.44616   0.26844   0.80446   0.00000  Uiso   1.00
H354   H     0.37463   0.34140   0.69383   0.00000  Uiso   1.00
H355   H     0.66940   0.29211   0.91316   0.00000  Uiso   1.00
H356   H     0.31465   0.16101   0.79940   0.00000  Uiso   1.00
H357   H     0.26361   0.43935   0.58228   0.00000  Uiso   1.00
H358   H     0.88512   0.33538   0.04476   0.00000  Uiso   1.00
H359   H     0.13707   0.05892   0.80487   0.00000  Uiso   1.00
O360   O     0.10734   0.54591   0.54762   0.00000  Uiso   1.00
O361   O     0.92272   0.40950   0.15438   0.00000  Uiso   1.00
O362   O     0.94130   0.04680   0.83965   0.00000  Uiso   1.00
N363   N     0.11307   0.51525   0.65337   0.00000  Uiso   1.00
N364   N     0.69414   0.41805   0.08576   0.00000  Uiso   1.00
N365   N     0.99481   0.15959   0.86150   0.00000  Uiso   1.00
N366   N     0.22590   0.45478   0.61402   0.00000  Uiso   1.00
N367   N     0.80697   0.35759   0.04641   0.00000  Uiso   1.00
N368   N     0.10764   0.09912   0.82215   0.00000  Uiso   1.00
