data_job_06407
_audit_creation_date              2018-12-19
_audit_creation_method            'Materials Studio'
_symmetry_space_group_name_H-M    'P1'
_symmetry_Int_Tables_number       1
_symmetry_cell_setting            triclinic
loop_
_symmetry_equiv_pos_as_xyz
  x,y,z
_cell_length_a                    13.1752
_cell_length_b                    24.0136
_cell_length_c                    24.0193
_cell_angle_alpha                 63.2700
_cell_angle_beta                  79.5040
_cell_angle_gamma                 100.4926
loop_
_atom_site_label
_atom_site_type_symbol
_atom_site_fract_x
_atom_site_fract_y
_atom_site_fract_z
_atom_site_U_iso_or_equiv
_atom_site_adp_type
_atom_site_occupancy
C1     C     0.92829   0.52906   0.67062   0.00000  Uiso   1.00
C2     C     0.00652   0.50257   0.64168   0.00000  Uiso   1.00
C3     C     0.97762   0.45224   0.62852   0.00000  Uiso   1.00
C4     C     0.06122   0.43519   0.60208   0.00000  Uiso   1.00
C5     C     0.16617   0.38914   0.55913   0.00000  Uiso   1.00
C6     C     0.95514   0.52307   0.73183   0.00000  Uiso   1.00
C7     C     0.88302   0.48998   0.79446   0.00000  Uiso   1.00
C8     C     0.92337   0.49019   0.84391   0.00000  Uiso   1.00
C9     C     0.94852   0.47600   0.94091   0.00000  Uiso   1.00
C10    C     0.96020   0.60212   0.62220   0.00000  Uiso   1.00
C11    C     0.89234   0.63551   0.59267   0.00000  Uiso   1.00
C12    C     0.93695   0.70229   0.54983   0.00000  Uiso   1.00
C13    C     0.96997   0.81085   0.47661   0.00000  Uiso   1.00
C14    C     0.12818   0.58828   0.64707   0.00000  Uiso   1.00
C15    C     0.11509   0.53474   0.62890   0.00000  Uiso   1.00
C16    C     0.19876   0.51776   0.60247   0.00000  Uiso   1.00
C17    C     0.16999   0.46741   0.58926   0.00000  Uiso   1.00
C18    C     0.06370   0.55523   0.71905   0.00000  Uiso   1.00
C19    C     0.10417   0.55550   0.76841   0.00000  Uiso   1.00
C20    C     0.03213   0.52242   0.83110   0.00000  Uiso   1.00
C21    C     0.06877   0.63429   0.60941   0.00000  Uiso   1.00
C22    C     0.11350   0.70104   0.56661   0.00000  Uiso   1.00
C23    C     0.04572   0.73452   0.53701   0.00000  Uiso   1.00
H24    H     0.84377   0.50402   0.68058   0.00000  Uiso   1.00
H25    H     0.89358   0.42735   0.63843   0.00000  Uiso   1.00
H26    H     0.79900   0.46509   0.80434   0.00000  Uiso   1.00
H27    H     0.80833   0.61060   0.60258   0.00000  Uiso   1.00
H28    H     0.99669   0.35652   0.58608   0.00000  Uiso   1.00
H29    H     0.79725   0.43612   0.93592   0.00000  Uiso   1.00
H30    H     0.81692   0.74296   0.51046   0.00000  Uiso   1.00
H31    H     0.21271   0.61333   0.63711   0.00000  Uiso   1.00
H32    H     0.28277   0.54266   0.59257   0.00000  Uiso   1.00
H33    H     0.18819   0.58040   0.75849   0.00000  Uiso   1.00
H34    H     0.19751   0.72591   0.55673   0.00000  Uiso   1.00
H35    H     0.31257   0.45011   0.54887   0.00000  Uiso   1.00
H36    H     0.11313   0.52971   0.89871   0.00000  Uiso   1.00
H37    H     0.13280   0.83655   0.47324   0.00000  Uiso   1.00
O38    O     0.19407   0.35485   0.53898   0.00000  Uiso   1.00
O39    O     0.93240   0.45929   0.99795   0.00000  Uiso   1.00
O40    O     0.95820   0.86185   0.43975   0.00000  Uiso   1.00
N41    N     0.06142   0.38826   0.58342   0.00000  Uiso   1.00
N42    N     0.87496   0.46267   0.91050   0.00000  Uiso   1.00
N43    N     0.89334   0.74954   0.51274   0.00000  Uiso   1.00
N44    N     0.23139   0.43862   0.56340   0.00000  Uiso   1.00
N45    N     0.04493   0.51303   0.89048   0.00000  Uiso   1.00
N46    N     0.06331   0.79990   0.49272   0.00000  Uiso   1.00
C47    C     0.39995   0.80046   0.52892   0.00000  Uiso   1.00
C48    C     0.50456   0.85583   0.50252   0.00000  Uiso   1.00
C49    C     0.52587   0.91930   0.45221   0.00000  Uiso   1.00
C50    C     0.62644   0.96274   0.43525   0.00000  Uiso   1.00
C51    C     0.77727   0.05166   0.38935   0.00000  Uiso   1.00
C52    C     0.43277   0.74522   0.52293   0.00000  Uiso   1.00
C53    C     0.39370   0.71568   0.48979   0.00000  Uiso   1.00
C54    C     0.43383   0.66600   0.49001   0.00000  Uiso   1.00
C55    C     0.47314   0.58316   0.47583   0.00000  Uiso   1.00
C56    C     0.35896   0.77585   0.60197   0.00000  Uiso   1.00
C57    C     0.25782   0.77206   0.63528   0.00000  Uiso   1.00
C58    C     0.23580   0.74816   0.70206   0.00000  Uiso   1.00
C59    C     0.16051   0.71288   0.81059   0.00000  Uiso   1.00
C60    C     0.54068   0.76474   0.58827   0.00000  Uiso   1.00
C61    C     0.58100   0.83643   0.53476   0.00000  Uiso   1.00
C62    C     0.68156   0.87978   0.51788   0.00000  Uiso   1.00
C63    C     0.70301   0.94331   0.46755   0.00000  Uiso   1.00
C64    C     0.50920   0.72581   0.55517   0.00000  Uiso   1.00
C65    C     0.54939   0.67616   0.55545   0.00000  Uiso   1.00
C66    C     0.51040   0.64656   0.52231   0.00000  Uiso   1.00
C67    C     0.43540   0.75645   0.63420   0.00000  Uiso   1.00
C68    C     0.41352   0.73254   0.70094   0.00000  Uiso   1.00
C69    C     0.31237   0.72872   0.73435   0.00000  Uiso   1.00
H70    H     0.34044   0.81556   0.50382   0.00000  Uiso   1.00
H71    H     0.46670   0.93430   0.42727   0.00000  Uiso   1.00
H72    H     0.33454   0.73070   0.46485   0.00000  Uiso   1.00
H73    H     0.19869   0.78708   0.61032   0.00000  Uiso   1.00
H74    H     0.64040   0.05737   0.35661   0.00000  Uiso   1.00
H75    H     0.36171   0.62807   0.43586   0.00000  Uiso   1.00
H76    H     0.07524   0.74694   0.74261   0.00000  Uiso   1.00
H77    H     0.60019   0.74963   0.61337   0.00000  Uiso   1.00
H78    H     0.74070   0.86476   0.54283   0.00000  Uiso   1.00
H79    H     0.60854   0.66116   0.58040   0.00000  Uiso   1.00
H80    H     0.47269   0.71753   0.72587   0.00000  Uiso   1.00
H81    H     0.86279   0.00093   0.45040   0.00000  Uiso   1.00
H82    H     0.58410   0.57162   0.52964   0.00000  Uiso   1.00
H83    H     0.29763   0.69050   0.83640   0.00000  Uiso   1.00
O84    O     0.83935   0.10607   0.35511   0.00000  Uiso   1.00
O85    O     0.47371   0.54283   0.45909   0.00000  Uiso   1.00
O86    O     0.09787   0.69879   0.86154   0.00000  Uiso   1.00
N87    N     0.67345   0.02830   0.38837   0.00000  Uiso   1.00
N88    N     0.41290   0.62693   0.46245   0.00000  Uiso   1.00
N89    N     0.14507   0.73805   0.74925   0.00000  Uiso   1.00
N90    N     0.79311   0.99792   0.43884   0.00000  Uiso   1.00
N91    N     0.53257   0.59655   0.51292   0.00000  Uiso   1.00
N92    N     0.26473   0.70768   0.79971   0.00000  Uiso   1.00
C93    C     0.59902   0.67059   0.80036   0.00000  Uiso   1.00
C94    C     0.64836   0.64161   0.85578   0.00000  Uiso   1.00
C95    C     0.60633   0.62849   0.91924   0.00000  Uiso   1.00
C96    C     0.66353   0.60200   0.96273   0.00000  Uiso   1.00
C97    C     0.72560   0.55899   0.05172   0.00000  Uiso   1.00
C98    C     0.68693   0.73176   0.74519   0.00000  Uiso   1.00
C99    C     0.67733   0.79444   0.71566   0.00000  Uiso   1.00
C100   C     0.76699   0.84384   0.66605   0.00000  Uiso   1.00
C101   C     0.88891   0.94079   0.58331   0.00000  Uiso   1.00
C102   C     0.58261   0.62214   0.77571   0.00000  Uiso   1.00
C103   C     0.48530   0.59266   0.77183   0.00000  Uiso   1.00
C104   C     0.48714   0.54977   0.74790   0.00000  Uiso   1.00
C105   C     0.44709   0.47652   0.71256   0.00000  Uiso   1.00
C106   C     0.77532   0.64687   0.76477   0.00000  Uiso   1.00
C107   C     0.74412   0.62873   0.83645   0.00000  Uiso   1.00
C108   C     0.80139   0.60224   0.87986   0.00000  Uiso   1.00
C109   C     0.75946   0.58909   0.94337   0.00000  Uiso   1.00
C110   C     0.78269   0.71888   0.72586   0.00000  Uiso   1.00
C111   C     0.87238   0.76819   0.67628   0.00000  Uiso   1.00
C112   C     0.86293   0.83093   0.64668   0.00000  Uiso   1.00
C113   C     0.67837   0.60925   0.75638   0.00000  Uiso   1.00
C114   C     0.68036   0.56641   0.73245   0.00000  Uiso   1.00
C115   C     0.58307   0.53687   0.72853   0.00000  Uiso   1.00
H116   H     0.52447   0.68062   0.81541   0.00000  Uiso   1.00
H117   H     0.53223   0.63848   0.93418   0.00000  Uiso   1.00
H118   H     0.60321   0.80440   0.73063   0.00000  Uiso   1.00
H119   H     0.41121   0.60265   0.78679   0.00000  Uiso   1.00
H120   H     0.58308   0.58609   0.05732   0.00000  Uiso   1.00
H121   H     0.73273   0.93593   0.62811   0.00000  Uiso   1.00
H122   H     0.32787   0.51050   0.74654   0.00000  Uiso   1.00
H123   H     0.84988   0.63683   0.74971   0.00000  Uiso   1.00
H124   H     0.87550   0.59228   0.86488   0.00000  Uiso   1.00
H125   H     0.94647   0.75820   0.66133   0.00000  Uiso   1.00
H126   H     0.75448   0.55645   0.71749   0.00000  Uiso   1.00
H127   H     0.86169   0.54859   0.00108   0.00000  Uiso   1.00
H128   H     0.01134   0.89844   0.57186   0.00000  Uiso   1.00
H129   H     0.60648   0.47301   0.69030   0.00000  Uiso   1.00
O130   O     0.73339   0.53884   0.10614   0.00000  Uiso   1.00
O131   O     0.92971   0.99783   0.54302   0.00000  Uiso   1.00
O132   O     0.39854   0.43967   0.69841   0.00000  Uiso   1.00
N133   N     0.64513   0.58336   0.02829   0.00000  Uiso   1.00
N134   N     0.78504   0.91046   0.62700   0.00000  Uiso   1.00
N135   N     0.40654   0.51272   0.73771   0.00000  Uiso   1.00
N136   N     0.79505   0.56319   0.99802   0.00000  Uiso   1.00
N137   N     0.93496   0.89028   0.59674   0.00000  Uiso   1.00
N138   N     0.55646   0.49255   0.70745   0.00000  Uiso   1.00
C139   C     0.42829   0.32937   0.47098   0.00000  Uiso   1.00
C140   C     0.50652   0.35831   0.49746   0.00000  Uiso   1.00
C141   C     0.47762   0.37149   0.54777   0.00000  Uiso   1.00
C142   C     0.56123   0.39794   0.56481   0.00000  Uiso   1.00
C143   C     0.66619   0.44090   0.61084   0.00000  Uiso   1.00
C144   C     0.45513   0.26813   0.47698   0.00000  Uiso   1.00
C145   C     0.38301   0.20549   0.51007   0.00000  Uiso   1.00
C146   C     0.42336   0.15603   0.50987   0.00000  Uiso   1.00
C147   C     0.44851   0.05900   0.52406   0.00000  Uiso   1.00
C148   C     0.46020   0.37778   0.39793   0.00000  Uiso   1.00
C149   C     0.39234   0.40733   0.36455   0.00000  Uiso   1.00
C150   C     0.43695   0.45017   0.29779   0.00000  Uiso   1.00
C151   C     0.46997   0.52339   0.18924   0.00000  Uiso   1.00
C152   C     0.62818   0.35291   0.41177   0.00000  Uiso   1.00
C153   C     0.61509   0.37110   0.46530   0.00000  Uiso   1.00
C154   C     0.69877   0.39754   0.48226   0.00000  Uiso   1.00
C155   C     0.66999   0.41075   0.53259   0.00000  Uiso   1.00
C156   C     0.56370   0.28092   0.44482   0.00000  Uiso   1.00
C157   C     0.60416   0.23154   0.44456   0.00000  Uiso   1.00
C158   C     0.53212   0.16884   0.47765   0.00000  Uiso   1.00
C159   C     0.56877   0.39057   0.36577   0.00000  Uiso   1.00
C160   C     0.61349   0.43337   0.29904   0.00000  Uiso   1.00
C161   C     0.54571   0.46298   0.26556   0.00000  Uiso   1.00
H162   H     0.34377   0.31941   0.49602   0.00000  Uiso   1.00
H163   H     0.39359   0.36158   0.57266   0.00000  Uiso   1.00
H164   H     0.29900   0.19561   0.53495   0.00000  Uiso   1.00
H165   H     0.30833   0.39742   0.38946   0.00000  Uiso   1.00
H166   H     0.49671   0.41395   0.64345   0.00000  Uiso   1.00
H167   H     0.29724   0.06400   0.56393   0.00000  Uiso   1.00
H168   H     0.31691   0.48955   0.25712   0.00000  Uiso   1.00
H169   H     0.71270   0.36286   0.38673   0.00000  Uiso   1.00
H170   H     0.78278   0.40742   0.45736   0.00000  Uiso   1.00
H171   H     0.68818   0.24145   0.41966   0.00000  Uiso   1.00
H172   H     0.69751   0.44326   0.27417   0.00000  Uiso   1.00
H173   H     0.81259   0.45116   0.54988   0.00000  Uiso   1.00
H174   H     0.61311   0.10120   0.47036   0.00000  Uiso   1.00
H175   H     0.63279   0.52675   0.16355   0.00000  Uiso   1.00
O176   O     0.69408   0.46106   0.64512   0.00000  Uiso   1.00
O177   O     0.43238   0.00194   0.54078   0.00000  Uiso   1.00
O178   O     0.45820   0.56025   0.13826   0.00000  Uiso   1.00
N179   N     0.56143   0.41661   0.61173   0.00000  Uiso   1.00
N180   N     0.37495   0.08942   0.53739   0.00000  Uiso   1.00
N181   N     0.39333   0.48726   0.25055   0.00000  Uiso   1.00
N182   N     0.73141   0.43663   0.56137   0.00000  Uiso   1.00
N183   N     0.54492   0.10944   0.48704   0.00000  Uiso   1.00
N184   N     0.56330   0.50728   0.20020   0.00000  Uiso   1.00
C185   C     0.89995   0.47106   0.19952   0.00000  Uiso   1.00
C186   C     0.00456   0.49745   0.14416   0.00000  Uiso   1.00
C187   C     0.02587   0.54777   0.08070   0.00000  Uiso   1.00
C188   C     0.12644   0.56472   0.03727   0.00000  Uiso   1.00
C189   C     0.27726   0.61063   0.94837   0.00000  Uiso   1.00
C190   C     0.93278   0.47706   0.25475   0.00000  Uiso   1.00
C191   C     0.89371   0.51021   0.28427   0.00000  Uiso   1.00
C192   C     0.93384   0.50999   0.33394   0.00000  Uiso   1.00
C193   C     0.97315   0.52419   0.41676   0.00000  Uiso   1.00
C194   C     0.85896   0.39799   0.22414   0.00000  Uiso   1.00
C195   C     0.75782   0.36467   0.22794   0.00000  Uiso   1.00
C196   C     0.73579   0.29787   0.25184   0.00000  Uiso   1.00
C197   C     0.66050   0.18932   0.28712   0.00000  Uiso   1.00
C198   C     0.04068   0.41169   0.23524   0.00000  Uiso   1.00
C199   C     0.08100   0.46521   0.16357   0.00000  Uiso   1.00
C200   C     0.18156   0.48209   0.12022   0.00000  Uiso   1.00
C201   C     0.20301   0.53242   0.05670   0.00000  Uiso   1.00
C202   C     0.00921   0.44481   0.27415   0.00000  Uiso   1.00
C203   C     0.04940   0.44454   0.32379   0.00000  Uiso   1.00
C204   C     0.01041   0.47769   0.35337   0.00000  Uiso   1.00
C205   C     0.93540   0.36575   0.24353   0.00000  Uiso   1.00
C206   C     0.91352   0.29899   0.26744   0.00000  Uiso   1.00
C207   C     0.81237   0.26557   0.27128   0.00000  Uiso   1.00
H208   H     0.84045   0.49616   0.18442   0.00000  Uiso   1.00
H209   H     0.96670   0.57271   0.06571   0.00000  Uiso   1.00
H210   H     0.83455   0.53516   0.26925   0.00000  Uiso   1.00
H211   H     0.69869   0.38964   0.21292   0.00000  Uiso   1.00
H212   H     0.14039   0.64338   0.94266   0.00000  Uiso   1.00
H213   H     0.86173   0.56417   0.37185   0.00000  Uiso   1.00
H214   H     0.57523   0.25732   0.25306   0.00000  Uiso   1.00
H215   H     0.10019   0.38659   0.25034   0.00000  Uiso   1.00
H216   H     0.24069   0.45713   0.13524   0.00000  Uiso   1.00
H217   H     0.10855   0.41957   0.33879   0.00000  Uiso   1.00
H218   H     0.97269   0.27405   0.28245   0.00000  Uiso   1.00
H219   H     0.36278   0.54957   0.99909   0.00000  Uiso   1.00
H220   H     0.08411   0.47036   0.42829   0.00000  Uiso   1.00
H221   H     0.79762   0.16350   0.30950   0.00000  Uiso   1.00
O222   O     0.33935   0.64487   0.89398   0.00000  Uiso   1.00
O223   O     0.97373   0.54094   0.45707   0.00000  Uiso   1.00
O224   O     0.59786   0.13835   0.30122   0.00000  Uiso   1.00
N225   N     0.17344   0.61161   0.97173   0.00000  Uiso   1.00
N226   N     0.91292   0.53757   0.37300   0.00000  Uiso   1.00
N227   N     0.64506   0.25068   0.26195   0.00000  Uiso   1.00
N228   N     0.29311   0.56113   0.00210   0.00000  Uiso   1.00
N229   N     0.03259   0.48709   0.40336   0.00000  Uiso   1.00
N230   N     0.76472   0.20020   0.29232   0.00000  Uiso   1.00
C231   C     0.09902   0.19968   0.32939   0.00000  Uiso   1.00
C232   C     0.14835   0.14425   0.35837   0.00000  Uiso   1.00
C233   C     0.10633   0.08077   0.37149   0.00000  Uiso   1.00
C234   C     0.16353   0.03727   0.39798   0.00000  Uiso   1.00
C235   C     0.22559   0.94826   0.44098   0.00000  Uiso   1.00
C236   C     0.18693   0.25486   0.26822   0.00000  Uiso   1.00
C237   C     0.17732   0.28439   0.20556   0.00000  Uiso   1.00
C238   C     0.26699   0.33401   0.15617   0.00000  Uiso   1.00
C239   C     0.38891   0.41676   0.05924   0.00000  Uiso   1.00
C240   C     0.08261   0.22434   0.37782   0.00000  Uiso   1.00
C241   C     0.98530   0.22824   0.40729   0.00000  Uiso   1.00
C242   C     0.98715   0.25218   0.45016   0.00000  Uiso   1.00
C243   C     0.94710   0.28754   0.52339   0.00000  Uiso   1.00
C244   C     0.27533   0.23529   0.35310   0.00000  Uiso   1.00
C245   C     0.24412   0.16359   0.37124   0.00000  Uiso   1.00
C246   C     0.30139   0.12017   0.39772   0.00000  Uiso   1.00
C247   C     0.25946   0.05664   0.41088   0.00000  Uiso   1.00
C248   C     0.28269   0.27420   0.28110   0.00000  Uiso   1.00
C249   C     0.37239   0.32378   0.23179   0.00000  Uiso   1.00
C250   C     0.36293   0.35338   0.16907   0.00000  Uiso   1.00
C251   C     0.17837   0.24368   0.39070   0.00000  Uiso   1.00
C252   C     0.18037   0.26763   0.43352   0.00000  Uiso   1.00
C253   C     0.08309   0.27155   0.46306   0.00000  Uiso   1.00
H254   H     0.02447   0.18463   0.31936   0.00000  Uiso   1.00
H255   H     0.03222   0.06583   0.36151   0.00000  Uiso   1.00
H256   H     0.10320   0.26942   0.19561   0.00000  Uiso   1.00
H257   H     0.91122   0.21327   0.39731   0.00000  Uiso   1.00
H258   H     0.08307   0.94265   0.41390   0.00000  Uiso   1.00
H259   H     0.23272   0.37195   0.06410   0.00000  Uiso   1.00
H260   H     0.82788   0.25354   0.48942   0.00000  Uiso   1.00
H261   H     0.34989   0.25035   0.36312   0.00000  Uiso   1.00
H262   H     0.37550   0.13515   0.40768   0.00000  Uiso   1.00
H263   H     0.44648   0.33874   0.24177   0.00000  Uiso   1.00
H264   H     0.25449   0.28259   0.44348   0.00000  Uiso   1.00
H265   H     0.36169   0.99891   0.45137   0.00000  Uiso   1.00
H266   H     0.51134   0.42821   0.10156   0.00000  Uiso   1.00
H267   H     0.10650   0.30981   0.52689   0.00000  Uiso   1.00
O268   O     0.23338   0.89382   0.46114   0.00000  Uiso   1.00
O269   O     0.42970   0.45705   0.00221   0.00000  Uiso   1.00
O270   O     0.89856   0.30170   0.56023   0.00000  Uiso   1.00
N271   N     0.14512   0.97170   0.41662   0.00000  Uiso   1.00
N272   N     0.28504   0.37306   0.08957   0.00000  Uiso   1.00
N273   N     0.90655   0.26238   0.48720   0.00000  Uiso   1.00
N274   N     0.29504   0.00197   0.43678   0.00000  Uiso   1.00
N275   N     0.43496   0.40333   0.10973   0.00000  Uiso   1.00
N276   N     0.05647   0.29265   0.50736   0.00000  Uiso   1.00
