data_job_00291
_audit_creation_date              2018-12-19
_audit_creation_method            'Materials Studio'
_symmetry_space_group_name_H-M    'P1'
_symmetry_Int_Tables_number       1
_symmetry_cell_setting            triclinic
loop_
_symmetry_equiv_pos_as_xyz
  x,y,z
_cell_length_a                    26.1569
_cell_length_b                    7.3239
_cell_length_c                    22.7890
_cell_angle_alpha                 90.0000
_cell_angle_beta                  150.1880
_cell_angle_gamma                 90.0000
loop_
_atom_site_label
_atom_site_type_symbol
_atom_site_fract_x
_atom_site_fract_y
_atom_site_fract_z
_atom_site_U_iso_or_equiv
_atom_site_adp_type
_atom_site_occupancy
C1     C     0.72343   0.00255   0.79141   0.00000  Uiso   1.00
C2     C     0.70287   0.15351   0.72636   0.00000  Uiso   1.00
C3     C     0.67223   0.12792   0.63810   0.00000  Uiso   1.00
C4     C     0.65744   0.28360   0.58965   0.00000  Uiso   1.00
C5     C     0.62323   0.49140   0.48283   0.00000  Uiso   1.00
C6     C     0.83311   0.03227   0.92230   0.00000  Uiso   1.00
C7     C     0.91196   0.90473   0.99878   0.00000  Uiso   1.00
C8     C     0.00680   0.95835   0.11528   0.00000  Uiso   1.00
C9     C     0.17476   0.97788   0.31268   0.00000  Uiso   1.00
C10    C     0.65368   0.04252   0.77417   0.00000  Uiso   1.00
C11    C     0.58168   0.92358   0.72612   0.00000  Uiso   1.00
C12    C     0.52546   0.98582   0.71792   0.00000  Uiso   1.00
C13    C     0.41483   0.02125   0.68531   0.00000  Uiso   1.00
C14    C     0.75166   0.32454   0.86232   0.00000  Uiso   1.00
C15    C     0.71821   0.32840   0.76489   0.00000  Uiso   1.00
C16    C     0.70345   0.48417   0.71655   0.00000  Uiso   1.00
C17    C     0.67279   0.45881   0.62823   0.00000  Uiso   1.00
C18    C     0.84844   0.20716   0.96082   0.00000  Uiso   1.00
C19    C     0.94319   0.26098   0.07724   0.00000  Uiso   1.00
C20    C     0.02216   0.13356   0.15387   0.00000  Uiso   1.00
C21    C     0.66900   0.21742   0.81268   0.00000  Uiso   1.00
C22    C     0.61290   0.27984   0.80457   0.00000  Uiso   1.00
C23    C     0.54082   0.16103   0.75651   0.00000  Uiso   1.00
H24    H     0.71151   0.86638   0.76143   0.00000  Uiso   1.00
H25    H     0.66038   0.99254   0.60832   0.00000  Uiso   1.00
H26    H     0.90007   0.76939   0.96895   0.00000  Uiso   1.00
H27    H     0.56984   0.78825   0.69632   0.00000  Uiso   1.00
H28    H     0.61050   0.20955   0.45559   0.00000  Uiso   1.00
H29    H     0.11589   0.73899   0.21600   0.00000  Uiso   1.00
H30    H     0.41952   0.77874   0.64112   0.00000  Uiso   1.00
H31    H     0.76360   0.46071   0.89231   0.00000  Uiso   1.00
H32    H     0.71532   0.61950   0.74638   0.00000  Uiso   1.00
H33    H     0.95502   0.39634   0.10701   0.00000  Uiso   1.00
H34    H     0.62478   0.41519   0.83438   0.00000  Uiso   1.00
H35    H     0.65510   0.71841   0.56764   0.00000  Uiso   1.00
H36    H     0.16049   0.24784   0.32806   0.00000  Uiso   1.00
H37    H     0.46412   0.28760   0.75317   0.00000  Uiso   1.00
O38    O     0.60014   0.55770   0.41328   0.00000  Uiso   1.00
O39    O     0.26318   0.94033   0.41092   0.00000  Uiso   1.00
O40    O     0.34957   0.99250   0.65668   0.00000  Uiso   1.00
N41    N     0.62760   0.30752   0.50197   0.00000  Uiso   1.00
N42    N     0.10011   0.86758   0.21291   0.00000  Uiso   1.00
N43    N     0.44909   0.90473   0.67547   0.00000  Uiso   1.00
N44    N     0.65159   0.58133   0.56227   0.00000  Uiso   1.00
N45    N     0.12411   0.14140   0.27320   0.00000  Uiso   1.00
N46    N     0.47309   0.17855   0.73576   0.00000  Uiso   1.00
C47    C     0.22343   0.50255   0.79141   0.00000  Uiso   1.00
C48    C     0.20287   0.65351   0.72636   0.00000  Uiso   1.00
C49    C     0.17223   0.62792   0.63810   0.00000  Uiso   1.00
C50    C     0.15744   0.78360   0.58965   0.00000  Uiso   1.00
C51    C     0.12323   0.99140   0.48283   0.00000  Uiso   1.00
C52    C     0.33311   0.53227   0.92230   0.00000  Uiso   1.00
C53    C     0.41196   0.40473   0.99878   0.00000  Uiso   1.00
C54    C     0.50680   0.45835   0.11528   0.00000  Uiso   1.00
C55    C     0.67476   0.47788   0.31268   0.00000  Uiso   1.00
C56    C     0.15368   0.54252   0.77417   0.00000  Uiso   1.00
C57    C     0.08168   0.42358   0.72612   0.00000  Uiso   1.00
C58    C     0.02546   0.48582   0.71792   0.00000  Uiso   1.00
C59    C     0.91483   0.52125   0.68531   0.00000  Uiso   1.00
C60    C     0.25166   0.82454   0.86232   0.00000  Uiso   1.00
C61    C     0.21821   0.82840   0.76489   0.00000  Uiso   1.00
C62    C     0.20345   0.98417   0.71655   0.00000  Uiso   1.00
C63    C     0.17279   0.95881   0.62823   0.00000  Uiso   1.00
C64    C     0.34844   0.70716   0.96082   0.00000  Uiso   1.00
C65    C     0.44319   0.76098   0.07724   0.00000  Uiso   1.00
C66    C     0.52216   0.63356   0.15387   0.00000  Uiso   1.00
C67    C     0.16900   0.71742   0.81268   0.00000  Uiso   1.00
C68    C     0.11290   0.77984   0.80457   0.00000  Uiso   1.00
C69    C     0.04082   0.66103   0.75651   0.00000  Uiso   1.00
H70    H     0.21151   0.36638   0.76143   0.00000  Uiso   1.00
H71    H     0.16038   0.49254   0.60832   0.00000  Uiso   1.00
H72    H     0.40007   0.26939   0.96895   0.00000  Uiso   1.00
H73    H     0.06984   0.28825   0.69632   0.00000  Uiso   1.00
H74    H     0.11050   0.70955   0.45559   0.00000  Uiso   1.00
H75    H     0.61589   0.23899   0.21600   0.00000  Uiso   1.00
H76    H     0.91952   0.27874   0.64112   0.00000  Uiso   1.00
H77    H     0.26360   0.96071   0.89231   0.00000  Uiso   1.00
H78    H     0.21532   0.11950   0.74638   0.00000  Uiso   1.00
H79    H     0.45502   0.89634   0.10701   0.00000  Uiso   1.00
H80    H     0.12478   0.91519   0.83438   0.00000  Uiso   1.00
H81    H     0.15510   0.21841   0.56764   0.00000  Uiso   1.00
H82    H     0.66049   0.74784   0.32806   0.00000  Uiso   1.00
H83    H     0.96412   0.78760   0.75317   0.00000  Uiso   1.00
O84    O     0.10014   0.05770   0.41328   0.00000  Uiso   1.00
O85    O     0.76318   0.44033   0.41092   0.00000  Uiso   1.00
O86    O     0.84957   0.49250   0.65668   0.00000  Uiso   1.00
N87    N     0.12760   0.80752   0.50197   0.00000  Uiso   1.00
N88    N     0.60011   0.36758   0.21291   0.00000  Uiso   1.00
N89    N     0.94909   0.40473   0.67547   0.00000  Uiso   1.00
N90    N     0.15159   0.08133   0.56227   0.00000  Uiso   1.00
N91    N     0.62411   0.64140   0.27320   0.00000  Uiso   1.00
N92    N     0.97309   0.67855   0.73576   0.00000  Uiso   1.00
C93    C     0.27657   0.00255   0.20859   0.00000  Uiso   1.00
C94    C     0.29713   0.15351   0.27364   0.00000  Uiso   1.00
C95    C     0.32777   0.12792   0.36190   0.00000  Uiso   1.00
C96    C     0.34256   0.28360   0.41035   0.00000  Uiso   1.00
C97    C     0.37677   0.49140   0.51717   0.00000  Uiso   1.00
C98    C     0.16689   0.03227   0.07770   0.00000  Uiso   1.00
C99    C     0.08804   0.90473   0.00122   0.00000  Uiso   1.00
C100   C     0.99320   0.95835   0.88472   0.00000  Uiso   1.00
C101   C     0.82524   0.97788   0.68732   0.00000  Uiso   1.00
C102   C     0.34632   0.04252   0.22583   0.00000  Uiso   1.00
C103   C     0.41832   0.92358   0.27388   0.00000  Uiso   1.00
C104   C     0.47454   0.98582   0.28208   0.00000  Uiso   1.00
C105   C     0.58517   0.02125   0.31469   0.00000  Uiso   1.00
C106   C     0.24834   0.32454   0.13768   0.00000  Uiso   1.00
C107   C     0.28179   0.32840   0.23511   0.00000  Uiso   1.00
C108   C     0.29655   0.48417   0.28345   0.00000  Uiso   1.00
C109   C     0.32721   0.45881   0.37177   0.00000  Uiso   1.00
C110   C     0.15156   0.20716   0.03918   0.00000  Uiso   1.00
C111   C     0.05681   0.26098   0.92276   0.00000  Uiso   1.00
C112   C     0.97784   0.13356   0.84613   0.00000  Uiso   1.00
C113   C     0.33100   0.21742   0.18732   0.00000  Uiso   1.00
C114   C     0.38710   0.27984   0.19543   0.00000  Uiso   1.00
C115   C     0.45918   0.16103   0.24349   0.00000  Uiso   1.00
H116   H     0.28849   0.86638   0.23857   0.00000  Uiso   1.00
H117   H     0.33962   0.99254   0.39168   0.00000  Uiso   1.00
H118   H     0.09993   0.76939   0.03105   0.00000  Uiso   1.00
H119   H     0.43016   0.78825   0.30368   0.00000  Uiso   1.00
H120   H     0.38950   0.20955   0.54441   0.00000  Uiso   1.00
H121   H     0.88411   0.73899   0.78400   0.00000  Uiso   1.00
H122   H     0.58048   0.77874   0.35888   0.00000  Uiso   1.00
H123   H     0.23640   0.46071   0.10769   0.00000  Uiso   1.00
H124   H     0.28468   0.61950   0.25362   0.00000  Uiso   1.00
H125   H     0.04498   0.39634   0.89299   0.00000  Uiso   1.00
H126   H     0.37522   0.41519   0.16562   0.00000  Uiso   1.00
H127   H     0.34490   0.71841   0.43236   0.00000  Uiso   1.00
H128   H     0.83951   0.24784   0.67194   0.00000  Uiso   1.00
H129   H     0.53588   0.28760   0.24683   0.00000  Uiso   1.00
O130   O     0.39986   0.55770   0.58672   0.00000  Uiso   1.00
O131   O     0.73682   0.94033   0.58908   0.00000  Uiso   1.00
O132   O     0.65043   0.99250   0.34332   0.00000  Uiso   1.00
N133   N     0.37240   0.30752   0.49803   0.00000  Uiso   1.00
N134   N     0.89989   0.86758   0.78709   0.00000  Uiso   1.00
N135   N     0.55091   0.90473   0.32453   0.00000  Uiso   1.00
N136   N     0.34841   0.58133   0.43773   0.00000  Uiso   1.00
N137   N     0.87589   0.14140   0.72680   0.00000  Uiso   1.00
N138   N     0.52691   0.17855   0.26424   0.00000  Uiso   1.00
C139   C     0.77657   0.50255   0.20859   0.00000  Uiso   1.00
C140   C     0.79713   0.65351   0.27364   0.00000  Uiso   1.00
C141   C     0.82777   0.62792   0.36190   0.00000  Uiso   1.00
C142   C     0.84256   0.78360   0.41035   0.00000  Uiso   1.00
C143   C     0.87677   0.99140   0.51717   0.00000  Uiso   1.00
C144   C     0.66689   0.53227   0.07770   0.00000  Uiso   1.00
C145   C     0.58804   0.40473   0.00122   0.00000  Uiso   1.00
C146   C     0.49320   0.45835   0.88472   0.00000  Uiso   1.00
C147   C     0.32524   0.47788   0.68732   0.00000  Uiso   1.00
C148   C     0.84632   0.54252   0.22583   0.00000  Uiso   1.00
C149   C     0.91832   0.42358   0.27388   0.00000  Uiso   1.00
C150   C     0.97454   0.48582   0.28208   0.00000  Uiso   1.00
C151   C     0.08517   0.52125   0.31469   0.00000  Uiso   1.00
C152   C     0.74834   0.82454   0.13768   0.00000  Uiso   1.00
C153   C     0.78179   0.82840   0.23511   0.00000  Uiso   1.00
C154   C     0.79655   0.98417   0.28345   0.00000  Uiso   1.00
C155   C     0.82721   0.95881   0.37177   0.00000  Uiso   1.00
C156   C     0.65156   0.70716   0.03918   0.00000  Uiso   1.00
C157   C     0.55681   0.76098   0.92276   0.00000  Uiso   1.00
C158   C     0.47784   0.63356   0.84613   0.00000  Uiso   1.00
C159   C     0.83100   0.71742   0.18732   0.00000  Uiso   1.00
C160   C     0.88710   0.77984   0.19543   0.00000  Uiso   1.00
C161   C     0.95918   0.66103   0.24349   0.00000  Uiso   1.00
H162   H     0.78849   0.36638   0.23857   0.00000  Uiso   1.00
H163   H     0.83962   0.49254   0.39168   0.00000  Uiso   1.00
H164   H     0.59993   0.26939   0.03105   0.00000  Uiso   1.00
H165   H     0.93016   0.28825   0.30368   0.00000  Uiso   1.00
H166   H     0.88950   0.70955   0.54441   0.00000  Uiso   1.00
H167   H     0.38411   0.23899   0.78400   0.00000  Uiso   1.00
H168   H     0.08048   0.27874   0.35888   0.00000  Uiso   1.00
H169   H     0.73640   0.96071   0.10769   0.00000  Uiso   1.00
H170   H     0.78468   0.11950   0.25362   0.00000  Uiso   1.00
H171   H     0.54498   0.89634   0.89299   0.00000  Uiso   1.00
H172   H     0.87522   0.91519   0.16562   0.00000  Uiso   1.00
H173   H     0.84490   0.21841   0.43236   0.00000  Uiso   1.00
H174   H     0.33951   0.74784   0.67194   0.00000  Uiso   1.00
H175   H     0.03588   0.78760   0.24683   0.00000  Uiso   1.00
O176   O     0.89986   0.05770   0.58672   0.00000  Uiso   1.00
O177   O     0.23682   0.44033   0.58908   0.00000  Uiso   1.00
O178   O     0.15043   0.49250   0.34332   0.00000  Uiso   1.00
N179   N     0.87240   0.80752   0.49803   0.00000  Uiso   1.00
N180   N     0.39989   0.36758   0.78709   0.00000  Uiso   1.00
N181   N     0.05091   0.40473   0.32453   0.00000  Uiso   1.00
N182   N     0.84841   0.08133   0.43773   0.00000  Uiso   1.00
N183   N     0.37589   0.64140   0.72680   0.00000  Uiso   1.00
N184   N     0.02691   0.67855   0.26424   0.00000  Uiso   1.00
