data_job_05558
_audit_creation_date              2018-12-19
_audit_creation_method            'Materials Studio'
_symmetry_space_group_name_H-M    'P1'
_symmetry_Int_Tables_number       1
_symmetry_cell_setting            triclinic
loop_
_symmetry_equiv_pos_as_xyz
  x,y,z
_cell_length_a                    9.7110
_cell_length_b                    12.5463
_cell_length_c                    15.4038
_cell_angle_alpha                 77.4749
_cell_angle_beta                  100.2577
_cell_angle_gamma                 97.3468
loop_
_atom_site_label
_atom_site_type_symbol
_atom_site_fract_x
_atom_site_fract_y
_atom_site_fract_z
_atom_site_U_iso_or_equiv
_atom_site_adp_type
_atom_site_occupancy
C1     C     0.27997   0.78616   0.63790   0.00000  Uiso   1.00
C2     C     0.24216   0.68112   0.70359   0.00000  Uiso   1.00
C3     C     0.17476   0.67419   0.77713   0.00000  Uiso   1.00
C4     C     0.14958   0.57051   0.82899   0.00000  Uiso   1.00
C5     C     0.08460   0.42160   0.93415   0.00000  Uiso   1.00
C6     C     0.21119   0.76783   0.54463   0.00000  Uiso   1.00
C7     C     0.11777   0.83381   0.48452   0.00000  Uiso   1.00
C8     C     0.06655   0.80312   0.40256   0.00000  Uiso   1.00
C9     C     0.95357   0.78887   0.26091   0.00000  Uiso   1.00
C10    C     0.43804   0.79178   0.63898   0.00000  Uiso   1.00
C11    C     0.53535   0.87791   0.65817   0.00000  Uiso   1.00
C12    C     0.67511   0.86740   0.65563   0.00000  Uiso   1.00
C13    C     0.91434   0.89035   0.66048   0.00000  Uiso   1.00
C14    C     0.35512   0.61435   0.59924   0.00000  Uiso   1.00
C15    C     0.28298   0.58781   0.68258   0.00000  Uiso   1.00
C16    C     0.25790   0.48411   0.73435   0.00000  Uiso   1.00
C17    C     0.19048   0.47702   0.80795   0.00000  Uiso   1.00
C18    C     0.25201   0.67452   0.52363   0.00000  Uiso   1.00
C19    C     0.20092   0.64372   0.44174   0.00000  Uiso   1.00
C20    C     0.10744   0.70963   0.38152   0.00000  Uiso   1.00
C21    C     0.47886   0.69846   0.61798   0.00000  Uiso   1.00
C22    C     0.61849   0.68782   0.61540   0.00000  Uiso   1.00
C23    C     0.71600   0.77392   0.63459   0.00000  Uiso   1.00
H24    H     0.24819   0.85881   0.65425   0.00000  Uiso   1.00
H25    H     0.14317   0.74643   0.79335   0.00000  Uiso   1.00
H26    H     0.08622   0.90602   0.50079   0.00000  Uiso   1.00
H27    H     0.50372   0.95011   0.67442   0.00000  Uiso   1.00
H28    H     0.04470   0.58067   0.93829   0.00000  Uiso   1.00
H29    H     0.92464   0.91721   0.32139   0.00000  Uiso   1.00
H30    H     0.80504   0.01019   0.68753   0.00000  Uiso   1.00
H31    H     0.38690   0.54170   0.58288   0.00000  Uiso   1.00
H32    H     0.28950   0.41191   0.71808   0.00000  Uiso   1.00
H33    H     0.23253   0.57151   0.42551   0.00000  Uiso   1.00
H34    H     0.65004   0.61560   0.59914   0.00000  Uiso   1.00
H35    H     0.16346   0.30916   0.87720   0.00000  Uiso   1.00
H36    H     0.04340   0.64570   0.26029   0.00000  Uiso   1.00
H37    H     0.92380   0.73868   0.62643   0.00000  Uiso   1.00
O38    O     0.03746   0.36525   0.99795   0.00000  Uiso   1.00
O39    O     0.87996   0.80679   0.18859   0.00000  Uiso   1.00
O40    O     0.03503   0.92878   0.66896   0.00000  Uiso   1.00
N41    N     0.08604   0.53458   0.90537   0.00000  Uiso   1.00
N42    N     0.97377   0.84922   0.32861   0.00000  Uiso   1.00
N43    N     0.79687   0.93616   0.67090   0.00000  Uiso   1.00
N44    N     0.14995   0.38849   0.87250   0.00000  Uiso   1.00
N45    N     0.03767   0.70312   0.29573   0.00000  Uiso   1.00
N46    N     0.86077   0.79007   0.63802   0.00000  Uiso   1.00
C47    C     0.72003   0.21384   0.36210   0.00000  Uiso   1.00
C48    C     0.75784   0.31888   0.29641   0.00000  Uiso   1.00
C49    C     0.82524   0.32581   0.22287   0.00000  Uiso   1.00
C50    C     0.85042   0.42949   0.17101   0.00000  Uiso   1.00
C51    C     0.91540   0.57840   0.06585   0.00000  Uiso   1.00
C52    C     0.78881   0.23217   0.45537   0.00000  Uiso   1.00
C53    C     0.88223   0.16619   0.51548   0.00000  Uiso   1.00
C54    C     0.93345   0.19688   0.59744   0.00000  Uiso   1.00
C55    C     0.04643   0.21113   0.73909   0.00000  Uiso   1.00
C56    C     0.56196   0.20822   0.36102   0.00000  Uiso   1.00
C57    C     0.46465   0.12209   0.34183   0.00000  Uiso   1.00
C58    C     0.32489   0.13260   0.34437   0.00000  Uiso   1.00
C59    C     0.08566   0.10965   0.33952   0.00000  Uiso   1.00
C60    C     0.64488   0.38565   0.40076   0.00000  Uiso   1.00
C61    C     0.71702   0.41219   0.31742   0.00000  Uiso   1.00
C62    C     0.74210   0.51589   0.26565   0.00000  Uiso   1.00
C63    C     0.80952   0.52298   0.19205   0.00000  Uiso   1.00
C64    C     0.74799   0.32548   0.47637   0.00000  Uiso   1.00
C65    C     0.79908   0.35628   0.55826   0.00000  Uiso   1.00
C66    C     0.89256   0.29037   0.61848   0.00000  Uiso   1.00
C67    C     0.52114   0.30154   0.38202   0.00000  Uiso   1.00
C68    C     0.38151   0.31218   0.38460   0.00000  Uiso   1.00
C69    C     0.28400   0.22608   0.36541   0.00000  Uiso   1.00
H70    H     0.75181   0.14119   0.34575   0.00000  Uiso   1.00
H71    H     0.85683   0.25357   0.20665   0.00000  Uiso   1.00
H72    H     0.91378   0.09398   0.49921   0.00000  Uiso   1.00
H73    H     0.49628   0.04989   0.32558   0.00000  Uiso   1.00
H74    H     0.95530   0.41933   0.06171   0.00000  Uiso   1.00
H75    H     0.07536   0.08279   0.67861   0.00000  Uiso   1.00
H76    H     0.19496   0.98981   0.31247   0.00000  Uiso   1.00
H77    H     0.61310   0.45830   0.41712   0.00000  Uiso   1.00
H78    H     0.71050   0.58809   0.28192   0.00000  Uiso   1.00
H79    H     0.76747   0.42849   0.57449   0.00000  Uiso   1.00
H80    H     0.34996   0.38440   0.40086   0.00000  Uiso   1.00
H81    H     0.83654   0.69084   0.12280   0.00000  Uiso   1.00
H82    H     0.95660   0.35430   0.73971   0.00000  Uiso   1.00
H83    H     0.07620   0.26132   0.37357   0.00000  Uiso   1.00
O84    O     0.96254   0.63475   0.00205   0.00000  Uiso   1.00
O85    O     0.12004   0.19321   0.81141   0.00000  Uiso   1.00
O86    O     0.96497   0.07122   0.33104   0.00000  Uiso   1.00
N87    N     0.91396   0.46542   0.09463   0.00000  Uiso   1.00
N88    N     0.02623   0.15078   0.67139   0.00000  Uiso   1.00
N89    N     0.20313   0.06384   0.32910   0.00000  Uiso   1.00
N90    N     0.85005   0.61151   0.12750   0.00000  Uiso   1.00
N91    N     0.96233   0.29688   0.70427   0.00000  Uiso   1.00
N92    N     0.13923   0.20993   0.36198   0.00000  Uiso   1.00
