data_job_02712
_audit_creation_date              2018-12-19
_audit_creation_method            'Materials Studio'
_symmetry_space_group_name_H-M    'P1'
_symmetry_Int_Tables_number       1
_symmetry_cell_setting            triclinic
loop_
_symmetry_equiv_pos_as_xyz
  x,y,z
_cell_length_a                    16.0393
_cell_length_b                    25.0552
_cell_length_c                    18.4665
_cell_angle_alpha                 90.0000
_cell_angle_beta                  90.0000
_cell_angle_gamma                 90.0000
loop_
_atom_site_label
_atom_site_type_symbol
_atom_site_fract_x
_atom_site_fract_y
_atom_site_fract_z
_atom_site_U_iso_or_equiv
_atom_site_adp_type
_atom_site_occupancy
C1     C     0.60452   0.61850   0.31326   0.00000  Uiso   1.00
C2     C     0.53693   0.64556   0.26826   0.00000  Uiso   1.00
C3     C     0.54912   0.67173   0.20288   0.00000  Uiso   1.00
C4     C     0.47929   0.69388   0.17017   0.00000  Uiso   1.00
C5     C     0.38639   0.73653   0.09551   0.00000  Uiso   1.00
C6     C     0.60050   0.64415   0.38806   0.00000  Uiso   1.00
C7     C     0.66614   0.66912   0.42341   0.00000  Uiso   1.00
C8     C     0.64982   0.69007   0.49156   0.00000  Uiso   1.00
C9     C     0.65563   0.73048   0.60292   0.00000  Uiso   1.00
C10    C     0.57628   0.56086   0.32331   0.00000  Uiso   1.00
C11    C     0.62156   0.51580   0.30424   0.00000  Uiso   1.00
C12    C     0.58485   0.46663   0.31789   0.00000  Uiso   1.00
C13    C     0.55305   0.37773   0.32872   0.00000  Uiso   1.00
C14    C     0.45882   0.61130   0.37143   0.00000  Uiso   1.00
C15    C     0.45780   0.64165   0.29986   0.00000  Uiso   1.00
C16    C     0.38792   0.66377   0.26723   0.00000  Uiso   1.00
C17    C     0.40001   0.68997   0.20181   0.00000  Uiso   1.00
C18    C     0.52137   0.64024   0.41966   0.00000  Uiso   1.00
C19    C     0.50494   0.66116   0.48777   0.00000  Uiso   1.00
C20    C     0.57054   0.68616   0.52321   0.00000  Uiso   1.00
C21    C     0.49714   0.55695   0.35491   0.00000  Uiso   1.00
C22    C     0.46036   0.50784   0.36860   0.00000  Uiso   1.00
C23    C     0.50557   0.46272   0.34955   0.00000  Uiso   1.00
H24    H     0.66613   0.62154   0.28866   0.00000  Uiso   1.00
H25    H     0.61038   0.67475   0.17845   0.00000  Uiso   1.00
H26    H     0.72738   0.67213   0.39895   0.00000  Uiso   1.00
H27    H     0.68280   0.51884   0.27980   0.00000  Uiso   1.00
H28    H     0.51367   0.73204   0.07020   0.00000  Uiso   1.00
H29    H     0.76038   0.72650   0.53515   0.00000  Uiso   1.00
H30    H     0.66638   0.40325   0.28389   0.00000  Uiso   1.00
H31    H     0.39721   0.60826   0.39603   0.00000  Uiso   1.00
H32    H     0.32669   0.66074   0.29170   0.00000  Uiso   1.00
H33    H     0.44370   0.65812   0.51220   0.00000  Uiso   1.00
H34    H     0.39912   0.50483   0.39305   0.00000  Uiso   1.00
H35    H     0.28342   0.72067   0.16212   0.00000  Uiso   1.00
H36    H     0.53013   0.71513   0.62708   0.00000  Uiso   1.00
H37    H     0.43613   0.39188   0.37581   0.00000  Uiso   1.00
O38    O     0.35701   0.76113   0.04560   0.00000  Uiso   1.00
O39    O     0.68070   0.75385   0.65561   0.00000  Uiso   1.00
O40    O     0.55737   0.32977   0.32596   0.00000  Uiso   1.00
N41    N     0.46915   0.72215   0.10614   0.00000  Uiso   1.00
N42    N     0.69981   0.71698   0.54084   0.00000  Uiso   1.00
N43    N     0.61194   0.41477   0.30595   0.00000  Uiso   1.00
N44    N     0.34526   0.71603   0.15560   0.00000  Uiso   1.00
N45    N     0.57592   0.71086   0.59031   0.00000  Uiso   1.00
N46    N     0.48804   0.40865   0.35541   0.00000  Uiso   1.00
C47    C     0.89548   0.38150   0.31326   0.00000  Uiso   1.00
C48    C     0.96307   0.35444   0.26826   0.00000  Uiso   1.00
C49    C     0.95088   0.32827   0.20288   0.00000  Uiso   1.00
C50    C     0.02071   0.30612   0.17017   0.00000  Uiso   1.00
C51    C     0.11361   0.26347   0.09551   0.00000  Uiso   1.00
C52    C     0.89950   0.35585   0.38806   0.00000  Uiso   1.00
C53    C     0.83386   0.33088   0.42341   0.00000  Uiso   1.00
C54    C     0.85018   0.30993   0.49156   0.00000  Uiso   1.00
C55    C     0.84437   0.26952   0.60292   0.00000  Uiso   1.00
C56    C     0.92372   0.43914   0.32331   0.00000  Uiso   1.00
C57    C     0.87844   0.48420   0.30424   0.00000  Uiso   1.00
C58    C     0.91515   0.53337   0.31789   0.00000  Uiso   1.00
C59    C     0.94695   0.62227   0.32872   0.00000  Uiso   1.00
C60    C     0.04118   0.38870   0.37143   0.00000  Uiso   1.00
C61    C     0.04220   0.35835   0.29986   0.00000  Uiso   1.00
C62    C     0.11208   0.33623   0.26723   0.00000  Uiso   1.00
C63    C     0.09999   0.31003   0.20181   0.00000  Uiso   1.00
C64    C     0.97863   0.35976   0.41966   0.00000  Uiso   1.00
C65    C     0.99506   0.33884   0.48777   0.00000  Uiso   1.00
C66    C     0.92946   0.31384   0.52321   0.00000  Uiso   1.00
C67    C     0.00286   0.44305   0.35491   0.00000  Uiso   1.00
C68    C     0.03964   0.49216   0.36860   0.00000  Uiso   1.00
C69    C     0.99443   0.53728   0.34955   0.00000  Uiso   1.00
H70    H     0.83387   0.37846   0.28866   0.00000  Uiso   1.00
H71    H     0.88962   0.32525   0.17845   0.00000  Uiso   1.00
H72    H     0.77262   0.32787   0.39895   0.00000  Uiso   1.00
H73    H     0.81720   0.48116   0.27980   0.00000  Uiso   1.00
H74    H     0.98633   0.26796   0.07020   0.00000  Uiso   1.00
H75    H     0.73962   0.27350   0.53515   0.00000  Uiso   1.00
H76    H     0.83362   0.59675   0.28389   0.00000  Uiso   1.00
H77    H     0.10279   0.39174   0.39603   0.00000  Uiso   1.00
H78    H     0.17331   0.33926   0.29170   0.00000  Uiso   1.00
H79    H     0.05630   0.34188   0.51220   0.00000  Uiso   1.00
H80    H     0.10088   0.49517   0.39305   0.00000  Uiso   1.00
H81    H     0.21658   0.27933   0.16212   0.00000  Uiso   1.00
H82    H     0.96987   0.28487   0.62708   0.00000  Uiso   1.00
H83    H     0.06387   0.60812   0.37581   0.00000  Uiso   1.00
O84    O     0.14299   0.23887   0.04560   0.00000  Uiso   1.00
O85    O     0.81930   0.24615   0.65561   0.00000  Uiso   1.00
O86    O     0.94263   0.67023   0.32596   0.00000  Uiso   1.00
N87    N     0.03085   0.27785   0.10614   0.00000  Uiso   1.00
N88    N     0.80019   0.28302   0.54084   0.00000  Uiso   1.00
N89    N     0.88806   0.58523   0.30595   0.00000  Uiso   1.00
N90    N     0.15474   0.28397   0.15560   0.00000  Uiso   1.00
N91    N     0.92408   0.28914   0.59031   0.00000  Uiso   1.00
N92    N     0.01196   0.59135   0.35541   0.00000  Uiso   1.00
C93    C     0.89548   0.11850   0.18674   0.00000  Uiso   1.00
C94    C     0.96307   0.14556   0.23174   0.00000  Uiso   1.00
C95    C     0.95088   0.17173   0.29712   0.00000  Uiso   1.00
C96    C     0.02071   0.19388   0.32983   0.00000  Uiso   1.00
C97    C     0.11361   0.23653   0.40449   0.00000  Uiso   1.00
C98    C     0.89950   0.14415   0.11194   0.00000  Uiso   1.00
C99    C     0.83386   0.16912   0.07659   0.00000  Uiso   1.00
C100   C     0.85018   0.19007   0.00844   0.00000  Uiso   1.00
C101   C     0.84437   0.23048   0.89708   0.00000  Uiso   1.00
C102   C     0.92372   0.06086   0.17669   0.00000  Uiso   1.00
C103   C     0.87844   0.01580   0.19576   0.00000  Uiso   1.00
C104   C     0.91515   0.96663   0.18211   0.00000  Uiso   1.00
C105   C     0.94695   0.87773   0.17128   0.00000  Uiso   1.00
C106   C     0.04118   0.11130   0.12857   0.00000  Uiso   1.00
C107   C     0.04220   0.14165   0.20014   0.00000  Uiso   1.00
C108   C     0.11208   0.16377   0.23277   0.00000  Uiso   1.00
C109   C     0.09999   0.18997   0.29819   0.00000  Uiso   1.00
C110   C     0.97863   0.14024   0.08034   0.00000  Uiso   1.00
C111   C     0.99506   0.16116   0.01223   0.00000  Uiso   1.00
C112   C     0.92946   0.18616   0.97679   0.00000  Uiso   1.00
C113   C     0.00286   0.05695   0.14509   0.00000  Uiso   1.00
C114   C     0.03964   0.00784   0.13140   0.00000  Uiso   1.00
C115   C     0.99443   0.96272   0.15045   0.00000  Uiso   1.00
H116   H     0.83387   0.12154   0.21134   0.00000  Uiso   1.00
H117   H     0.88962   0.17475   0.32155   0.00000  Uiso   1.00
H118   H     0.77262   0.17213   0.10105   0.00000  Uiso   1.00
H119   H     0.81720   0.01884   0.22020   0.00000  Uiso   1.00
H120   H     0.98633   0.23204   0.42980   0.00000  Uiso   1.00
H121   H     0.73962   0.22650   0.96485   0.00000  Uiso   1.00
H122   H     0.83362   0.90325   0.21611   0.00000  Uiso   1.00
H123   H     0.10279   0.10826   0.10397   0.00000  Uiso   1.00
H124   H     0.17331   0.16074   0.20830   0.00000  Uiso   1.00
H125   H     0.05630   0.15812   0.98780   0.00000  Uiso   1.00
H126   H     0.10088   0.00483   0.10695   0.00000  Uiso   1.00
H127   H     0.21658   0.22067   0.33788   0.00000  Uiso   1.00
H128   H     0.96987   0.21513   0.87292   0.00000  Uiso   1.00
H129   H     0.06387   0.89188   0.12419   0.00000  Uiso   1.00
O130   O     0.14299   0.26113   0.45440   0.00000  Uiso   1.00
O131   O     0.81930   0.25385   0.84439   0.00000  Uiso   1.00
O132   O     0.94263   0.82977   0.17404   0.00000  Uiso   1.00
N133   N     0.03085   0.22215   0.39386   0.00000  Uiso   1.00
N134   N     0.80019   0.21698   0.95916   0.00000  Uiso   1.00
N135   N     0.88806   0.91477   0.19405   0.00000  Uiso   1.00
N136   N     0.15474   0.21603   0.34440   0.00000  Uiso   1.00
N137   N     0.92408   0.21086   0.90969   0.00000  Uiso   1.00
N138   N     0.01196   0.90865   0.14459   0.00000  Uiso   1.00
C139   C     0.60452   0.88150   0.18674   0.00000  Uiso   1.00
C140   C     0.53693   0.85444   0.23174   0.00000  Uiso   1.00
C141   C     0.54912   0.82827   0.29712   0.00000  Uiso   1.00
C142   C     0.47929   0.80612   0.32983   0.00000  Uiso   1.00
C143   C     0.38639   0.76347   0.40449   0.00000  Uiso   1.00
C144   C     0.60050   0.85585   0.11194   0.00000  Uiso   1.00
C145   C     0.66614   0.83088   0.07659   0.00000  Uiso   1.00
C146   C     0.64982   0.80993   0.00844   0.00000  Uiso   1.00
C147   C     0.65563   0.76952   0.89708   0.00000  Uiso   1.00
C148   C     0.57628   0.93914   0.17669   0.00000  Uiso   1.00
C149   C     0.62156   0.98420   0.19576   0.00000  Uiso   1.00
C150   C     0.58485   0.03337   0.18211   0.00000  Uiso   1.00
C151   C     0.55305   0.12227   0.17128   0.00000  Uiso   1.00
C152   C     0.45882   0.88870   0.12857   0.00000  Uiso   1.00
C153   C     0.45780   0.85835   0.20014   0.00000  Uiso   1.00
C154   C     0.38792   0.83623   0.23277   0.00000  Uiso   1.00
C155   C     0.40001   0.81003   0.29819   0.00000  Uiso   1.00
C156   C     0.52137   0.85976   0.08034   0.00000  Uiso   1.00
C157   C     0.50494   0.83884   0.01223   0.00000  Uiso   1.00
C158   C     0.57054   0.81384   0.97679   0.00000  Uiso   1.00
C159   C     0.49714   0.94305   0.14509   0.00000  Uiso   1.00
C160   C     0.46036   0.99216   0.13140   0.00000  Uiso   1.00
C161   C     0.50557   0.03728   0.15045   0.00000  Uiso   1.00
H162   H     0.66613   0.87846   0.21134   0.00000  Uiso   1.00
H163   H     0.61038   0.82525   0.32155   0.00000  Uiso   1.00
H164   H     0.72738   0.82787   0.10105   0.00000  Uiso   1.00
H165   H     0.68280   0.98116   0.22020   0.00000  Uiso   1.00
H166   H     0.51367   0.76796   0.42980   0.00000  Uiso   1.00
H167   H     0.76038   0.77350   0.96485   0.00000  Uiso   1.00
H168   H     0.66638   0.09675   0.21611   0.00000  Uiso   1.00
H169   H     0.39721   0.89174   0.10397   0.00000  Uiso   1.00
H170   H     0.32669   0.83926   0.20830   0.00000  Uiso   1.00
H171   H     0.44370   0.84188   0.98780   0.00000  Uiso   1.00
H172   H     0.39912   0.99517   0.10695   0.00000  Uiso   1.00
H173   H     0.28342   0.77933   0.33788   0.00000  Uiso   1.00
H174   H     0.53013   0.78487   0.87292   0.00000  Uiso   1.00
H175   H     0.43613   0.10812   0.12419   0.00000  Uiso   1.00
O176   O     0.35701   0.73887   0.45440   0.00000  Uiso   1.00
O177   O     0.68070   0.74615   0.84439   0.00000  Uiso   1.00
O178   O     0.55737   0.17023   0.17404   0.00000  Uiso   1.00
N179   N     0.46915   0.77785   0.39386   0.00000  Uiso   1.00
N180   N     0.69981   0.78302   0.95916   0.00000  Uiso   1.00
N181   N     0.61194   0.08523   0.19405   0.00000  Uiso   1.00
N182   N     0.34526   0.78397   0.34440   0.00000  Uiso   1.00
N183   N     0.57592   0.78914   0.90969   0.00000  Uiso   1.00
N184   N     0.48804   0.09135   0.14459   0.00000  Uiso   1.00
C185   C     0.39548   0.38150   0.68674   0.00000  Uiso   1.00
C186   C     0.46307   0.35444   0.73174   0.00000  Uiso   1.00
C187   C     0.45088   0.32827   0.79712   0.00000  Uiso   1.00
C188   C     0.52071   0.30612   0.82983   0.00000  Uiso   1.00
C189   C     0.61361   0.26347   0.90449   0.00000  Uiso   1.00
C190   C     0.39950   0.35585   0.61194   0.00000  Uiso   1.00
C191   C     0.33386   0.33088   0.57659   0.00000  Uiso   1.00
C192   C     0.35018   0.30993   0.50844   0.00000  Uiso   1.00
C193   C     0.34437   0.26952   0.39708   0.00000  Uiso   1.00
C194   C     0.42372   0.43914   0.67669   0.00000  Uiso   1.00
C195   C     0.37844   0.48420   0.69576   0.00000  Uiso   1.00
C196   C     0.41515   0.53337   0.68211   0.00000  Uiso   1.00
C197   C     0.44695   0.62227   0.67128   0.00000  Uiso   1.00
C198   C     0.54118   0.38870   0.62857   0.00000  Uiso   1.00
C199   C     0.54220   0.35835   0.70014   0.00000  Uiso   1.00
C200   C     0.61208   0.33623   0.73277   0.00000  Uiso   1.00
C201   C     0.59999   0.31003   0.79819   0.00000  Uiso   1.00
C202   C     0.47863   0.35976   0.58034   0.00000  Uiso   1.00
C203   C     0.49506   0.33884   0.51223   0.00000  Uiso   1.00
C204   C     0.42946   0.31384   0.47679   0.00000  Uiso   1.00
C205   C     0.50286   0.44305   0.64509   0.00000  Uiso   1.00
C206   C     0.53964   0.49216   0.63140   0.00000  Uiso   1.00
C207   C     0.49443   0.53728   0.65045   0.00000  Uiso   1.00
H208   H     0.33387   0.37846   0.71134   0.00000  Uiso   1.00
H209   H     0.38962   0.32525   0.82155   0.00000  Uiso   1.00
H210   H     0.27262   0.32787   0.60105   0.00000  Uiso   1.00
H211   H     0.31720   0.48116   0.72020   0.00000  Uiso   1.00
H212   H     0.48633   0.26796   0.92980   0.00000  Uiso   1.00
H213   H     0.23962   0.27350   0.46485   0.00000  Uiso   1.00
H214   H     0.33362   0.59675   0.71611   0.00000  Uiso   1.00
H215   H     0.60279   0.39174   0.60397   0.00000  Uiso   1.00
H216   H     0.67331   0.33926   0.70830   0.00000  Uiso   1.00
H217   H     0.55630   0.34188   0.48780   0.00000  Uiso   1.00
H218   H     0.60088   0.49517   0.60695   0.00000  Uiso   1.00
H219   H     0.71658   0.27933   0.83788   0.00000  Uiso   1.00
H220   H     0.46987   0.28487   0.37292   0.00000  Uiso   1.00
H221   H     0.56387   0.60812   0.62419   0.00000  Uiso   1.00
O222   O     0.64299   0.23887   0.95440   0.00000  Uiso   1.00
O223   O     0.31930   0.24615   0.34439   0.00000  Uiso   1.00
O224   O     0.44263   0.67023   0.67404   0.00000  Uiso   1.00
N225   N     0.53085   0.27785   0.89386   0.00000  Uiso   1.00
N226   N     0.30019   0.28302   0.45916   0.00000  Uiso   1.00
N227   N     0.38806   0.58523   0.69405   0.00000  Uiso   1.00
N228   N     0.65474   0.28397   0.84440   0.00000  Uiso   1.00
N229   N     0.42408   0.28914   0.40969   0.00000  Uiso   1.00
N230   N     0.51196   0.59135   0.64459   0.00000  Uiso   1.00
C231   C     0.10452   0.61850   0.68674   0.00000  Uiso   1.00
C232   C     0.03693   0.64556   0.73174   0.00000  Uiso   1.00
C233   C     0.04912   0.67173   0.79712   0.00000  Uiso   1.00
C234   C     0.97929   0.69388   0.82983   0.00000  Uiso   1.00
C235   C     0.88639   0.73653   0.90449   0.00000  Uiso   1.00
C236   C     0.10050   0.64415   0.61194   0.00000  Uiso   1.00
C237   C     0.16614   0.66912   0.57659   0.00000  Uiso   1.00
C238   C     0.14982   0.69007   0.50844   0.00000  Uiso   1.00
C239   C     0.15563   0.73048   0.39708   0.00000  Uiso   1.00
C240   C     0.07628   0.56086   0.67669   0.00000  Uiso   1.00
C241   C     0.12156   0.51580   0.69576   0.00000  Uiso   1.00
C242   C     0.08485   0.46663   0.68211   0.00000  Uiso   1.00
C243   C     0.05305   0.37773   0.67128   0.00000  Uiso   1.00
C244   C     0.95882   0.61130   0.62857   0.00000  Uiso   1.00
C245   C     0.95780   0.64165   0.70014   0.00000  Uiso   1.00
C246   C     0.88792   0.66377   0.73277   0.00000  Uiso   1.00
C247   C     0.90001   0.68997   0.79819   0.00000  Uiso   1.00
C248   C     0.02137   0.64024   0.58034   0.00000  Uiso   1.00
C249   C     0.00494   0.66116   0.51223   0.00000  Uiso   1.00
C250   C     0.07054   0.68616   0.47679   0.00000  Uiso   1.00
C251   C     0.99714   0.55695   0.64509   0.00000  Uiso   1.00
C252   C     0.96036   0.50784   0.63140   0.00000  Uiso   1.00
C253   C     0.00557   0.46272   0.65045   0.00000  Uiso   1.00
H254   H     0.16613   0.62154   0.71134   0.00000  Uiso   1.00
H255   H     0.11038   0.67475   0.82155   0.00000  Uiso   1.00
H256   H     0.22738   0.67213   0.60105   0.00000  Uiso   1.00
H257   H     0.18280   0.51884   0.72020   0.00000  Uiso   1.00
H258   H     0.01367   0.73204   0.92980   0.00000  Uiso   1.00
H259   H     0.26038   0.72650   0.46485   0.00000  Uiso   1.00
H260   H     0.16638   0.40325   0.71611   0.00000  Uiso   1.00
H261   H     0.89721   0.60826   0.60397   0.00000  Uiso   1.00
H262   H     0.82669   0.66074   0.70830   0.00000  Uiso   1.00
H263   H     0.94370   0.65812   0.48780   0.00000  Uiso   1.00
H264   H     0.89912   0.50483   0.60695   0.00000  Uiso   1.00
H265   H     0.78342   0.72067   0.83788   0.00000  Uiso   1.00
H266   H     0.03013   0.71513   0.37292   0.00000  Uiso   1.00
H267   H     0.93613   0.39188   0.62419   0.00000  Uiso   1.00
O268   O     0.85701   0.76113   0.95440   0.00000  Uiso   1.00
O269   O     0.18070   0.75385   0.34439   0.00000  Uiso   1.00
O270   O     0.05737   0.32977   0.67404   0.00000  Uiso   1.00
N271   N     0.96915   0.72215   0.89386   0.00000  Uiso   1.00
N272   N     0.19981   0.71698   0.45916   0.00000  Uiso   1.00
N273   N     0.11194   0.41477   0.69405   0.00000  Uiso   1.00
N274   N     0.84526   0.71603   0.84440   0.00000  Uiso   1.00
N275   N     0.07592   0.71086   0.40969   0.00000  Uiso   1.00
N276   N     0.98804   0.40865   0.64459   0.00000  Uiso   1.00
C277   C     0.10452   0.88150   0.81326   0.00000  Uiso   1.00
C278   C     0.03693   0.85444   0.76826   0.00000  Uiso   1.00
C279   C     0.04912   0.82827   0.70288   0.00000  Uiso   1.00
C280   C     0.97929   0.80612   0.67017   0.00000  Uiso   1.00
C281   C     0.88639   0.76347   0.59551   0.00000  Uiso   1.00
C282   C     0.10050   0.85585   0.88806   0.00000  Uiso   1.00
C283   C     0.16614   0.83088   0.92341   0.00000  Uiso   1.00
C284   C     0.14982   0.80993   0.99156   0.00000  Uiso   1.00
C285   C     0.15563   0.76952   0.10292   0.00000  Uiso   1.00
C286   C     0.07628   0.93914   0.82331   0.00000  Uiso   1.00
C287   C     0.12156   0.98420   0.80424   0.00000  Uiso   1.00
C288   C     0.08485   0.03337   0.81789   0.00000  Uiso   1.00
C289   C     0.05305   0.12227   0.82872   0.00000  Uiso   1.00
C290   C     0.95882   0.88870   0.87143   0.00000  Uiso   1.00
C291   C     0.95780   0.85835   0.79986   0.00000  Uiso   1.00
C292   C     0.88792   0.83623   0.76723   0.00000  Uiso   1.00
C293   C     0.90001   0.81003   0.70181   0.00000  Uiso   1.00
C294   C     0.02137   0.85976   0.91966   0.00000  Uiso   1.00
C295   C     0.00494   0.83884   0.98777   0.00000  Uiso   1.00
C296   C     0.07054   0.81384   0.02321   0.00000  Uiso   1.00
C297   C     0.99714   0.94305   0.85491   0.00000  Uiso   1.00
C298   C     0.96036   0.99216   0.86860   0.00000  Uiso   1.00
C299   C     0.00557   0.03728   0.84955   0.00000  Uiso   1.00
H300   H     0.16613   0.87846   0.78866   0.00000  Uiso   1.00
H301   H     0.11038   0.82525   0.67845   0.00000  Uiso   1.00
H302   H     0.22738   0.82787   0.89895   0.00000  Uiso   1.00
H303   H     0.18280   0.98116   0.77980   0.00000  Uiso   1.00
H304   H     0.01367   0.76796   0.57020   0.00000  Uiso   1.00
H305   H     0.26038   0.77350   0.03515   0.00000  Uiso   1.00
H306   H     0.16638   0.09675   0.78389   0.00000  Uiso   1.00
H307   H     0.89721   0.89174   0.89603   0.00000  Uiso   1.00
H308   H     0.82669   0.83926   0.79170   0.00000  Uiso   1.00
H309   H     0.94370   0.84188   0.01220   0.00000  Uiso   1.00
H310   H     0.89912   0.99517   0.89305   0.00000  Uiso   1.00
H311   H     0.78342   0.77933   0.66212   0.00000  Uiso   1.00
H312   H     0.03013   0.78487   0.12708   0.00000  Uiso   1.00
H313   H     0.93613   0.10812   0.87581   0.00000  Uiso   1.00
O314   O     0.85701   0.73887   0.54560   0.00000  Uiso   1.00
O315   O     0.18070   0.74615   0.15561   0.00000  Uiso   1.00
O316   O     0.05737   0.17023   0.82596   0.00000  Uiso   1.00
N317   N     0.96915   0.77785   0.60614   0.00000  Uiso   1.00
N318   N     0.19981   0.78302   0.04084   0.00000  Uiso   1.00
N319   N     0.11194   0.08523   0.80595   0.00000  Uiso   1.00
N320   N     0.84526   0.78397   0.65560   0.00000  Uiso   1.00
N321   N     0.07592   0.78914   0.09031   0.00000  Uiso   1.00
N322   N     0.98804   0.09135   0.85541   0.00000  Uiso   1.00
C323   C     0.39548   0.11850   0.81326   0.00000  Uiso   1.00
C324   C     0.46307   0.14556   0.76826   0.00000  Uiso   1.00
C325   C     0.45088   0.17173   0.70288   0.00000  Uiso   1.00
C326   C     0.52071   0.19388   0.67017   0.00000  Uiso   1.00
C327   C     0.61361   0.23653   0.59551   0.00000  Uiso   1.00
C328   C     0.39950   0.14415   0.88806   0.00000  Uiso   1.00
C329   C     0.33386   0.16912   0.92341   0.00000  Uiso   1.00
C330   C     0.35018   0.19007   0.99156   0.00000  Uiso   1.00
C331   C     0.34437   0.23048   0.10292   0.00000  Uiso   1.00
C332   C     0.42372   0.06086   0.82331   0.00000  Uiso   1.00
C333   C     0.37844   0.01580   0.80424   0.00000  Uiso   1.00
C334   C     0.41515   0.96663   0.81789   0.00000  Uiso   1.00
C335   C     0.44695   0.87773   0.82872   0.00000  Uiso   1.00
C336   C     0.54118   0.11130   0.87143   0.00000  Uiso   1.00
C337   C     0.54220   0.14165   0.79986   0.00000  Uiso   1.00
C338   C     0.61208   0.16377   0.76723   0.00000  Uiso   1.00
C339   C     0.59999   0.18997   0.70181   0.00000  Uiso   1.00
C340   C     0.47863   0.14024   0.91966   0.00000  Uiso   1.00
C341   C     0.49506   0.16116   0.98777   0.00000  Uiso   1.00
C342   C     0.42946   0.18616   0.02321   0.00000  Uiso   1.00
C343   C     0.50286   0.05695   0.85491   0.00000  Uiso   1.00
C344   C     0.53964   0.00784   0.86860   0.00000  Uiso   1.00
C345   C     0.49443   0.96272   0.84955   0.00000  Uiso   1.00
H346   H     0.33387   0.12154   0.78866   0.00000  Uiso   1.00
H347   H     0.38962   0.17475   0.67845   0.00000  Uiso   1.00
H348   H     0.27262   0.17213   0.89895   0.00000  Uiso   1.00
H349   H     0.31720   0.01884   0.77980   0.00000  Uiso   1.00
H350   H     0.48633   0.23204   0.57020   0.00000  Uiso   1.00
H351   H     0.23962   0.22650   0.03515   0.00000  Uiso   1.00
H352   H     0.33362   0.90325   0.78389   0.00000  Uiso   1.00
H353   H     0.60279   0.10826   0.89603   0.00000  Uiso   1.00
H354   H     0.67331   0.16074   0.79170   0.00000  Uiso   1.00
H355   H     0.55630   0.15812   0.01220   0.00000  Uiso   1.00
H356   H     0.60088   0.00483   0.89305   0.00000  Uiso   1.00
H357   H     0.71658   0.22067   0.66212   0.00000  Uiso   1.00
H358   H     0.46987   0.21513   0.12708   0.00000  Uiso   1.00
H359   H     0.56387   0.89188   0.87581   0.00000  Uiso   1.00
O360   O     0.64299   0.26113   0.54560   0.00000  Uiso   1.00
O361   O     0.31930   0.25385   0.15561   0.00000  Uiso   1.00
O362   O     0.44263   0.82977   0.82596   0.00000  Uiso   1.00
N363   N     0.53085   0.22215   0.60614   0.00000  Uiso   1.00
N364   N     0.30019   0.21698   0.04084   0.00000  Uiso   1.00
N365   N     0.38806   0.91477   0.80595   0.00000  Uiso   1.00
N366   N     0.65474   0.21603   0.65560   0.00000  Uiso   1.00
N367   N     0.42408   0.21086   0.09031   0.00000  Uiso   1.00
N368   N     0.51196   0.90865   0.85541   0.00000  Uiso   1.00
