data_job_00027
_audit_creation_date              2018-12-19
_audit_creation_method            'Materials Studio'
_symmetry_space_group_name_H-M    'P1'
_symmetry_Int_Tables_number       1
_symmetry_cell_setting            triclinic
loop_
_symmetry_equiv_pos_as_xyz
  x,y,z
_cell_length_a                    7.2060
_cell_length_b                    26.2858
_cell_length_c                    15.5475
_cell_angle_alpha                 90.0000
_cell_angle_beta                  130.8822
_cell_angle_gamma                 90.0000
loop_
_atom_site_label
_atom_site_type_symbol
_atom_site_fract_x
_atom_site_fract_y
_atom_site_fract_z
_atom_site_U_iso_or_equiv
_atom_site_adp_type
_atom_site_occupancy
C1     C     0.34636   0.10351   0.75425   0.00000  Uiso   1.00
C2     C     0.44331   0.05597   0.73887   0.00000  Uiso   1.00
C3     C     0.36942   0.00641   0.73302   0.00000  Uiso   1.00
C4     C     0.48021   0.96818   0.71876   0.00000  Uiso   1.00
C5     C     0.60372   0.89270   0.69616   0.00000  Uiso   1.00
C6     C     0.57031   0.13032   0.85970   0.00000  Uiso   1.00
C7     C     0.60317   0.14327   0.95544   0.00000  Uiso   1.00
C8     C     0.82085   0.16763   0.04289   0.00000  Uiso   1.00
C9     C     0.14145   0.20760   0.20786   0.00000  Uiso   1.00
C10    C     0.25037   0.13812   0.65398   0.00000  Uiso   1.00
C11    C     0.01423   0.15764   0.57675   0.00000  Uiso   1.00
C12    C     0.96257   0.18859   0.49101   0.00000  Uiso   1.00
C13    C     0.78641   0.24068   0.33655   0.00000  Uiso   1.00
C14    C     0.67452   0.12377   0.73933   0.00000  Uiso   1.00
C15    C     0.62157   0.06698   0.73077   0.00000  Uiso   1.00
C16    C     0.73249   0.02882   0.71650   0.00000  Uiso   1.00
C17    C     0.65876   0.97921   0.71063   0.00000  Uiso   1.00
C18    C     0.74855   0.14132   0.85160   0.00000  Uiso   1.00
C19    C     0.96624   0.16568   0.93893   0.00000  Uiso   1.00
C20    C     0.99942   0.17866   0.03477   0.00000  Uiso   1.00
C21    C     0.42861   0.14913   0.64587   0.00000  Uiso   1.00
C22    C     0.37731   0.18006   0.56024   0.00000  Uiso   1.00
C23    C     0.14113   0.19962   0.48289   0.00000  Uiso   1.00
H24    H     0.20761   0.09494   0.76057   0.00000  Uiso   1.00
H25    H     0.23149   0.99790   0.73930   0.00000  Uiso   1.00
H26    H     0.46519   0.13475   0.96168   0.00000  Uiso   1.00
H27    H     0.87635   0.14912   0.58305   0.00000  Uiso   1.00
H28    H     0.33664   0.89517   0.71219   0.00000  Uiso   1.00
H29    H     0.82937   0.18373   0.18108   0.00000  Uiso   1.00
H30    H     0.58768   0.21404   0.38265   0.00000  Uiso   1.00
H31    H     0.81330   0.13234   0.73302   0.00000  Uiso   1.00
H32    H     0.87042   0.03735   0.71024   0.00000  Uiso   1.00
H33    H     0.10412   0.17419   0.93262   0.00000  Uiso   1.00
H34    H     0.51528   0.18856   0.55399   0.00000  Uiso   1.00
H35    H     0.85523   0.92719   0.68861   0.00000  Uiso   1.00
H36    H     0.34796   0.21575   0.15749   0.00000  Uiso   1.00
H37    H     0.10627   0.24605   0.35907   0.00000  Uiso   1.00
O38    O     0.62264   0.84802   0.68595   0.00000  Uiso   1.00
O39    O     0.26905   0.22660   0.30109   0.00000  Uiso   1.00
O40    O     0.63999   0.26636   0.25358   0.00000  Uiso   1.00
N41    N     0.45081   0.91574   0.70974   0.00000  Uiso   1.00
N42    N     0.91151   0.18552   0.14813   0.00000  Uiso   1.00
N43    N     0.75065   0.21387   0.40169   0.00000  Uiso   1.00
N44    N     0.72986   0.93297   0.69705   0.00000  Uiso   1.00
N45    N     0.19055   0.20275   0.13544   0.00000  Uiso   1.00
N46    N     0.02970   0.23109   0.38900   0.00000  Uiso   1.00
C47    C     0.84636   0.60351   0.75425   0.00000  Uiso   1.00
C48    C     0.94331   0.55597   0.73887   0.00000  Uiso   1.00
C49    C     0.86942   0.50641   0.73302   0.00000  Uiso   1.00
C50    C     0.98021   0.46818   0.71876   0.00000  Uiso   1.00
C51    C     0.10372   0.39270   0.69616   0.00000  Uiso   1.00
C52    C     0.07031   0.63032   0.85970   0.00000  Uiso   1.00
C53    C     0.10317   0.64327   0.95544   0.00000  Uiso   1.00
C54    C     0.32085   0.66763   0.04289   0.00000  Uiso   1.00
C55    C     0.64145   0.70760   0.20786   0.00000  Uiso   1.00
C56    C     0.75037   0.63812   0.65398   0.00000  Uiso   1.00
C57    C     0.51423   0.65764   0.57675   0.00000  Uiso   1.00
C58    C     0.46257   0.68859   0.49101   0.00000  Uiso   1.00
C59    C     0.28641   0.74068   0.33655   0.00000  Uiso   1.00
C60    C     0.17452   0.62377   0.73933   0.00000  Uiso   1.00
C61    C     0.12157   0.56698   0.73077   0.00000  Uiso   1.00
C62    C     0.23249   0.52882   0.71650   0.00000  Uiso   1.00
C63    C     0.15876   0.47921   0.71063   0.00000  Uiso   1.00
C64    C     0.24855   0.64132   0.85160   0.00000  Uiso   1.00
C65    C     0.46624   0.66568   0.93893   0.00000  Uiso   1.00
C66    C     0.49942   0.67866   0.03477   0.00000  Uiso   1.00
C67    C     0.92861   0.64913   0.64587   0.00000  Uiso   1.00
C68    C     0.87731   0.68006   0.56024   0.00000  Uiso   1.00
C69    C     0.64113   0.69962   0.48289   0.00000  Uiso   1.00
H70    H     0.70761   0.59494   0.76057   0.00000  Uiso   1.00
H71    H     0.73149   0.49790   0.73930   0.00000  Uiso   1.00
H72    H     0.96519   0.63475   0.96168   0.00000  Uiso   1.00
H73    H     0.37635   0.64912   0.58305   0.00000  Uiso   1.00
H74    H     0.83664   0.39517   0.71219   0.00000  Uiso   1.00
H75    H     0.32937   0.68373   0.18108   0.00000  Uiso   1.00
H76    H     0.08768   0.71404   0.38265   0.00000  Uiso   1.00
H77    H     0.31330   0.63234   0.73302   0.00000  Uiso   1.00
H78    H     0.37042   0.53735   0.71024   0.00000  Uiso   1.00
H79    H     0.60412   0.67419   0.93262   0.00000  Uiso   1.00
H80    H     0.01528   0.68856   0.55399   0.00000  Uiso   1.00
H81    H     0.35523   0.42719   0.68861   0.00000  Uiso   1.00
H82    H     0.84796   0.71575   0.15749   0.00000  Uiso   1.00
H83    H     0.60627   0.74605   0.35907   0.00000  Uiso   1.00
O84    O     0.12264   0.34802   0.68595   0.00000  Uiso   1.00
O85    O     0.76905   0.72660   0.30109   0.00000  Uiso   1.00
O86    O     0.13999   0.76636   0.25358   0.00000  Uiso   1.00
N87    N     0.95081   0.41574   0.70974   0.00000  Uiso   1.00
N88    N     0.41151   0.68552   0.14813   0.00000  Uiso   1.00
N89    N     0.25065   0.71387   0.40169   0.00000  Uiso   1.00
N90    N     0.22986   0.43297   0.69705   0.00000  Uiso   1.00
N91    N     0.69055   0.70275   0.13544   0.00000  Uiso   1.00
N92    N     0.52970   0.73109   0.38900   0.00000  Uiso   1.00
C93    C     0.34636   0.89649   0.25425   0.00000  Uiso   1.00
C94    C     0.44331   0.94403   0.23887   0.00000  Uiso   1.00
C95    C     0.36942   0.99359   0.23302   0.00000  Uiso   1.00
C96    C     0.48021   0.03182   0.21876   0.00000  Uiso   1.00
C97    C     0.60372   0.10730   0.19616   0.00000  Uiso   1.00
C98    C     0.57031   0.86968   0.35970   0.00000  Uiso   1.00
C99    C     0.60317   0.85673   0.45544   0.00000  Uiso   1.00
C100   C     0.82085   0.83237   0.54289   0.00000  Uiso   1.00
C101   C     0.14145   0.79240   0.70786   0.00000  Uiso   1.00
C102   C     0.25037   0.86188   0.15398   0.00000  Uiso   1.00
C103   C     0.01423   0.84236   0.07675   0.00000  Uiso   1.00
C104   C     0.96257   0.81141   0.99101   0.00000  Uiso   1.00
C105   C     0.78641   0.75932   0.83655   0.00000  Uiso   1.00
C106   C     0.67452   0.87623   0.23933   0.00000  Uiso   1.00
C107   C     0.62157   0.93302   0.23077   0.00000  Uiso   1.00
C108   C     0.73249   0.97118   0.21650   0.00000  Uiso   1.00
C109   C     0.65876   0.02079   0.21063   0.00000  Uiso   1.00
C110   C     0.74855   0.85868   0.35160   0.00000  Uiso   1.00
C111   C     0.96624   0.83432   0.43893   0.00000  Uiso   1.00
C112   C     0.99942   0.82134   0.53477   0.00000  Uiso   1.00
C113   C     0.42861   0.85087   0.14587   0.00000  Uiso   1.00
C114   C     0.37731   0.81994   0.06024   0.00000  Uiso   1.00
C115   C     0.14113   0.80038   0.98289   0.00000  Uiso   1.00
H116   H     0.20761   0.90506   0.26057   0.00000  Uiso   1.00
H117   H     0.23149   0.00210   0.23930   0.00000  Uiso   1.00
H118   H     0.46519   0.86525   0.46168   0.00000  Uiso   1.00
H119   H     0.87635   0.85088   0.08305   0.00000  Uiso   1.00
H120   H     0.33664   0.10483   0.21219   0.00000  Uiso   1.00
H121   H     0.82937   0.81627   0.68108   0.00000  Uiso   1.00
H122   H     0.58768   0.78596   0.88265   0.00000  Uiso   1.00
H123   H     0.81330   0.86766   0.23302   0.00000  Uiso   1.00
H124   H     0.87042   0.96265   0.21024   0.00000  Uiso   1.00
H125   H     0.10412   0.82581   0.43262   0.00000  Uiso   1.00
H126   H     0.51528   0.81144   0.05399   0.00000  Uiso   1.00
H127   H     0.85523   0.07281   0.18861   0.00000  Uiso   1.00
H128   H     0.34796   0.78425   0.65749   0.00000  Uiso   1.00
H129   H     0.10627   0.75395   0.85907   0.00000  Uiso   1.00
O130   O     0.62264   0.15198   0.18595   0.00000  Uiso   1.00
O131   O     0.26905   0.77340   0.80109   0.00000  Uiso   1.00
O132   O     0.63999   0.73364   0.75358   0.00000  Uiso   1.00
N133   N     0.45081   0.08426   0.20974   0.00000  Uiso   1.00
N134   N     0.91151   0.81448   0.64813   0.00000  Uiso   1.00
N135   N     0.75065   0.78613   0.90169   0.00000  Uiso   1.00
N136   N     0.72986   0.06703   0.19705   0.00000  Uiso   1.00
N137   N     0.19055   0.79725   0.63544   0.00000  Uiso   1.00
N138   N     0.02970   0.76891   0.88900   0.00000  Uiso   1.00
C139   C     0.84636   0.39649   0.25425   0.00000  Uiso   1.00
C140   C     0.94331   0.44403   0.23887   0.00000  Uiso   1.00
C141   C     0.86942   0.49359   0.23302   0.00000  Uiso   1.00
C142   C     0.98021   0.53182   0.21876   0.00000  Uiso   1.00
C143   C     0.10372   0.60730   0.19616   0.00000  Uiso   1.00
C144   C     0.07031   0.36968   0.35970   0.00000  Uiso   1.00
C145   C     0.10317   0.35673   0.45544   0.00000  Uiso   1.00
C146   C     0.32085   0.33237   0.54289   0.00000  Uiso   1.00
C147   C     0.64145   0.29240   0.70786   0.00000  Uiso   1.00
C148   C     0.75037   0.36188   0.15398   0.00000  Uiso   1.00
C149   C     0.51423   0.34236   0.07675   0.00000  Uiso   1.00
C150   C     0.46257   0.31141   0.99101   0.00000  Uiso   1.00
C151   C     0.28641   0.25932   0.83655   0.00000  Uiso   1.00
C152   C     0.17452   0.37623   0.23933   0.00000  Uiso   1.00
C153   C     0.12157   0.43302   0.23077   0.00000  Uiso   1.00
C154   C     0.23249   0.47118   0.21650   0.00000  Uiso   1.00
C155   C     0.15876   0.52079   0.21063   0.00000  Uiso   1.00
C156   C     0.24855   0.35868   0.35160   0.00000  Uiso   1.00
C157   C     0.46624   0.33432   0.43893   0.00000  Uiso   1.00
C158   C     0.49942   0.32134   0.53477   0.00000  Uiso   1.00
C159   C     0.92861   0.35087   0.14587   0.00000  Uiso   1.00
C160   C     0.87731   0.31994   0.06024   0.00000  Uiso   1.00
C161   C     0.64113   0.30038   0.98289   0.00000  Uiso   1.00
H162   H     0.70761   0.40506   0.26057   0.00000  Uiso   1.00
H163   H     0.73149   0.50210   0.23930   0.00000  Uiso   1.00
H164   H     0.96519   0.36525   0.46168   0.00000  Uiso   1.00
H165   H     0.37635   0.35088   0.08305   0.00000  Uiso   1.00
H166   H     0.83664   0.60483   0.21219   0.00000  Uiso   1.00
H167   H     0.32937   0.31627   0.68108   0.00000  Uiso   1.00
H168   H     0.08768   0.28596   0.88265   0.00000  Uiso   1.00
H169   H     0.31330   0.36766   0.23302   0.00000  Uiso   1.00
H170   H     0.37042   0.46265   0.21024   0.00000  Uiso   1.00
H171   H     0.60412   0.32581   0.43262   0.00000  Uiso   1.00
H172   H     0.01528   0.31144   0.05399   0.00000  Uiso   1.00
H173   H     0.35523   0.57281   0.18861   0.00000  Uiso   1.00
H174   H     0.84796   0.28425   0.65749   0.00000  Uiso   1.00
H175   H     0.60627   0.25395   0.85907   0.00000  Uiso   1.00
O176   O     0.12264   0.65198   0.18595   0.00000  Uiso   1.00
O177   O     0.76905   0.27340   0.80109   0.00000  Uiso   1.00
O178   O     0.13999   0.23364   0.75358   0.00000  Uiso   1.00
N179   N     0.95081   0.58426   0.20974   0.00000  Uiso   1.00
N180   N     0.41151   0.31448   0.64813   0.00000  Uiso   1.00
N181   N     0.25065   0.28613   0.90169   0.00000  Uiso   1.00
N182   N     0.22986   0.56703   0.19705   0.00000  Uiso   1.00
N183   N     0.69055   0.29725   0.63544   0.00000  Uiso   1.00
N184   N     0.52970   0.26891   0.88900   0.00000  Uiso   1.00
