data_job_02732
_audit_creation_date              2018-12-19
_audit_creation_method            'Materials Studio'
_symmetry_space_group_name_H-M    'P1'
_symmetry_Int_Tables_number       1
_symmetry_cell_setting            triclinic
loop_
_symmetry_equiv_pos_as_xyz
  x,y,z
_cell_length_a                    11.8797
_cell_length_b                    21.3384
_cell_length_c                    19.8040
_cell_angle_alpha                 90.0000
_cell_angle_beta                  90.0000
_cell_angle_gamma                 90.0000
loop_
_atom_site_label
_atom_site_type_symbol
_atom_site_fract_x
_atom_site_fract_y
_atom_site_fract_z
_atom_site_U_iso_or_equiv
_atom_site_adp_type
_atom_site_occupancy
C1     C     0.24700   0.68080   0.90729   0.00000  Uiso   1.00
C2     C     0.28007   0.68674   0.83316   0.00000  Uiso   1.00
C3     C     0.27555   0.74122   0.79499   0.00000  Uiso   1.00
C4     C     0.30943   0.73694   0.72805   0.00000  Uiso   1.00
C5     C     0.35509   0.75478   0.61715   0.00000  Uiso   1.00
C6     C     0.15768   0.62955   0.91027   0.00000  Uiso   1.00
C7     C     0.05026   0.63595   0.93695   0.00000  Uiso   1.00
C8     C     0.98112   0.58353   0.93494   0.00000  Uiso   1.00
C9     C     0.83679   0.51258   0.94381   0.00000  Uiso   1.00
C10    C     0.34999   0.65451   0.94347   0.00000  Uiso   1.00
C11    C     0.40425   0.68188   0.99808   0.00000  Uiso   1.00
C12    C     0.49701   0.65046   0.02403   0.00000  Uiso   1.00
C13    C     0.65126   0.61826   0.08445   0.00000  Uiso   1.00
C14    C     0.31521   0.57632   0.85629   0.00000  Uiso   1.00
C15    C     0.31712   0.62999   0.80546   0.00000  Uiso   1.00
C16    C     0.35102   0.62562   0.73856   0.00000  Uiso   1.00
C17    C     0.34655   0.68009   0.70030   0.00000  Uiso   1.00
C18    C     0.19472   0.57280   0.88258   0.00000  Uiso   1.00
C19    C     0.12573   0.52035   0.88053   0.00000  Uiso   1.00
C20    C     0.01823   0.52667   0.90719   0.00000  Uiso   1.00
C21    C     0.38704   0.59776   0.91578   0.00000  Uiso   1.00
C22    C     0.47972   0.56628   0.94165   0.00000  Uiso   1.00
C23    C     0.53412   0.59360   0.99628   0.00000  Uiso   1.00
H24    H     0.21815   0.72499   0.92885   0.00000  Uiso   1.00
H25    H     0.24686   0.78513   0.81644   0.00000  Uiso   1.00
H26    H     0.02162   0.67988   0.95839   0.00000  Uiso   1.00
H27    H     0.37556   0.72580   0.01950   0.00000  Uiso   1.00
H28    H     0.29500   0.82678   0.67959   0.00000  Uiso   1.00
H29    H     0.82007   0.60484   0.97891   0.00000  Uiso   1.00
H30    H     0.56641   0.70168   0.10778   0.00000  Uiso   1.00
H31    H     0.34406   0.53213   0.83473   0.00000  Uiso   1.00
H32    H     0.37968   0.58169   0.71714   0.00000  Uiso   1.00
H33    H     0.15443   0.47644   0.85909   0.00000  Uiso   1.00
H34    H     0.50837   0.52236   0.92020   0.00000  Uiso   1.00
H35    H     0.40279   0.66166   0.59899   0.00000  Uiso   1.00
H36    H     0.92786   0.43972   0.89832   0.00000  Uiso   1.00
H37    H     0.67420   0.53656   0.02719   0.00000  Uiso   1.00
O38    O     0.37002   0.78030   0.56363   0.00000  Uiso   1.00
O39    O     0.74694   0.48913   0.95635   0.00000  Uiso   1.00
O40    O     0.72613   0.61618   0.12542   0.00000  Uiso   1.00
N41    N     0.31550   0.78112   0.67676   0.00000  Uiso   1.00
N42    N     0.87146   0.57363   0.95660   0.00000  Uiso   1.00
N43    N     0.56921   0.66415   0.07710   0.00000  Uiso   1.00
N44    N     0.37350   0.69227   0.63339   0.00000  Uiso   1.00
N45    N     0.92946   0.48478   0.91323   0.00000  Uiso   1.00
N46    N     0.62722   0.57530   0.03373   0.00000  Uiso   1.00
C47    C     0.25300   0.81920   0.40729   0.00000  Uiso   1.00
C48    C     0.21993   0.81326   0.33316   0.00000  Uiso   1.00
C49    C     0.22445   0.75878   0.29499   0.00000  Uiso   1.00
C50    C     0.19057   0.76306   0.22805   0.00000  Uiso   1.00
C51    C     0.14491   0.74522   0.11715   0.00000  Uiso   1.00
C52    C     0.34232   0.87045   0.41027   0.00000  Uiso   1.00
C53    C     0.44974   0.86405   0.43695   0.00000  Uiso   1.00
C54    C     0.51888   0.91647   0.43494   0.00000  Uiso   1.00
C55    C     0.66321   0.98742   0.44381   0.00000  Uiso   1.00
C56    C     0.15001   0.84549   0.44347   0.00000  Uiso   1.00
C57    C     0.09575   0.81812   0.49808   0.00000  Uiso   1.00
C58    C     0.00299   0.84954   0.52403   0.00000  Uiso   1.00
C59    C     0.84874   0.88174   0.58445   0.00000  Uiso   1.00
C60    C     0.18479   0.92368   0.35629   0.00000  Uiso   1.00
C61    C     0.18288   0.87001   0.30546   0.00000  Uiso   1.00
C62    C     0.14898   0.87438   0.23856   0.00000  Uiso   1.00
C63    C     0.15345   0.81991   0.20030   0.00000  Uiso   1.00
C64    C     0.30528   0.92720   0.38258   0.00000  Uiso   1.00
C65    C     0.37427   0.97965   0.38053   0.00000  Uiso   1.00
C66    C     0.48177   0.97333   0.40719   0.00000  Uiso   1.00
C67    C     0.11296   0.90224   0.41578   0.00000  Uiso   1.00
C68    C     0.02028   0.93372   0.44165   0.00000  Uiso   1.00
C69    C     0.96588   0.90640   0.49628   0.00000  Uiso   1.00
H70    H     0.28185   0.77501   0.42885   0.00000  Uiso   1.00
H71    H     0.25314   0.71487   0.31644   0.00000  Uiso   1.00
H72    H     0.47838   0.82012   0.45839   0.00000  Uiso   1.00
H73    H     0.12444   0.77420   0.51950   0.00000  Uiso   1.00
H74    H     0.20500   0.67322   0.17959   0.00000  Uiso   1.00
H75    H     0.67993   0.89516   0.47891   0.00000  Uiso   1.00
H76    H     0.93359   0.79832   0.60778   0.00000  Uiso   1.00
H77    H     0.15594   0.96787   0.33473   0.00000  Uiso   1.00
H78    H     0.12032   0.91831   0.21714   0.00000  Uiso   1.00
H79    H     0.34557   0.02356   0.35909   0.00000  Uiso   1.00
H80    H     0.99163   0.97764   0.42020   0.00000  Uiso   1.00
H81    H     0.09721   0.83834   0.09899   0.00000  Uiso   1.00
H82    H     0.57214   0.06028   0.39832   0.00000  Uiso   1.00
H83    H     0.82580   0.96344   0.52719   0.00000  Uiso   1.00
O84    O     0.12998   0.71970   0.06363   0.00000  Uiso   1.00
O85    O     0.75306   0.01087   0.45635   0.00000  Uiso   1.00
O86    O     0.77387   0.88382   0.62542   0.00000  Uiso   1.00
N87    N     0.18450   0.71888   0.17676   0.00000  Uiso   1.00
N88    N     0.62854   0.92637   0.45660   0.00000  Uiso   1.00
N89    N     0.93079   0.83585   0.57710   0.00000  Uiso   1.00
N90    N     0.12650   0.80773   0.13339   0.00000  Uiso   1.00
N91    N     0.57054   0.01522   0.41323   0.00000  Uiso   1.00
N92    N     0.87278   0.92470   0.53373   0.00000  Uiso   1.00
C93    C     0.75300   0.68080   0.59271   0.00000  Uiso   1.00
C94    C     0.71993   0.68674   0.66684   0.00000  Uiso   1.00
C95    C     0.72445   0.74122   0.70501   0.00000  Uiso   1.00
C96    C     0.69057   0.73694   0.77195   0.00000  Uiso   1.00
C97    C     0.64491   0.75478   0.88285   0.00000  Uiso   1.00
C98    C     0.84232   0.62955   0.58973   0.00000  Uiso   1.00
C99    C     0.94974   0.63595   0.56305   0.00000  Uiso   1.00
C100   C     0.01888   0.58353   0.56506   0.00000  Uiso   1.00
C101   C     0.16321   0.51258   0.55619   0.00000  Uiso   1.00
C102   C     0.65001   0.65451   0.55653   0.00000  Uiso   1.00
C103   C     0.59575   0.68188   0.50192   0.00000  Uiso   1.00
C104   C     0.50299   0.65046   0.47597   0.00000  Uiso   1.00
C105   C     0.34874   0.61826   0.41555   0.00000  Uiso   1.00
C106   C     0.68479   0.57632   0.64371   0.00000  Uiso   1.00
C107   C     0.68288   0.62999   0.69454   0.00000  Uiso   1.00
C108   C     0.64898   0.62562   0.76144   0.00000  Uiso   1.00
C109   C     0.65345   0.68009   0.79970   0.00000  Uiso   1.00
C110   C     0.80528   0.57280   0.61742   0.00000  Uiso   1.00
C111   C     0.87427   0.52035   0.61947   0.00000  Uiso   1.00
C112   C     0.98177   0.52667   0.59281   0.00000  Uiso   1.00
C113   C     0.61296   0.59776   0.58422   0.00000  Uiso   1.00
C114   C     0.52028   0.56628   0.55835   0.00000  Uiso   1.00
C115   C     0.46588   0.59360   0.50372   0.00000  Uiso   1.00
H116   H     0.78185   0.72499   0.57115   0.00000  Uiso   1.00
H117   H     0.75314   0.78513   0.68356   0.00000  Uiso   1.00
H118   H     0.97838   0.67988   0.54161   0.00000  Uiso   1.00
H119   H     0.62444   0.72580   0.48050   0.00000  Uiso   1.00
H120   H     0.70500   0.82678   0.82041   0.00000  Uiso   1.00
H121   H     0.17993   0.60484   0.52109   0.00000  Uiso   1.00
H122   H     0.43359   0.70168   0.39222   0.00000  Uiso   1.00
H123   H     0.65594   0.53213   0.66527   0.00000  Uiso   1.00
H124   H     0.62032   0.58169   0.78286   0.00000  Uiso   1.00
H125   H     0.84557   0.47644   0.64091   0.00000  Uiso   1.00
H126   H     0.49163   0.52236   0.57980   0.00000  Uiso   1.00
H127   H     0.59721   0.66166   0.90101   0.00000  Uiso   1.00
H128   H     0.07214   0.43972   0.60168   0.00000  Uiso   1.00
H129   H     0.32580   0.53656   0.47281   0.00000  Uiso   1.00
O130   O     0.62998   0.78030   0.93637   0.00000  Uiso   1.00
O131   O     0.25306   0.48913   0.54365   0.00000  Uiso   1.00
O132   O     0.27387   0.61618   0.37458   0.00000  Uiso   1.00
N133   N     0.68450   0.78112   0.82324   0.00000  Uiso   1.00
N134   N     0.12854   0.57363   0.54340   0.00000  Uiso   1.00
N135   N     0.43079   0.66415   0.42290   0.00000  Uiso   1.00
N136   N     0.62650   0.69227   0.86661   0.00000  Uiso   1.00
N137   N     0.07054   0.48478   0.58677   0.00000  Uiso   1.00
N138   N     0.37278   0.57530   0.46627   0.00000  Uiso   1.00
C139   C     0.74700   0.81920   0.09271   0.00000  Uiso   1.00
C140   C     0.78007   0.81326   0.16684   0.00000  Uiso   1.00
C141   C     0.77555   0.75878   0.20501   0.00000  Uiso   1.00
C142   C     0.80943   0.76306   0.27195   0.00000  Uiso   1.00
C143   C     0.85509   0.74522   0.38285   0.00000  Uiso   1.00
C144   C     0.65768   0.87045   0.08973   0.00000  Uiso   1.00
C145   C     0.55026   0.86405   0.06305   0.00000  Uiso   1.00
C146   C     0.48112   0.91647   0.06506   0.00000  Uiso   1.00
C147   C     0.33679   0.98742   0.05619   0.00000  Uiso   1.00
C148   C     0.84999   0.84549   0.05653   0.00000  Uiso   1.00
C149   C     0.90425   0.81812   0.00192   0.00000  Uiso   1.00
C150   C     0.99701   0.84954   0.97597   0.00000  Uiso   1.00
C151   C     0.15126   0.88174   0.91555   0.00000  Uiso   1.00
C152   C     0.81521   0.92368   0.14371   0.00000  Uiso   1.00
C153   C     0.81712   0.87001   0.19454   0.00000  Uiso   1.00
C154   C     0.85102   0.87438   0.26144   0.00000  Uiso   1.00
C155   C     0.84655   0.81991   0.29970   0.00000  Uiso   1.00
C156   C     0.69472   0.92720   0.11742   0.00000  Uiso   1.00
C157   C     0.62573   0.97965   0.11947   0.00000  Uiso   1.00
C158   C     0.51823   0.97333   0.09281   0.00000  Uiso   1.00
C159   C     0.88704   0.90224   0.08422   0.00000  Uiso   1.00
C160   C     0.97972   0.93372   0.05835   0.00000  Uiso   1.00
C161   C     0.03412   0.90640   0.00372   0.00000  Uiso   1.00
H162   H     0.71815   0.77501   0.07115   0.00000  Uiso   1.00
H163   H     0.74686   0.71487   0.18356   0.00000  Uiso   1.00
H164   H     0.52162   0.82012   0.04161   0.00000  Uiso   1.00
H165   H     0.87556   0.77420   0.98050   0.00000  Uiso   1.00
H166   H     0.79500   0.67322   0.32041   0.00000  Uiso   1.00
H167   H     0.32007   0.89516   0.02109   0.00000  Uiso   1.00
H168   H     0.06641   0.79832   0.89222   0.00000  Uiso   1.00
H169   H     0.84406   0.96787   0.16527   0.00000  Uiso   1.00
H170   H     0.87968   0.91831   0.28286   0.00000  Uiso   1.00
H171   H     0.65443   0.02356   0.14091   0.00000  Uiso   1.00
H172   H     0.00837   0.97764   0.07980   0.00000  Uiso   1.00
H173   H     0.90279   0.83834   0.40101   0.00000  Uiso   1.00
H174   H     0.42786   0.06028   0.10168   0.00000  Uiso   1.00
H175   H     0.17420   0.96344   0.97281   0.00000  Uiso   1.00
O176   O     0.87002   0.71970   0.43637   0.00000  Uiso   1.00
O177   O     0.24694   0.01087   0.04365   0.00000  Uiso   1.00
O178   O     0.22613   0.88382   0.87458   0.00000  Uiso   1.00
N179   N     0.81550   0.71888   0.32324   0.00000  Uiso   1.00
N180   N     0.37146   0.92637   0.04340   0.00000  Uiso   1.00
N181   N     0.06921   0.83585   0.92290   0.00000  Uiso   1.00
N182   N     0.87350   0.80773   0.36661   0.00000  Uiso   1.00
N183   N     0.42946   0.01522   0.08677   0.00000  Uiso   1.00
N184   N     0.12722   0.92470   0.96627   0.00000  Uiso   1.00
C185   C     0.75300   0.31920   0.09271   0.00000  Uiso   1.00
C186   C     0.71993   0.31326   0.16684   0.00000  Uiso   1.00
C187   C     0.72445   0.25878   0.20501   0.00000  Uiso   1.00
C188   C     0.69057   0.26306   0.27195   0.00000  Uiso   1.00
C189   C     0.64491   0.24522   0.38285   0.00000  Uiso   1.00
C190   C     0.84232   0.37045   0.08973   0.00000  Uiso   1.00
C191   C     0.94974   0.36405   0.06305   0.00000  Uiso   1.00
C192   C     0.01888   0.41647   0.06506   0.00000  Uiso   1.00
C193   C     0.16321   0.48742   0.05619   0.00000  Uiso   1.00
C194   C     0.65001   0.34549   0.05653   0.00000  Uiso   1.00
C195   C     0.59575   0.31812   0.00192   0.00000  Uiso   1.00
C196   C     0.50299   0.34954   0.97597   0.00000  Uiso   1.00
C197   C     0.34874   0.38174   0.91555   0.00000  Uiso   1.00
C198   C     0.68479   0.42368   0.14371   0.00000  Uiso   1.00
C199   C     0.68288   0.37001   0.19454   0.00000  Uiso   1.00
C200   C     0.64898   0.37438   0.26144   0.00000  Uiso   1.00
C201   C     0.65345   0.31991   0.29970   0.00000  Uiso   1.00
C202   C     0.80528   0.42720   0.11742   0.00000  Uiso   1.00
C203   C     0.87427   0.47965   0.11947   0.00000  Uiso   1.00
C204   C     0.98177   0.47333   0.09281   0.00000  Uiso   1.00
C205   C     0.61296   0.40224   0.08422   0.00000  Uiso   1.00
C206   C     0.52028   0.43372   0.05835   0.00000  Uiso   1.00
C207   C     0.46588   0.40640   0.00372   0.00000  Uiso   1.00
H208   H     0.78185   0.27501   0.07115   0.00000  Uiso   1.00
H209   H     0.75314   0.21487   0.18356   0.00000  Uiso   1.00
H210   H     0.97838   0.32012   0.04161   0.00000  Uiso   1.00
H211   H     0.62444   0.27420   0.98050   0.00000  Uiso   1.00
H212   H     0.70500   0.17322   0.32041   0.00000  Uiso   1.00
H213   H     0.17993   0.39516   0.02109   0.00000  Uiso   1.00
H214   H     0.43359   0.29832   0.89222   0.00000  Uiso   1.00
H215   H     0.65594   0.46787   0.16527   0.00000  Uiso   1.00
H216   H     0.62032   0.41831   0.28286   0.00000  Uiso   1.00
H217   H     0.84557   0.52356   0.14091   0.00000  Uiso   1.00
H218   H     0.49163   0.47764   0.07980   0.00000  Uiso   1.00
H219   H     0.59721   0.33834   0.40101   0.00000  Uiso   1.00
H220   H     0.07214   0.56028   0.10168   0.00000  Uiso   1.00
H221   H     0.32580   0.46344   0.97281   0.00000  Uiso   1.00
O222   O     0.62998   0.21970   0.43637   0.00000  Uiso   1.00
O223   O     0.25306   0.51087   0.04365   0.00000  Uiso   1.00
O224   O     0.27387   0.38382   0.87458   0.00000  Uiso   1.00
N225   N     0.68450   0.21888   0.32324   0.00000  Uiso   1.00
N226   N     0.12854   0.42637   0.04340   0.00000  Uiso   1.00
N227   N     0.43079   0.33585   0.92290   0.00000  Uiso   1.00
N228   N     0.62650   0.30773   0.36661   0.00000  Uiso   1.00
N229   N     0.07054   0.51522   0.08677   0.00000  Uiso   1.00
N230   N     0.37278   0.42470   0.96627   0.00000  Uiso   1.00
C231   C     0.74700   0.18080   0.59271   0.00000  Uiso   1.00
C232   C     0.78007   0.18674   0.66684   0.00000  Uiso   1.00
C233   C     0.77555   0.24122   0.70501   0.00000  Uiso   1.00
C234   C     0.80943   0.23694   0.77195   0.00000  Uiso   1.00
C235   C     0.85509   0.25478   0.88285   0.00000  Uiso   1.00
C236   C     0.65768   0.12955   0.58973   0.00000  Uiso   1.00
C237   C     0.55026   0.13595   0.56305   0.00000  Uiso   1.00
C238   C     0.48112   0.08353   0.56506   0.00000  Uiso   1.00
C239   C     0.33679   0.01258   0.55619   0.00000  Uiso   1.00
C240   C     0.84999   0.15451   0.55653   0.00000  Uiso   1.00
C241   C     0.90425   0.18188   0.50192   0.00000  Uiso   1.00
C242   C     0.99701   0.15046   0.47597   0.00000  Uiso   1.00
C243   C     0.15126   0.11826   0.41555   0.00000  Uiso   1.00
C244   C     0.81521   0.07632   0.64371   0.00000  Uiso   1.00
C245   C     0.81712   0.12999   0.69454   0.00000  Uiso   1.00
C246   C     0.85102   0.12562   0.76144   0.00000  Uiso   1.00
C247   C     0.84655   0.18009   0.79970   0.00000  Uiso   1.00
C248   C     0.69472   0.07280   0.61742   0.00000  Uiso   1.00
C249   C     0.62573   0.02035   0.61947   0.00000  Uiso   1.00
C250   C     0.51823   0.02667   0.59281   0.00000  Uiso   1.00
C251   C     0.88704   0.09776   0.58422   0.00000  Uiso   1.00
C252   C     0.97972   0.06628   0.55835   0.00000  Uiso   1.00
C253   C     0.03412   0.09360   0.50372   0.00000  Uiso   1.00
H254   H     0.71815   0.22499   0.57115   0.00000  Uiso   1.00
H255   H     0.74686   0.28513   0.68356   0.00000  Uiso   1.00
H256   H     0.52162   0.17988   0.54161   0.00000  Uiso   1.00
H257   H     0.87556   0.22580   0.48050   0.00000  Uiso   1.00
H258   H     0.79500   0.32678   0.82041   0.00000  Uiso   1.00
H259   H     0.32007   0.10484   0.52109   0.00000  Uiso   1.00
H260   H     0.06641   0.20168   0.39222   0.00000  Uiso   1.00
H261   H     0.84406   0.03213   0.66527   0.00000  Uiso   1.00
H262   H     0.87968   0.08169   0.78286   0.00000  Uiso   1.00
H263   H     0.65443   0.97644   0.64091   0.00000  Uiso   1.00
H264   H     0.00837   0.02236   0.57980   0.00000  Uiso   1.00
H265   H     0.90279   0.16166   0.90101   0.00000  Uiso   1.00
H266   H     0.42786   0.93972   0.60168   0.00000  Uiso   1.00
H267   H     0.17420   0.03656   0.47281   0.00000  Uiso   1.00
O268   O     0.87002   0.28030   0.93637   0.00000  Uiso   1.00
O269   O     0.24694   0.98913   0.54365   0.00000  Uiso   1.00
O270   O     0.22613   0.11618   0.37458   0.00000  Uiso   1.00
N271   N     0.81550   0.28112   0.82324   0.00000  Uiso   1.00
N272   N     0.37146   0.07363   0.54340   0.00000  Uiso   1.00
N273   N     0.06921   0.16415   0.42290   0.00000  Uiso   1.00
N274   N     0.87350   0.19227   0.86661   0.00000  Uiso   1.00
N275   N     0.42946   0.98478   0.58677   0.00000  Uiso   1.00
N276   N     0.12722   0.07530   0.46627   0.00000  Uiso   1.00
C277   C     0.24700   0.31920   0.40729   0.00000  Uiso   1.00
C278   C     0.28007   0.31326   0.33316   0.00000  Uiso   1.00
C279   C     0.27555   0.25878   0.29499   0.00000  Uiso   1.00
C280   C     0.30943   0.26306   0.22805   0.00000  Uiso   1.00
C281   C     0.35509   0.24522   0.11715   0.00000  Uiso   1.00
C282   C     0.15768   0.37045   0.41027   0.00000  Uiso   1.00
C283   C     0.05026   0.36405   0.43695   0.00000  Uiso   1.00
C284   C     0.98112   0.41647   0.43494   0.00000  Uiso   1.00
C285   C     0.83679   0.48742   0.44381   0.00000  Uiso   1.00
C286   C     0.34999   0.34549   0.44347   0.00000  Uiso   1.00
C287   C     0.40425   0.31812   0.49808   0.00000  Uiso   1.00
C288   C     0.49701   0.34954   0.52403   0.00000  Uiso   1.00
C289   C     0.65126   0.38174   0.58445   0.00000  Uiso   1.00
C290   C     0.31521   0.42368   0.35629   0.00000  Uiso   1.00
C291   C     0.31712   0.37001   0.30546   0.00000  Uiso   1.00
C292   C     0.35102   0.37438   0.23856   0.00000  Uiso   1.00
C293   C     0.34655   0.31991   0.20030   0.00000  Uiso   1.00
C294   C     0.19472   0.42720   0.38258   0.00000  Uiso   1.00
C295   C     0.12573   0.47965   0.38053   0.00000  Uiso   1.00
C296   C     0.01823   0.47333   0.40719   0.00000  Uiso   1.00
C297   C     0.38704   0.40224   0.41578   0.00000  Uiso   1.00
C298   C     0.47972   0.43372   0.44165   0.00000  Uiso   1.00
C299   C     0.53412   0.40640   0.49628   0.00000  Uiso   1.00
H300   H     0.21815   0.27501   0.42885   0.00000  Uiso   1.00
H301   H     0.24686   0.21487   0.31644   0.00000  Uiso   1.00
H302   H     0.02162   0.32012   0.45839   0.00000  Uiso   1.00
H303   H     0.37556   0.27420   0.51950   0.00000  Uiso   1.00
H304   H     0.29500   0.17322   0.17959   0.00000  Uiso   1.00
H305   H     0.82007   0.39516   0.47891   0.00000  Uiso   1.00
H306   H     0.56641   0.29832   0.60778   0.00000  Uiso   1.00
H307   H     0.34406   0.46787   0.33473   0.00000  Uiso   1.00
H308   H     0.37968   0.41831   0.21714   0.00000  Uiso   1.00
H309   H     0.15443   0.52356   0.35909   0.00000  Uiso   1.00
H310   H     0.50837   0.47764   0.42020   0.00000  Uiso   1.00
H311   H     0.40279   0.33834   0.09899   0.00000  Uiso   1.00
H312   H     0.92786   0.56028   0.39832   0.00000  Uiso   1.00
H313   H     0.67420   0.46344   0.52719   0.00000  Uiso   1.00
O314   O     0.37002   0.21970   0.06363   0.00000  Uiso   1.00
O315   O     0.74694   0.51087   0.45635   0.00000  Uiso   1.00
O316   O     0.72613   0.38382   0.62542   0.00000  Uiso   1.00
N317   N     0.31550   0.21888   0.17676   0.00000  Uiso   1.00
N318   N     0.87146   0.42637   0.45660   0.00000  Uiso   1.00
N319   N     0.56921   0.33585   0.57710   0.00000  Uiso   1.00
N320   N     0.37350   0.30773   0.13339   0.00000  Uiso   1.00
N321   N     0.92946   0.51522   0.41323   0.00000  Uiso   1.00
N322   N     0.62722   0.42470   0.53373   0.00000  Uiso   1.00
C323   C     0.25300   0.18080   0.90729   0.00000  Uiso   1.00
C324   C     0.21993   0.18674   0.83316   0.00000  Uiso   1.00
C325   C     0.22445   0.24122   0.79499   0.00000  Uiso   1.00
C326   C     0.19057   0.23694   0.72805   0.00000  Uiso   1.00
C327   C     0.14491   0.25478   0.61715   0.00000  Uiso   1.00
C328   C     0.34232   0.12955   0.91027   0.00000  Uiso   1.00
C329   C     0.44974   0.13595   0.93695   0.00000  Uiso   1.00
C330   C     0.51888   0.08353   0.93494   0.00000  Uiso   1.00
C331   C     0.66321   0.01258   0.94381   0.00000  Uiso   1.00
C332   C     0.15001   0.15451   0.94347   0.00000  Uiso   1.00
C333   C     0.09575   0.18188   0.99808   0.00000  Uiso   1.00
C334   C     0.00299   0.15046   0.02403   0.00000  Uiso   1.00
C335   C     0.84874   0.11826   0.08445   0.00000  Uiso   1.00
C336   C     0.18479   0.07632   0.85629   0.00000  Uiso   1.00
C337   C     0.18288   0.12999   0.80546   0.00000  Uiso   1.00
C338   C     0.14898   0.12562   0.73856   0.00000  Uiso   1.00
C339   C     0.15345   0.18009   0.70030   0.00000  Uiso   1.00
C340   C     0.30528   0.07280   0.88258   0.00000  Uiso   1.00
C341   C     0.37427   0.02035   0.88053   0.00000  Uiso   1.00
C342   C     0.48177   0.02667   0.90719   0.00000  Uiso   1.00
C343   C     0.11296   0.09776   0.91578   0.00000  Uiso   1.00
C344   C     0.02028   0.06628   0.94165   0.00000  Uiso   1.00
C345   C     0.96588   0.09360   0.99628   0.00000  Uiso   1.00
H346   H     0.28185   0.22499   0.92885   0.00000  Uiso   1.00
H347   H     0.25314   0.28513   0.81644   0.00000  Uiso   1.00
H348   H     0.47838   0.17988   0.95839   0.00000  Uiso   1.00
H349   H     0.12444   0.22580   0.01950   0.00000  Uiso   1.00
H350   H     0.20500   0.32678   0.67959   0.00000  Uiso   1.00
H351   H     0.67993   0.10484   0.97891   0.00000  Uiso   1.00
H352   H     0.93359   0.20168   0.10778   0.00000  Uiso   1.00
H353   H     0.15594   0.03213   0.83473   0.00000  Uiso   1.00
H354   H     0.12032   0.08169   0.71714   0.00000  Uiso   1.00
H355   H     0.34557   0.97644   0.85909   0.00000  Uiso   1.00
H356   H     0.99163   0.02236   0.92020   0.00000  Uiso   1.00
H357   H     0.09721   0.16166   0.59899   0.00000  Uiso   1.00
H358   H     0.57214   0.93972   0.89832   0.00000  Uiso   1.00
H359   H     0.82580   0.03656   0.02719   0.00000  Uiso   1.00
O360   O     0.12998   0.28030   0.56363   0.00000  Uiso   1.00
O361   O     0.75306   0.98913   0.95635   0.00000  Uiso   1.00
O362   O     0.77387   0.11618   0.12542   0.00000  Uiso   1.00
N363   N     0.18450   0.28112   0.67676   0.00000  Uiso   1.00
N364   N     0.62854   0.07363   0.95660   0.00000  Uiso   1.00
N365   N     0.93079   0.16415   0.07710   0.00000  Uiso   1.00
N366   N     0.12650   0.19227   0.63339   0.00000  Uiso   1.00
N367   N     0.57054   0.98478   0.91323   0.00000  Uiso   1.00
N368   N     0.87278   0.07530   0.03373   0.00000  Uiso   1.00
