data_job_04153
_audit_creation_date              2018-12-19
_audit_creation_method            'Materials Studio'
_symmetry_space_group_name_H-M    'P1'
_symmetry_Int_Tables_number       1
_symmetry_cell_setting            triclinic
loop_
_symmetry_equiv_pos_as_xyz
  x,y,z
_cell_length_a                    21.5709
_cell_length_b                    21.5709
_cell_length_c                    11.9676
_cell_angle_alpha                 90.0000
_cell_angle_beta                  90.0000
_cell_angle_gamma                 90.0000
loop_
_atom_site_label
_atom_site_type_symbol
_atom_site_fract_x
_atom_site_fract_y
_atom_site_fract_z
_atom_site_U_iso_or_equiv
_atom_site_adp_type
_atom_site_occupancy
C1     C     0.15730   0.55067   0.91364   0.00000  Uiso   1.00
C2     C     0.17080   0.60222   0.82989   0.00000  Uiso   1.00
C3     C     0.13928   0.65814   0.82216   0.00000  Uiso   1.00
C4     C     0.15868   0.69917   0.73990   0.00000  Uiso   1.00
C5     C     0.17215   0.78139   0.62077   0.00000  Uiso   1.00
C6     C     0.14518   0.49252   0.84455   0.00000  Uiso   1.00
C7     C     0.09213   0.45621   0.84916   0.00000  Uiso   1.00
C8     C     0.08997   0.40489   0.77924   0.00000  Uiso   1.00
C9     C     0.06369   0.31677   0.68293   0.00000  Uiso   1.00
C10    C     0.21791   0.53907   0.97576   0.00000  Uiso   1.00
C11    C     0.22602   0.54188   0.09069   0.00000  Uiso   1.00
C12    C     0.28509   0.52973   0.13124   0.00000  Uiso   1.00
C13    C     0.37174   0.51389   0.23864   0.00000  Uiso   1.00
C14    C     0.24779   0.52410   0.78129   0.00000  Uiso   1.00
C15    C     0.21995   0.58778   0.75801   0.00000  Uiso   1.00
C16    C     0.23940   0.62874   0.67574   0.00000  Uiso   1.00
C17    C     0.20792   0.68471   0.66789   0.00000  Uiso   1.00
C18    C     0.19433   0.47808   0.77267   0.00000  Uiso   1.00
C19    C     0.19225   0.42680   0.70274   0.00000  Uiso   1.00
C20    C     0.13921   0.39042   0.70723   0.00000  Uiso   1.00
C21    C     0.26707   0.52463   0.90387   0.00000  Uiso   1.00
C22    C     0.32614   0.51248   0.94426   0.00000  Uiso   1.00
C23    C     0.33433   0.51527   0.05923   0.00000  Uiso   1.00
H24    H     0.11903   0.56191   0.96960   0.00000  Uiso   1.00
H25    H     0.10124   0.66929   0.87780   0.00000  Uiso   1.00
H26    H     0.05411   0.46739   0.90481   0.00000  Uiso   1.00
H27    H     0.18797   0.55305   0.14629   0.00000  Uiso   1.00
H28    H     0.10318   0.78197   0.74430   0.00000  Uiso   1.00
H29    H     0.00380   0.35623   0.80127   0.00000  Uiso   1.00
H30    H     0.28608   0.53686   0.31049   0.00000  Uiso   1.00
H31    H     0.28606   0.51286   0.72532   0.00000  Uiso   1.00
H32    H     0.27744   0.61755   0.62012   0.00000  Uiso   1.00
H33    H     0.23030   0.41564   0.64712   0.00000  Uiso   1.00
H34    H     0.36416   0.50131   0.88861   0.00000  Uiso   1.00
H35    H     0.24619   0.73998   0.53515   0.00000  Uiso   1.00
H36    H     0.14681   0.31423   0.59212   0.00000  Uiso   1.00
H37    H     0.42909   0.49486   0.10134   0.00000  Uiso   1.00
O38    O     0.16599   0.83072   0.57490   0.00000  Uiso   1.00
O39    O     0.03561   0.27216   0.64966   0.00000  Uiso   1.00
O40    O     0.40595   0.50915   0.31774   0.00000  Uiso   1.00
N41    N     0.13803   0.75773   0.70953   0.00000  Uiso   1.00
N42    N     0.04511   0.35969   0.76278   0.00000  Uiso   1.00
N43    N     0.30902   0.52854   0.23886   0.00000  Uiso   1.00
N44    N     0.21498   0.73513   0.59699   0.00000  Uiso   1.00
N45    N     0.12206   0.33709   0.65024   0.00000  Uiso   1.00
N46    N     0.38597   0.50595   0.12632   0.00000  Uiso   1.00
C47    C     0.84270   0.44933   0.41364   0.00000  Uiso   1.00
C48    C     0.82920   0.39778   0.32989   0.00000  Uiso   1.00
C49    C     0.86072   0.34186   0.32216   0.00000  Uiso   1.00
C50    C     0.84132   0.30083   0.23990   0.00000  Uiso   1.00
C51    C     0.82785   0.21861   0.12077   0.00000  Uiso   1.00
C52    C     0.85482   0.50748   0.34455   0.00000  Uiso   1.00
C53    C     0.90787   0.54379   0.34916   0.00000  Uiso   1.00
C54    C     0.91003   0.59511   0.27924   0.00000  Uiso   1.00
C55    C     0.93631   0.68323   0.18293   0.00000  Uiso   1.00
C56    C     0.78209   0.46093   0.47576   0.00000  Uiso   1.00
C57    C     0.77398   0.45812   0.59069   0.00000  Uiso   1.00
C58    C     0.71491   0.47027   0.63124   0.00000  Uiso   1.00
C59    C     0.62826   0.48611   0.73864   0.00000  Uiso   1.00
C60    C     0.75221   0.47590   0.28129   0.00000  Uiso   1.00
C61    C     0.78005   0.41222   0.25801   0.00000  Uiso   1.00
C62    C     0.76060   0.37126   0.17574   0.00000  Uiso   1.00
C63    C     0.79208   0.31529   0.16789   0.00000  Uiso   1.00
C64    C     0.80567   0.52192   0.27267   0.00000  Uiso   1.00
C65    C     0.80775   0.57320   0.20274   0.00000  Uiso   1.00
C66    C     0.86079   0.60958   0.20723   0.00000  Uiso   1.00
C67    C     0.73293   0.47537   0.40387   0.00000  Uiso   1.00
C68    C     0.67386   0.48752   0.44426   0.00000  Uiso   1.00
C69    C     0.66567   0.48473   0.55923   0.00000  Uiso   1.00
H70    H     0.88097   0.43809   0.46960   0.00000  Uiso   1.00
H71    H     0.89876   0.33071   0.37780   0.00000  Uiso   1.00
H72    H     0.94589   0.53261   0.40481   0.00000  Uiso   1.00
H73    H     0.81203   0.44695   0.64629   0.00000  Uiso   1.00
H74    H     0.89682   0.21803   0.24430   0.00000  Uiso   1.00
H75    H     0.99620   0.64377   0.30127   0.00000  Uiso   1.00
H76    H     0.71392   0.46314   0.81049   0.00000  Uiso   1.00
H77    H     0.71394   0.48714   0.22532   0.00000  Uiso   1.00
H78    H     0.72256   0.38245   0.12012   0.00000  Uiso   1.00
H79    H     0.76970   0.58436   0.14712   0.00000  Uiso   1.00
H80    H     0.63584   0.49869   0.38861   0.00000  Uiso   1.00
H81    H     0.75381   0.26002   0.03515   0.00000  Uiso   1.00
H82    H     0.85319   0.68577   0.09212   0.00000  Uiso   1.00
H83    H     0.57091   0.50514   0.60134   0.00000  Uiso   1.00
O84    O     0.83401   0.16928   0.07490   0.00000  Uiso   1.00
O85    O     0.96439   0.72784   0.14966   0.00000  Uiso   1.00
O86    O     0.59405   0.49085   0.81774   0.00000  Uiso   1.00
N87    N     0.86197   0.24227   0.20953   0.00000  Uiso   1.00
N88    N     0.95489   0.64031   0.26278   0.00000  Uiso   1.00
N89    N     0.69098   0.47146   0.73886   0.00000  Uiso   1.00
N90    N     0.78502   0.26487   0.09699   0.00000  Uiso   1.00
N91    N     0.87794   0.66291   0.15024   0.00000  Uiso   1.00
N92    N     0.61403   0.49405   0.62632   0.00000  Uiso   1.00
C93    C     0.94933   0.65730   0.66364   0.00000  Uiso   1.00
C94    C     0.89778   0.67080   0.57989   0.00000  Uiso   1.00
C95    C     0.84186   0.63928   0.57216   0.00000  Uiso   1.00
C96    C     0.80083   0.65868   0.48990   0.00000  Uiso   1.00
C97    C     0.71861   0.67215   0.37077   0.00000  Uiso   1.00
C98    C     0.00748   0.64518   0.59455   0.00000  Uiso   1.00
C99    C     0.04379   0.59213   0.59916   0.00000  Uiso   1.00
C100   C     0.09511   0.58997   0.52924   0.00000  Uiso   1.00
C101   C     0.18323   0.56369   0.43293   0.00000  Uiso   1.00
C102   C     0.96093   0.71791   0.72576   0.00000  Uiso   1.00
C103   C     0.95812   0.72602   0.84069   0.00000  Uiso   1.00
C104   C     0.97027   0.78509   0.88124   0.00000  Uiso   1.00
C105   C     0.98611   0.87174   0.98864   0.00000  Uiso   1.00
C106   C     0.97590   0.74779   0.53129   0.00000  Uiso   1.00
C107   C     0.91222   0.71995   0.50801   0.00000  Uiso   1.00
C108   C     0.87126   0.73940   0.42574   0.00000  Uiso   1.00
C109   C     0.81529   0.70792   0.41789   0.00000  Uiso   1.00
C110   C     0.02192   0.69433   0.52267   0.00000  Uiso   1.00
C111   C     0.07320   0.69225   0.45274   0.00000  Uiso   1.00
C112   C     0.10958   0.63921   0.45723   0.00000  Uiso   1.00
C113   C     0.97537   0.76707   0.65387   0.00000  Uiso   1.00
C114   C     0.98752   0.82614   0.69426   0.00000  Uiso   1.00
C115   C     0.98473   0.83433   0.80923   0.00000  Uiso   1.00
H116   H     0.93809   0.61903   0.71960   0.00000  Uiso   1.00
H117   H     0.83071   0.60124   0.62780   0.00000  Uiso   1.00
H118   H     0.03261   0.55411   0.65481   0.00000  Uiso   1.00
H119   H     0.94695   0.68797   0.89629   0.00000  Uiso   1.00
H120   H     0.71803   0.60318   0.49430   0.00000  Uiso   1.00
H121   H     0.14377   0.50380   0.55127   0.00000  Uiso   1.00
H122   H     0.96314   0.78608   0.06049   0.00000  Uiso   1.00
H123   H     0.98714   0.78606   0.47532   0.00000  Uiso   1.00
H124   H     0.88245   0.77744   0.37012   0.00000  Uiso   1.00
H125   H     0.08436   0.73030   0.39712   0.00000  Uiso   1.00
H126   H     0.99869   0.86416   0.63861   0.00000  Uiso   1.00
H127   H     0.76002   0.74619   0.28515   0.00000  Uiso   1.00
H128   H     0.18577   0.64681   0.34212   0.00000  Uiso   1.00
H129   H     0.00514   0.92909   0.85134   0.00000  Uiso   1.00
O130   O     0.66928   0.66599   0.32490   0.00000  Uiso   1.00
O131   O     0.22784   0.53561   0.39966   0.00000  Uiso   1.00
O132   O     0.99085   0.90595   0.06774   0.00000  Uiso   1.00
N133   N     0.74227   0.63803   0.45953   0.00000  Uiso   1.00
N134   N     0.14031   0.54511   0.51278   0.00000  Uiso   1.00
N135   N     0.97146   0.80902   0.98886   0.00000  Uiso   1.00
N136   N     0.76487   0.71498   0.34699   0.00000  Uiso   1.00
N137   N     0.16291   0.62206   0.40024   0.00000  Uiso   1.00
N138   N     0.99405   0.88597   0.87632   0.00000  Uiso   1.00
C139   C     0.05067   0.34270   0.16364   0.00000  Uiso   1.00
C140   C     0.10222   0.32920   0.07989   0.00000  Uiso   1.00
C141   C     0.15814   0.36072   0.07216   0.00000  Uiso   1.00
C142   C     0.19917   0.34132   0.98990   0.00000  Uiso   1.00
C143   C     0.28139   0.32785   0.87077   0.00000  Uiso   1.00
C144   C     0.99252   0.35482   0.09455   0.00000  Uiso   1.00
C145   C     0.95621   0.40787   0.09916   0.00000  Uiso   1.00
C146   C     0.90489   0.41003   0.02924   0.00000  Uiso   1.00
C147   C     0.81677   0.43631   0.93293   0.00000  Uiso   1.00
C148   C     0.03907   0.28209   0.22576   0.00000  Uiso   1.00
C149   C     0.04188   0.27398   0.34069   0.00000  Uiso   1.00
C150   C     0.02973   0.21491   0.38124   0.00000  Uiso   1.00
C151   C     0.01389   0.12826   0.48864   0.00000  Uiso   1.00
C152   C     0.02410   0.25221   0.03129   0.00000  Uiso   1.00
C153   C     0.08778   0.28005   0.00801   0.00000  Uiso   1.00
C154   C     0.12874   0.26060   0.92574   0.00000  Uiso   1.00
C155   C     0.18471   0.29208   0.91789   0.00000  Uiso   1.00
C156   C     0.97808   0.30567   0.02267   0.00000  Uiso   1.00
C157   C     0.92680   0.30775   0.95274   0.00000  Uiso   1.00
C158   C     0.89042   0.36079   0.95723   0.00000  Uiso   1.00
C159   C     0.02463   0.23293   0.15387   0.00000  Uiso   1.00
C160   C     0.01248   0.17386   0.19426   0.00000  Uiso   1.00
C161   C     0.01527   0.16567   0.30923   0.00000  Uiso   1.00
H162   H     0.06191   0.38097   0.21960   0.00000  Uiso   1.00
H163   H     0.16929   0.39876   0.12780   0.00000  Uiso   1.00
H164   H     0.96739   0.44589   0.15481   0.00000  Uiso   1.00
H165   H     0.05305   0.31203   0.39629   0.00000  Uiso   1.00
H166   H     0.28197   0.39682   0.99430   0.00000  Uiso   1.00
H167   H     0.85623   0.49620   0.05127   0.00000  Uiso   1.00
H168   H     0.03686   0.21392   0.56049   0.00000  Uiso   1.00
H169   H     0.01286   0.21394   0.97532   0.00000  Uiso   1.00
H170   H     0.11755   0.22256   0.87012   0.00000  Uiso   1.00
H171   H     0.91564   0.26970   0.89712   0.00000  Uiso   1.00
H172   H     0.00131   0.13584   0.13861   0.00000  Uiso   1.00
H173   H     0.23998   0.25381   0.78515   0.00000  Uiso   1.00
H174   H     0.81423   0.35319   0.84212   0.00000  Uiso   1.00
H175   H     0.99486   0.07091   0.35134   0.00000  Uiso   1.00
O176   O     0.33072   0.33401   0.82490   0.00000  Uiso   1.00
O177   O     0.77216   0.46439   0.89966   0.00000  Uiso   1.00
O178   O     0.00915   0.09405   0.56774   0.00000  Uiso   1.00
N179   N     0.25773   0.36197   0.95953   0.00000  Uiso   1.00
N180   N     0.85969   0.45489   0.01278   0.00000  Uiso   1.00
N181   N     0.02854   0.19098   0.48886   0.00000  Uiso   1.00
N182   N     0.23513   0.28502   0.84699   0.00000  Uiso   1.00
N183   N     0.83709   0.37794   0.90024   0.00000  Uiso   1.00
N184   N     0.00595   0.11403   0.37632   0.00000  Uiso   1.00
C185   C     0.34270   0.05067   0.83636   0.00000  Uiso   1.00
C186   C     0.32920   0.10222   0.92011   0.00000  Uiso   1.00
C187   C     0.36072   0.15814   0.92784   0.00000  Uiso   1.00
C188   C     0.34132   0.19917   0.01010   0.00000  Uiso   1.00
C189   C     0.32785   0.28139   0.12923   0.00000  Uiso   1.00
C190   C     0.35482   0.99252   0.90545   0.00000  Uiso   1.00
C191   C     0.40787   0.95621   0.90084   0.00000  Uiso   1.00
C192   C     0.41003   0.90489   0.97076   0.00000  Uiso   1.00
C193   C     0.43631   0.81677   0.06707   0.00000  Uiso   1.00
C194   C     0.28209   0.03907   0.77424   0.00000  Uiso   1.00
C195   C     0.27398   0.04188   0.65931   0.00000  Uiso   1.00
C196   C     0.21491   0.02973   0.61876   0.00000  Uiso   1.00
C197   C     0.12826   0.01389   0.51136   0.00000  Uiso   1.00
C198   C     0.25221   0.02410   0.96871   0.00000  Uiso   1.00
C199   C     0.28005   0.08778   0.99199   0.00000  Uiso   1.00
C200   C     0.26060   0.12874   0.07426   0.00000  Uiso   1.00
C201   C     0.29208   0.18471   0.08211   0.00000  Uiso   1.00
C202   C     0.30567   0.97808   0.97733   0.00000  Uiso   1.00
C203   C     0.30775   0.92680   0.04726   0.00000  Uiso   1.00
C204   C     0.36079   0.89042   0.04277   0.00000  Uiso   1.00
C205   C     0.23293   0.02463   0.84613   0.00000  Uiso   1.00
C206   C     0.17386   0.01248   0.80574   0.00000  Uiso   1.00
C207   C     0.16567   0.01527   0.69077   0.00000  Uiso   1.00
H208   H     0.38097   0.06191   0.78040   0.00000  Uiso   1.00
H209   H     0.39876   0.16929   0.87220   0.00000  Uiso   1.00
H210   H     0.44589   0.96739   0.84519   0.00000  Uiso   1.00
H211   H     0.31203   0.05305   0.60371   0.00000  Uiso   1.00
H212   H     0.39682   0.28197   0.00570   0.00000  Uiso   1.00
H213   H     0.49620   0.85623   0.94873   0.00000  Uiso   1.00
H214   H     0.21392   0.03686   0.43951   0.00000  Uiso   1.00
H215   H     0.21394   0.01286   0.02468   0.00000  Uiso   1.00
H216   H     0.22256   0.11755   0.12988   0.00000  Uiso   1.00
H217   H     0.26970   0.91564   0.10288   0.00000  Uiso   1.00
H218   H     0.13584   0.00131   0.86139   0.00000  Uiso   1.00
H219   H     0.25381   0.23998   0.21485   0.00000  Uiso   1.00
H220   H     0.35319   0.81423   0.15788   0.00000  Uiso   1.00
H221   H     0.07091   0.99486   0.64866   0.00000  Uiso   1.00
O222   O     0.33401   0.33072   0.17510   0.00000  Uiso   1.00
O223   O     0.46439   0.77216   0.10034   0.00000  Uiso   1.00
O224   O     0.09405   0.00915   0.43226   0.00000  Uiso   1.00
N225   N     0.36197   0.25773   0.04047   0.00000  Uiso   1.00
N226   N     0.45489   0.85969   0.98722   0.00000  Uiso   1.00
N227   N     0.19098   0.02854   0.51114   0.00000  Uiso   1.00
N228   N     0.28502   0.23513   0.15301   0.00000  Uiso   1.00
N229   N     0.37794   0.83709   0.09976   0.00000  Uiso   1.00
N230   N     0.11403   0.00595   0.62368   0.00000  Uiso   1.00
C231   C     0.65730   0.94933   0.33636   0.00000  Uiso   1.00
C232   C     0.67080   0.89778   0.42011   0.00000  Uiso   1.00
C233   C     0.63928   0.84186   0.42784   0.00000  Uiso   1.00
C234   C     0.65868   0.80083   0.51010   0.00000  Uiso   1.00
C235   C     0.67215   0.71861   0.62923   0.00000  Uiso   1.00
C236   C     0.64518   0.00748   0.40545   0.00000  Uiso   1.00
C237   C     0.59213   0.04379   0.40084   0.00000  Uiso   1.00
C238   C     0.58997   0.09511   0.47076   0.00000  Uiso   1.00
C239   C     0.56369   0.18323   0.56707   0.00000  Uiso   1.00
C240   C     0.71791   0.96093   0.27424   0.00000  Uiso   1.00
C241   C     0.72602   0.95812   0.15931   0.00000  Uiso   1.00
C242   C     0.78509   0.97027   0.11876   0.00000  Uiso   1.00
C243   C     0.87174   0.98611   0.01136   0.00000  Uiso   1.00
C244   C     0.74779   0.97590   0.46871   0.00000  Uiso   1.00
C245   C     0.71995   0.91222   0.49199   0.00000  Uiso   1.00
C246   C     0.73940   0.87126   0.57426   0.00000  Uiso   1.00
C247   C     0.70792   0.81529   0.58211   0.00000  Uiso   1.00
C248   C     0.69433   0.02192   0.47733   0.00000  Uiso   1.00
C249   C     0.69225   0.07320   0.54726   0.00000  Uiso   1.00
C250   C     0.63921   0.10958   0.54277   0.00000  Uiso   1.00
C251   C     0.76707   0.97537   0.34613   0.00000  Uiso   1.00
C252   C     0.82614   0.98752   0.30574   0.00000  Uiso   1.00
C253   C     0.83433   0.98473   0.19077   0.00000  Uiso   1.00
H254   H     0.61903   0.93809   0.28040   0.00000  Uiso   1.00
H255   H     0.60124   0.83071   0.37220   0.00000  Uiso   1.00
H256   H     0.55411   0.03261   0.34519   0.00000  Uiso   1.00
H257   H     0.68797   0.94695   0.10371   0.00000  Uiso   1.00
H258   H     0.60318   0.71803   0.50570   0.00000  Uiso   1.00
H259   H     0.50380   0.14377   0.44873   0.00000  Uiso   1.00
H260   H     0.78608   0.96314   0.93951   0.00000  Uiso   1.00
H261   H     0.78606   0.98714   0.52468   0.00000  Uiso   1.00
H262   H     0.77744   0.88245   0.62988   0.00000  Uiso   1.00
H263   H     0.73030   0.08436   0.60288   0.00000  Uiso   1.00
H264   H     0.86416   0.99869   0.36139   0.00000  Uiso   1.00
H265   H     0.74619   0.76002   0.71485   0.00000  Uiso   1.00
H266   H     0.64681   0.18577   0.65788   0.00000  Uiso   1.00
H267   H     0.92909   0.00514   0.14866   0.00000  Uiso   1.00
O268   O     0.66599   0.66928   0.67510   0.00000  Uiso   1.00
O269   O     0.53561   0.22784   0.60034   0.00000  Uiso   1.00
O270   O     0.90595   0.99085   0.93226   0.00000  Uiso   1.00
N271   N     0.63803   0.74227   0.54047   0.00000  Uiso   1.00
N272   N     0.54511   0.14031   0.48722   0.00000  Uiso   1.00
N273   N     0.80902   0.97146   0.01114   0.00000  Uiso   1.00
N274   N     0.71498   0.76487   0.65301   0.00000  Uiso   1.00
N275   N     0.62206   0.16291   0.59976   0.00000  Uiso   1.00
N276   N     0.88597   0.99405   0.12368   0.00000  Uiso   1.00
C277   C     0.55067   0.15730   0.08636   0.00000  Uiso   1.00
C278   C     0.60222   0.17080   0.17011   0.00000  Uiso   1.00
C279   C     0.65814   0.13928   0.17784   0.00000  Uiso   1.00
C280   C     0.69917   0.15868   0.26010   0.00000  Uiso   1.00
C281   C     0.78139   0.17215   0.37923   0.00000  Uiso   1.00
C282   C     0.49252   0.14518   0.15545   0.00000  Uiso   1.00
C283   C     0.45621   0.09213   0.15084   0.00000  Uiso   1.00
C284   C     0.40489   0.08997   0.22076   0.00000  Uiso   1.00
C285   C     0.31677   0.06369   0.31707   0.00000  Uiso   1.00
C286   C     0.53907   0.21791   0.02424   0.00000  Uiso   1.00
C287   C     0.54188   0.22602   0.90931   0.00000  Uiso   1.00
C288   C     0.52973   0.28509   0.86876   0.00000  Uiso   1.00
C289   C     0.51389   0.37174   0.76136   0.00000  Uiso   1.00
C290   C     0.52410   0.24779   0.21871   0.00000  Uiso   1.00
C291   C     0.58778   0.21995   0.24199   0.00000  Uiso   1.00
C292   C     0.62874   0.23940   0.32426   0.00000  Uiso   1.00
C293   C     0.68471   0.20792   0.33211   0.00000  Uiso   1.00
C294   C     0.47808   0.19433   0.22733   0.00000  Uiso   1.00
C295   C     0.42680   0.19225   0.29726   0.00000  Uiso   1.00
C296   C     0.39042   0.13921   0.29277   0.00000  Uiso   1.00
C297   C     0.52463   0.26707   0.09613   0.00000  Uiso   1.00
C298   C     0.51248   0.32614   0.05574   0.00000  Uiso   1.00
C299   C     0.51527   0.33433   0.94077   0.00000  Uiso   1.00
H300   H     0.56191   0.11903   0.03040   0.00000  Uiso   1.00
H301   H     0.66929   0.10124   0.12220   0.00000  Uiso   1.00
H302   H     0.46739   0.05411   0.09519   0.00000  Uiso   1.00
H303   H     0.55305   0.18797   0.85371   0.00000  Uiso   1.00
H304   H     0.78197   0.10318   0.25570   0.00000  Uiso   1.00
H305   H     0.35623   0.00380   0.19873   0.00000  Uiso   1.00
H306   H     0.53686   0.28608   0.68951   0.00000  Uiso   1.00
H307   H     0.51286   0.28606   0.27468   0.00000  Uiso   1.00
H308   H     0.61755   0.27744   0.37988   0.00000  Uiso   1.00
H309   H     0.41564   0.23030   0.35288   0.00000  Uiso   1.00
H310   H     0.50131   0.36416   0.11139   0.00000  Uiso   1.00
H311   H     0.73998   0.24619   0.46485   0.00000  Uiso   1.00
H312   H     0.31423   0.14681   0.40788   0.00000  Uiso   1.00
H313   H     0.49486   0.42909   0.89866   0.00000  Uiso   1.00
O314   O     0.83072   0.16599   0.42510   0.00000  Uiso   1.00
O315   O     0.27216   0.03561   0.35034   0.00000  Uiso   1.00
O316   O     0.50915   0.40595   0.68226   0.00000  Uiso   1.00
N317   N     0.75773   0.13803   0.29047   0.00000  Uiso   1.00
N318   N     0.35969   0.04511   0.23722   0.00000  Uiso   1.00
N319   N     0.52854   0.30902   0.76114   0.00000  Uiso   1.00
N320   N     0.73513   0.21498   0.40301   0.00000  Uiso   1.00
N321   N     0.33709   0.12206   0.34976   0.00000  Uiso   1.00
N322   N     0.50595   0.38597   0.87368   0.00000  Uiso   1.00
C323   C     0.44933   0.84270   0.58636   0.00000  Uiso   1.00
C324   C     0.39778   0.82920   0.67011   0.00000  Uiso   1.00
C325   C     0.34186   0.86072   0.67784   0.00000  Uiso   1.00
C326   C     0.30083   0.84132   0.76010   0.00000  Uiso   1.00
C327   C     0.21861   0.82785   0.87923   0.00000  Uiso   1.00
C328   C     0.50748   0.85482   0.65545   0.00000  Uiso   1.00
C329   C     0.54379   0.90787   0.65084   0.00000  Uiso   1.00
C330   C     0.59511   0.91003   0.72076   0.00000  Uiso   1.00
C331   C     0.68323   0.93631   0.81707   0.00000  Uiso   1.00
C332   C     0.46093   0.78209   0.52424   0.00000  Uiso   1.00
C333   C     0.45812   0.77398   0.40931   0.00000  Uiso   1.00
C334   C     0.47027   0.71491   0.36876   0.00000  Uiso   1.00
C335   C     0.48611   0.62826   0.26136   0.00000  Uiso   1.00
C336   C     0.47590   0.75221   0.71871   0.00000  Uiso   1.00
C337   C     0.41222   0.78005   0.74199   0.00000  Uiso   1.00
C338   C     0.37126   0.76060   0.82426   0.00000  Uiso   1.00
C339   C     0.31529   0.79208   0.83211   0.00000  Uiso   1.00
C340   C     0.52192   0.80567   0.72733   0.00000  Uiso   1.00
C341   C     0.57320   0.80775   0.79726   0.00000  Uiso   1.00
C342   C     0.60958   0.86079   0.79277   0.00000  Uiso   1.00
C343   C     0.47537   0.73293   0.59613   0.00000  Uiso   1.00
C344   C     0.48752   0.67386   0.55574   0.00000  Uiso   1.00
C345   C     0.48473   0.66567   0.44077   0.00000  Uiso   1.00
H346   H     0.43809   0.88097   0.53040   0.00000  Uiso   1.00
H347   H     0.33071   0.89876   0.62220   0.00000  Uiso   1.00
H348   H     0.53261   0.94589   0.59519   0.00000  Uiso   1.00
H349   H     0.44695   0.81203   0.35371   0.00000  Uiso   1.00
H350   H     0.21803   0.89682   0.75570   0.00000  Uiso   1.00
H351   H     0.64377   0.99620   0.69873   0.00000  Uiso   1.00
H352   H     0.46314   0.71392   0.18951   0.00000  Uiso   1.00
H353   H     0.48714   0.71394   0.77468   0.00000  Uiso   1.00
H354   H     0.38245   0.72256   0.87988   0.00000  Uiso   1.00
H355   H     0.58436   0.76970   0.85288   0.00000  Uiso   1.00
H356   H     0.49869   0.63584   0.61139   0.00000  Uiso   1.00
H357   H     0.26002   0.75381   0.96485   0.00000  Uiso   1.00
H358   H     0.68577   0.85319   0.90788   0.00000  Uiso   1.00
H359   H     0.50514   0.57091   0.39866   0.00000  Uiso   1.00
O360   O     0.16928   0.83401   0.92510   0.00000  Uiso   1.00
O361   O     0.72784   0.96439   0.85034   0.00000  Uiso   1.00
O362   O     0.49085   0.59405   0.18226   0.00000  Uiso   1.00
N363   N     0.24227   0.86197   0.79047   0.00000  Uiso   1.00
N364   N     0.64031   0.95489   0.73722   0.00000  Uiso   1.00
N365   N     0.47146   0.69098   0.26114   0.00000  Uiso   1.00
N366   N     0.26487   0.78502   0.90301   0.00000  Uiso   1.00
N367   N     0.66291   0.87794   0.84976   0.00000  Uiso   1.00
N368   N     0.49405   0.61403   0.37368   0.00000  Uiso   1.00
