data_job_06049
_audit_creation_date              2018-12-19
_audit_creation_method            'Materials Studio'
_symmetry_space_group_name_H-M    'P1'
_symmetry_Int_Tables_number       1
_symmetry_cell_setting            triclinic
loop_
_symmetry_equiv_pos_as_xyz
  x,y,z
_cell_length_a                    8.8912
_cell_length_b                    22.3856
_cell_length_c                    22.6818
_cell_angle_alpha                 118.2560
_cell_angle_beta                  81.3182
_cell_angle_gamma                 84.8867
loop_
_atom_site_label
_atom_site_type_symbol
_atom_site_fract_x
_atom_site_fract_y
_atom_site_fract_z
_atom_site_U_iso_or_equiv
_atom_site_adp_type
_atom_site_occupancy
C1     C     0.90961   0.77676   0.11772   0.00000  Uiso   1.00
C2     C     0.02401   0.82125   0.11107   0.00000  Uiso   1.00
C3     C     0.99299   0.89254   0.14055   0.00000  Uiso   1.00
C4     C     0.11314   0.92364   0.12837   0.00000  Uiso   1.00
C5     C     0.26858   0.99863   0.12415   0.00000  Uiso   1.00
C6     C     0.90348   0.72428   0.04463   0.00000  Uiso   1.00
C7     C     0.77111   0.71405   0.01826   0.00000  Uiso   1.00
C8     C     0.78981   0.66352   0.95016   0.00000  Uiso   1.00
C9     C     0.75810   0.58794   0.84280   0.00000  Uiso   1.00
C10    C     0.98536   0.73571   0.14669   0.00000  Uiso   1.00
C11    C     0.92182   0.73506   0.20612   0.00000  Uiso   1.00
C12    C     0.00944   0.69413   0.22393   0.00000  Uiso   1.00
C13    C     0.10486   0.63629   0.27504   0.00000  Uiso   1.00
C14    C     0.17817   0.70521   0.04368   0.00000  Uiso   1.00
C15    C     0.16988   0.78238   0.07085   0.00000  Uiso   1.00
C16    C     0.29012   0.81338   0.05863   0.00000  Uiso   1.00
C17    C     0.25928   0.88471   0.08809   0.00000  Uiso   1.00
C18    C     0.04935   0.68542   0.00442   0.00000  Uiso   1.00
C19    C     0.06825   0.63489   0.93634   0.00000  Uiso   1.00
C20    C     0.93594   0.62459   0.90987   0.00000  Uiso   1.00
C21    C     0.13124   0.69684   0.10648   0.00000  Uiso   1.00
C22    C     0.21896   0.65590   0.12420   0.00000  Uiso   1.00
C23    C     0.15557   0.65520   0.18364   0.00000  Uiso   1.00
H24    H     0.79603   0.80701   0.14902   0.00000  Uiso   1.00
H25    H     0.88008   0.92260   0.17166   0.00000  Uiso   1.00
H26    H     0.65824   0.74413   0.04939   0.00000  Uiso   1.00
H27    H     0.80893   0.76514   0.23722   0.00000  Uiso   1.00
H28    H     0.03757   0.03361   0.17901   0.00000  Uiso   1.00
H29    H     0.56981   0.65728   0.92120   0.00000  Uiso   1.00
H30    H     0.88756   0.70158   0.31728   0.00000  Uiso   1.00
H31    H     0.29174   0.67495   0.01236   0.00000  Uiso   1.00
H32    H     0.40300   0.78329   0.02751   0.00000  Uiso   1.00
H33    H     0.18115   0.60482   0.90524   0.00000  Uiso   1.00
H34    H     0.33184   0.62583   0.09307   0.00000  Uiso   1.00
H35    H     0.46199   0.92054   0.06201   0.00000  Uiso   1.00
H36    H     0.99421   0.54421   0.80420   0.00000  Uiso   1.00
H37    H     0.31198   0.58852   0.20028   0.00000  Uiso   1.00
O38    O     0.31401   0.05073   0.13292   0.00000  Uiso   1.00
O39    O     0.70031   0.55699   0.79469   0.00000  Uiso   1.00
O40    O     0.11720   0.61512   0.31434   0.00000  Uiso   1.00
N41    N     0.12220   0.99213   0.14941   0.00000  Uiso   1.00
N42    N     0.68487   0.64029   0.90837   0.00000  Uiso   1.00
N43    N     0.98193   0.68170   0.27866   0.00000  Uiso   1.00
N44    N     0.35058   0.93129   0.08645   0.00000  Uiso   1.00
N45    N     0.91324   0.57945   0.84541   0.00000  Uiso   1.00
N46    N     0.21030   0.62086   0.21570   0.00000  Uiso   1.00
C47    C     0.02406   0.88059   0.66002   0.00000  Uiso   1.00
C48    C     0.12901   0.88820   0.70955   0.00000  Uiso   1.00
C49    C     0.12271   0.85816   0.75095   0.00000  Uiso   1.00
C50    C     0.22877   0.87142   0.79271   0.00000  Uiso   1.00
C51    C     0.37519   0.87691   0.86960   0.00000  Uiso   1.00
C52    C     0.94856   0.95369   0.68100   0.00000  Uiso   1.00
C53    C     0.79054   0.97870   0.69838   0.00000  Uiso   1.00
C54    C     0.74471   0.04709   0.71610   0.00000  Uiso   1.00
C55    C     0.61098   0.15424   0.74862   0.00000  Uiso   1.00
C56    C     0.13136   0.85262   0.58988   0.00000  Uiso   1.00
C57    C     0.12701   0.79266   0.53063   0.00000  Uiso   1.00
C58    C     0.23505   0.77595   0.47162   0.00000  Uiso   1.00
C59    C     0.38514   0.72617   0.36266   0.00000  Uiso   1.00
C60    C     0.22363   0.95755   0.66056   0.00000  Uiso   1.00
C61    C     0.23740   0.93001   0.70985   0.00000  Uiso   1.00
C62    C     0.34351   0.94331   0.75155   0.00000  Uiso   1.00
C63    C     0.33737   0.91329   0.79300   0.00000  Uiso   1.00
C64    C     0.05695   0.99550   0.68130   0.00000  Uiso   1.00
C65    C     0.01134   0.06386   0.69899   0.00000  Uiso   1.00
C66    C     0.85330   0.08897   0.71640   0.00000  Uiso   1.00
C67    C     0.23976   0.89442   0.59017   0.00000  Uiso   1.00
C68    C     0.34782   0.87781   0.53124   0.00000  Uiso   1.00
C69    C     0.34364   0.81783   0.47192   0.00000  Uiso   1.00
H70    H     0.93966   0.84805   0.65979   0.00000  Uiso   1.00
H71    H     0.03879   0.82582   0.75071   0.00000  Uiso   1.00
H72    H     0.70669   0.94634   0.69814   0.00000  Uiso   1.00
H73    H     0.04311   0.76032   0.53042   0.00000  Uiso   1.00
H74    H     0.19647   0.81963   0.85166   0.00000  Uiso   1.00
H75    H     0.49620   0.07375   0.74080   0.00000  Uiso   1.00
H76    H     0.20561   0.68149   0.38713   0.00000  Uiso   1.00
H77    H     0.30802   0.99010   0.66079   0.00000  Uiso   1.00
H78    H     0.42738   0.97567   0.75177   0.00000  Uiso   1.00
H79    H     0.09526   0.09619   0.69921   0.00000  Uiso   1.00
H80    H     0.43168   0.91017   0.53149   0.00000  Uiso   1.00
H81    H     0.51185   0.94125   0.85253   0.00000  Uiso   1.00
H82    H     0.81158   0.19537   0.74166   0.00000  Uiso   1.00
H83    H     0.52099   0.80311   0.38799   0.00000  Uiso   1.00
O84    O     0.42599   0.86840   0.91194   0.00000  Uiso   1.00
O85    O     0.50727   0.20179   0.76648   0.00000  Uiso   1.00
O86    O     0.43800   0.68715   0.30248   0.00000  Uiso   1.00
N87    N     0.25434   0.85022   0.83937   0.00000  Uiso   1.00
N88    N     0.59962   0.08781   0.73573   0.00000  Uiso   1.00
N89    N     0.26283   0.72109   0.40507   0.00000  Uiso   1.00
N90    N     0.42404   0.91567   0.83983   0.00000  Uiso   1.00
N91    N     0.76933   0.15326   0.73620   0.00000  Uiso   1.00
N92    N     0.43254   0.78654   0.40554   0.00000  Uiso   1.00
C93    C     0.68621   0.33893   0.22216   0.00000  Uiso   1.00
C94    C     0.84003   0.29053   0.17938   0.00000  Uiso   1.00
C95    C     0.87690   0.24928   0.10850   0.00000  Uiso   1.00
C96    C     0.02372   0.20863   0.07903   0.00000  Uiso   1.00
C97    C     0.24641   0.13336   0.00651   0.00000  Uiso   1.00
C98    C     0.62685   0.31690   0.27421   0.00000  Uiso   1.00
C99    C     0.48446   0.29782   0.28308   0.00000  Uiso   1.00
C100   C     0.45182   0.27937   0.33345   0.00000  Uiso   1.00
C101   C     0.34349   0.24508   0.40820   0.00000  Uiso   1.00
C102   C     0.72552   0.41016   0.26339   0.00000  Uiso   1.00
C103   C     0.66606   0.46950   0.26317   0.00000  Uiso   1.00
C104   C     0.71646   0.52958   0.30444   0.00000  Uiso   1.00
C105   C     0.76132   0.64010   0.36238   0.00000  Uiso   1.00
C106   C     0.88141   0.34011   0.29585   0.00000  Uiso   1.00
C107   C     0.94605   0.29117   0.21940   0.00000  Uiso   1.00
C108   C     0.09286   0.25058   0.19003   0.00000  Uiso   1.00
C109   C     0.12994   0.20927   0.11912   0.00000  Uiso   1.00
C110   C     0.73286   0.31754   0.31424   0.00000  Uiso   1.00
C111   C     0.70042   0.29912   0.36461   0.00000  Uiso   1.00
C112   C     0.55803   0.28001   0.37355   0.00000  Uiso   1.00
C113   C     0.83154   0.41080   0.30341   0.00000  Uiso   1.00
C114   C     0.88203   0.47080   0.34469   0.00000  Uiso   1.00
C115   C     0.82267   0.53023   0.34454   0.00000  Uiso   1.00
H116   H     0.60367   0.33843   0.19100   0.00000  Uiso   1.00
H117   H     0.79481   0.24879   0.07755   0.00000  Uiso   1.00
H118   H     0.40244   0.29733   0.25210   0.00000  Uiso   1.00
H119   H     0.58401   0.46899   0.23219   0.00000  Uiso   1.00
H120   H     0.05347   0.14967   0.96941   0.00000  Uiso   1.00
H121   H     0.22610   0.25205   0.33749   0.00000  Uiso   1.00
H122   H     0.60899   0.61402   0.29550   0.00000  Uiso   1.00
H123   H     0.96395   0.34061   0.32701   0.00000  Uiso   1.00
H124   H     0.17488   0.25109   0.22102   0.00000  Uiso   1.00
H125   H     0.78249   0.29963   0.39558   0.00000  Uiso   1.00
H126   H     0.96407   0.47128   0.37566   0.00000  Uiso   1.00
H127   H     0.36194   0.15153   0.08586   0.00000  Uiso   1.00
H128   H     0.53456   0.25391   0.45394   0.00000  Uiso   1.00
H129   H     0.91746   0.61588   0.41195   0.00000  Uiso   1.00
O130   O     0.33994   0.09165   0.95546   0.00000  Uiso   1.00
O131   O     0.25445   0.22598   0.43837   0.00000  Uiso   1.00
O132   O     0.75680   0.70088   0.38328   0.00000  Uiso   1.00
N133   N     0.09714   0.16240   0.01136   0.00000  Uiso   1.00
N134   N     0.32360   0.25811   0.35549   0.00000  Uiso   1.00
N135   N     0.68154   0.59653   0.31625   0.00000  Uiso   1.00
N136   N     0.26312   0.16341   0.07402   0.00000  Uiso   1.00
N137   N     0.48958   0.25911   0.41815   0.00000  Uiso   1.00
N138   N     0.84752   0.59753   0.37891   0.00000  Uiso   1.00
C139   C     0.09039   0.22324   0.88228   0.00000  Uiso   1.00
C140   C     0.97599   0.17875   0.88893   0.00000  Uiso   1.00
C141   C     0.00701   0.10746   0.85945   0.00000  Uiso   1.00
C142   C     0.88686   0.07636   0.87163   0.00000  Uiso   1.00
C143   C     0.73142   0.00137   0.87585   0.00000  Uiso   1.00
C144   C     0.09652   0.27572   0.95537   0.00000  Uiso   1.00
C145   C     0.22889   0.28595   0.98174   0.00000  Uiso   1.00
C146   C     0.21019   0.33648   0.04984   0.00000  Uiso   1.00
C147   C     0.24190   0.41206   0.15720   0.00000  Uiso   1.00
C148   C     0.01464   0.26429   0.85331   0.00000  Uiso   1.00
C149   C     0.07818   0.26494   0.79388   0.00000  Uiso   1.00
C150   C     0.99056   0.30587   0.77607   0.00000  Uiso   1.00
C151   C     0.89514   0.36371   0.72496   0.00000  Uiso   1.00
C152   C     0.82183   0.29479   0.95632   0.00000  Uiso   1.00
C153   C     0.83012   0.21762   0.92915   0.00000  Uiso   1.00
C154   C     0.70988   0.18662   0.94137   0.00000  Uiso   1.00
C155   C     0.74072   0.11529   0.91191   0.00000  Uiso   1.00
C156   C     0.95065   0.31458   0.99558   0.00000  Uiso   1.00
C157   C     0.93175   0.36511   0.06366   0.00000  Uiso   1.00
C158   C     0.06406   0.37542   0.09013   0.00000  Uiso   1.00
C159   C     0.86876   0.30316   0.89352   0.00000  Uiso   1.00
C160   C     0.78104   0.34410   0.87580   0.00000  Uiso   1.00
C161   C     0.84443   0.34480   0.81636   0.00000  Uiso   1.00
H162   H     0.20397   0.19299   0.85098   0.00000  Uiso   1.00
H163   H     0.11992   0.07740   0.82834   0.00000  Uiso   1.00
H164   H     0.34176   0.25587   0.95061   0.00000  Uiso   1.00
H165   H     0.19107   0.23486   0.76278   0.00000  Uiso   1.00
H166   H     0.96243   0.96639   0.82099   0.00000  Uiso   1.00
H167   H     0.43019   0.34272   0.07879   0.00000  Uiso   1.00
H168   H     0.11244   0.29842   0.68272   0.00000  Uiso   1.00
H169   H     0.70826   0.32505   0.98764   0.00000  Uiso   1.00
H170   H     0.59700   0.21671   0.97249   0.00000  Uiso   1.00
H171   H     0.81885   0.39518   0.09476   0.00000  Uiso   1.00
H172   H     0.66816   0.37417   0.90693   0.00000  Uiso   1.00
H173   H     0.53801   0.07946   0.93799   0.00000  Uiso   1.00
H174   H     0.00579   0.45579   0.19580   0.00000  Uiso   1.00
H175   H     0.68802   0.41148   0.79972   0.00000  Uiso   1.00
O176   O     0.68599   0.94927   0.86708   0.00000  Uiso   1.00
O177   O     0.29969   0.44301   0.20531   0.00000  Uiso   1.00
O178   O     0.88280   0.38488   0.68566   0.00000  Uiso   1.00
N179   N     0.87780   0.00787   0.85059   0.00000  Uiso   1.00
N180   N     0.31513   0.35971   0.09163   0.00000  Uiso   1.00
N181   N     0.01807   0.31830   0.72134   0.00000  Uiso   1.00
N182   N     0.64942   0.06871   0.91355   0.00000  Uiso   1.00
N183   N     0.08676   0.42055   0.15459   0.00000  Uiso   1.00
N184   N     0.78970   0.37914   0.78430   0.00000  Uiso   1.00
C185   C     0.97594   0.11941   0.33998   0.00000  Uiso   1.00
C186   C     0.87099   0.11180   0.29045   0.00000  Uiso   1.00
C187   C     0.87729   0.14184   0.24905   0.00000  Uiso   1.00
C188   C     0.77123   0.12858   0.20729   0.00000  Uiso   1.00
C189   C     0.62481   0.12309   0.13040   0.00000  Uiso   1.00
C190   C     0.05144   0.04631   0.31900   0.00000  Uiso   1.00
C191   C     0.20946   0.02130   0.30162   0.00000  Uiso   1.00
C192   C     0.25529   0.95291   0.28390   0.00000  Uiso   1.00
C193   C     0.38902   0.84576   0.25138   0.00000  Uiso   1.00
C194   C     0.86864   0.14738   0.41012   0.00000  Uiso   1.00
C195   C     0.87299   0.20734   0.46937   0.00000  Uiso   1.00
C196   C     0.76495   0.22405   0.52838   0.00000  Uiso   1.00
C197   C     0.61486   0.27383   0.63734   0.00000  Uiso   1.00
C198   C     0.77637   0.04245   0.33944   0.00000  Uiso   1.00
C199   C     0.76260   0.06999   0.29015   0.00000  Uiso   1.00
C200   C     0.65649   0.05669   0.24845   0.00000  Uiso   1.00
C201   C     0.66263   0.08671   0.20700   0.00000  Uiso   1.00
C202   C     0.94305   0.00450   0.31870   0.00000  Uiso   1.00
C203   C     0.98866   0.93614   0.30101   0.00000  Uiso   1.00
C204   C     0.14670   0.91103   0.28360   0.00000  Uiso   1.00
C205   C     0.76024   0.10558   0.40983   0.00000  Uiso   1.00
C206   C     0.65218   0.12219   0.46876   0.00000  Uiso   1.00
C207   C     0.65636   0.18217   0.52808   0.00000  Uiso   1.00
H208   H     0.06034   0.15195   0.34021   0.00000  Uiso   1.00
H209   H     0.96121   0.17418   0.24929   0.00000  Uiso   1.00
H210   H     0.29331   0.05366   0.30186   0.00000  Uiso   1.00
H211   H     0.95689   0.23968   0.46958   0.00000  Uiso   1.00
H212   H     0.80353   0.18037   0.14834   0.00000  Uiso   1.00
H213   H     0.50380   0.92625   0.25920   0.00000  Uiso   1.00
H214   H     0.79439   0.31851   0.61287   0.00000  Uiso   1.00
H215   H     0.69198   0.00990   0.33921   0.00000  Uiso   1.00
H216   H     0.57262   0.02433   0.24823   0.00000  Uiso   1.00
H217   H     0.90474   0.90381   0.30079   0.00000  Uiso   1.00
H218   H     0.56832   0.08983   0.46851   0.00000  Uiso   1.00
H219   H     0.48815   0.05875   0.14747   0.00000  Uiso   1.00
H220   H     0.18842   0.80463   0.25834   0.00000  Uiso   1.00
H221   H     0.47901   0.19689   0.61201   0.00000  Uiso   1.00
O222   O     0.57401   0.13160   0.08806   0.00000  Uiso   1.00
O223   O     0.49273   0.79821   0.23352   0.00000  Uiso   1.00
O224   O     0.56200   0.31285   0.69752   0.00000  Uiso   1.00
N225   N     0.74566   0.14978   0.16063   0.00000  Uiso   1.00
N226   N     0.40038   0.91219   0.26427   0.00000  Uiso   1.00
N227   N     0.73717   0.27891   0.59492   0.00000  Uiso   1.00
N228   N     0.57596   0.08433   0.16017   0.00000  Uiso   1.00
N229   N     0.23067   0.84674   0.26380   0.00000  Uiso   1.00
N230   N     0.56746   0.21346   0.59446   0.00000  Uiso   1.00
C231   C     0.31379   0.66107   0.77784   0.00000  Uiso   1.00
C232   C     0.15997   0.70947   0.82062   0.00000  Uiso   1.00
C233   C     0.12310   0.75072   0.89150   0.00000  Uiso   1.00
C234   C     0.97628   0.79137   0.92097   0.00000  Uiso   1.00
C235   C     0.75359   0.86664   0.99349   0.00000  Uiso   1.00
C236   C     0.37315   0.68310   0.72579   0.00000  Uiso   1.00
C237   C     0.51554   0.70218   0.71692   0.00000  Uiso   1.00
C238   C     0.54818   0.72063   0.66655   0.00000  Uiso   1.00
C239   C     0.65651   0.75492   0.59180   0.00000  Uiso   1.00
C240   C     0.27448   0.58984   0.73661   0.00000  Uiso   1.00
C241   C     0.33394   0.53050   0.73683   0.00000  Uiso   1.00
C242   C     0.28354   0.47042   0.69556   0.00000  Uiso   1.00
C243   C     0.23868   0.35990   0.63762   0.00000  Uiso   1.00
C244   C     0.11859   0.65989   0.70415   0.00000  Uiso   1.00
C245   C     0.05395   0.70883   0.78060   0.00000  Uiso   1.00
C246   C     0.90714   0.74942   0.80997   0.00000  Uiso   1.00
C247   C     0.87006   0.79073   0.88088   0.00000  Uiso   1.00
C248   C     0.26714   0.68246   0.68576   0.00000  Uiso   1.00
C249   C     0.29958   0.70088   0.63539   0.00000  Uiso   1.00
C250   C     0.44197   0.71999   0.62645   0.00000  Uiso   1.00
C251   C     0.16846   0.58920   0.69659   0.00000  Uiso   1.00
C252   C     0.11797   0.52920   0.65531   0.00000  Uiso   1.00
C253   C     0.17733   0.46977   0.65546   0.00000  Uiso   1.00
H254   H     0.39634   0.66157   0.80900   0.00000  Uiso   1.00
H255   H     0.20519   0.75121   0.92245   0.00000  Uiso   1.00
H256   H     0.59756   0.70267   0.74790   0.00000  Uiso   1.00
H257   H     0.41599   0.53101   0.76781   0.00000  Uiso   1.00
H258   H     0.94653   0.85033   0.03059   0.00000  Uiso   1.00
H259   H     0.77390   0.74795   0.66251   0.00000  Uiso   1.00
H260   H     0.39101   0.38598   0.70450   0.00000  Uiso   1.00
H261   H     0.03605   0.65939   0.67299   0.00000  Uiso   1.00
H262   H     0.82512   0.74891   0.77898   0.00000  Uiso   1.00
H263   H     0.21751   0.70037   0.60442   0.00000  Uiso   1.00
H264   H     0.03593   0.52872   0.62434   0.00000  Uiso   1.00
H265   H     0.63806   0.84847   0.91414   0.00000  Uiso   1.00
H266   H     0.46544   0.74609   0.54606   0.00000  Uiso   1.00
H267   H     0.08254   0.38412   0.58805   0.00000  Uiso   1.00
O268   O     0.66006   0.90835   0.04454   0.00000  Uiso   1.00
O269   O     0.74555   0.77402   0.56163   0.00000  Uiso   1.00
O270   O     0.24320   0.29912   0.61672   0.00000  Uiso   1.00
N271   N     0.90286   0.83760   0.98864   0.00000  Uiso   1.00
N272   N     0.67640   0.74189   0.64451   0.00000  Uiso   1.00
N273   N     0.31846   0.40347   0.68375   0.00000  Uiso   1.00
N274   N     0.73688   0.83659   0.92598   0.00000  Uiso   1.00
N275   N     0.51042   0.74089   0.58185   0.00000  Uiso   1.00
N276   N     0.15248   0.40247   0.62109   0.00000  Uiso   1.00
