data_job_00632
_audit_creation_date              2018-12-19
_audit_creation_method            'Materials Studio'
_symmetry_space_group_name_H-M    'P1'
_symmetry_Int_Tables_number       1
_symmetry_cell_setting            triclinic
loop_
_symmetry_equiv_pos_as_xyz
  x,y,z
_cell_length_a                    24.3137
_cell_length_b                    8.4380
_cell_length_c                    12.1180
_cell_angle_alpha                 90.0000
_cell_angle_beta                  113.1005
_cell_angle_gamma                 90.0000
loop_
_atom_site_label
_atom_site_type_symbol
_atom_site_fract_x
_atom_site_fract_y
_atom_site_fract_z
_atom_site_U_iso_or_equiv
_atom_site_adp_type
_atom_site_occupancy
C1     C     0.56994   0.83982   0.85051   0.00000  Uiso   1.00
C2     C     0.52786   0.70120   0.83945   0.00000  Uiso   1.00
C3     C     0.47292   0.71050   0.84905   0.00000  Uiso   1.00
C4     C     0.44116   0.57021   0.83622   0.00000  Uiso   1.00
C5     C     0.37241   0.37692   0.82240   0.00000  Uiso   1.00
C6     C     0.62954   0.79506   0.95002   0.00000  Uiso   1.00
C7     C     0.66010   0.88329   0.05258   0.00000  Uiso   1.00
C8     C     0.71394   0.82201   0.13282   0.00000  Uiso   1.00
C9     C     0.80308   0.77449   0.29063   0.00000  Uiso   1.00
C10    C     0.58073   0.84111   0.73476   0.00000  Uiso   1.00
C11    C     0.57027   0.96808   0.65632   0.00000  Uiso   1.00
C12    C     0.58303   0.94558   0.55533   0.00000  Uiso   1.00
C13    C     0.59639   0.96957   0.37890   0.00000  Uiso   1.00
C14    C     0.61124   0.57413   0.81065   0.00000  Uiso   1.00
C15    C     0.55029   0.55690   0.81781   0.00000  Uiso   1.00
C16    C     0.51860   0.41655   0.80495   0.00000  Uiso   1.00
C17    C     0.46362   0.42564   0.81452   0.00000  Uiso   1.00
C18    C     0.65197   0.65075   0.92838   0.00000  Uiso   1.00
C19    C     0.70578   0.58934   0.00849   0.00000  Uiso   1.00
C20    C     0.73641   0.67744   0.11114   0.00000  Uiso   1.00
C21    C     0.60316   0.69680   0.71310   0.00000  Uiso   1.00
C22    C     0.61595   0.67412   0.61223   0.00000  Uiso   1.00
C23    C     0.60550   0.80101   0.53365   0.00000  Uiso   1.00
H24    H     0.55249   0.95217   0.86737   0.00000  Uiso   1.00
H25    H     0.45558   0.82221   0.86581   0.00000  Uiso   1.00
H26    H     0.64273   0.99496   0.06930   0.00000  Uiso   1.00
H27    H     0.55291   0.07973   0.67310   0.00000  Uiso   1.00
H28    H     0.35804   0.61446   0.85458   0.00000  Uiso   1.00
H29    H     0.75267   0.97876   0.28363   0.00000  Uiso   1.00
H30    H     0.56327   0.15752   0.44817   0.00000  Uiso   1.00
H31    H     0.62870   0.46178   0.79380   0.00000  Uiso   1.00
H32    H     0.53597   0.30489   0.78820   0.00000  Uiso   1.00
H33    H     0.72313   0.47766   0.99170   0.00000  Uiso   1.00
H34    H     0.63330   0.56243   0.59550   0.00000  Uiso   1.00
H35    H     0.42329   0.19459   0.79160   0.00000  Uiso   1.00
H36    H     0.81793   0.55890   0.22065   0.00000  Uiso   1.00
H37    H     0.62852   0.73765   0.38519   0.00000  Uiso   1.00
O38    O     0.32830   0.31017   0.82077   0.00000  Uiso   1.00
O39    O     0.84605   0.78814   0.38366   0.00000  Uiso   1.00
O40    O     0.59755   0.02265   0.28756   0.00000  Uiso   1.00
N41    N     0.38612   0.53718   0.84050   0.00000  Uiso   1.00
N42    N     0.75507   0.87777   0.24165   0.00000  Uiso   1.00
N43    N     0.57801   0.04491   0.46058   0.00000  Uiso   1.00
N44    N     0.42123   0.31125   0.80661   0.00000  Uiso   1.00
N45    N     0.79018   0.65184   0.20776   0.00000  Uiso   1.00
N46    N     0.61312   0.81898   0.42669   0.00000  Uiso   1.00
C47    C     0.06994   0.33982   0.85051   0.00000  Uiso   1.00
C48    C     0.02786   0.20120   0.83945   0.00000  Uiso   1.00
C49    C     0.97292   0.21050   0.84905   0.00000  Uiso   1.00
C50    C     0.94116   0.07021   0.83622   0.00000  Uiso   1.00
C51    C     0.87241   0.87692   0.82240   0.00000  Uiso   1.00
C52    C     0.12954   0.29506   0.95002   0.00000  Uiso   1.00
C53    C     0.16010   0.38329   0.05258   0.00000  Uiso   1.00
C54    C     0.21394   0.32201   0.13282   0.00000  Uiso   1.00
C55    C     0.30308   0.27449   0.29063   0.00000  Uiso   1.00
C56    C     0.08073   0.34111   0.73476   0.00000  Uiso   1.00
C57    C     0.07027   0.46808   0.65632   0.00000  Uiso   1.00
C58    C     0.08303   0.44558   0.55533   0.00000  Uiso   1.00
C59    C     0.09639   0.46957   0.37890   0.00000  Uiso   1.00
C60    C     0.11124   0.07413   0.81065   0.00000  Uiso   1.00
C61    C     0.05029   0.05690   0.81781   0.00000  Uiso   1.00
C62    C     0.01860   0.91655   0.80495   0.00000  Uiso   1.00
C63    C     0.96362   0.92564   0.81452   0.00000  Uiso   1.00
C64    C     0.15197   0.15075   0.92838   0.00000  Uiso   1.00
C65    C     0.20578   0.08934   0.00849   0.00000  Uiso   1.00
C66    C     0.23641   0.17744   0.11114   0.00000  Uiso   1.00
C67    C     0.10316   0.19680   0.71310   0.00000  Uiso   1.00
C68    C     0.11595   0.17412   0.61223   0.00000  Uiso   1.00
C69    C     0.10550   0.30101   0.53365   0.00000  Uiso   1.00
H70    H     0.05249   0.45217   0.86737   0.00000  Uiso   1.00
H71    H     0.95558   0.32221   0.86581   0.00000  Uiso   1.00
H72    H     0.14273   0.49496   0.06930   0.00000  Uiso   1.00
H73    H     0.05291   0.57973   0.67310   0.00000  Uiso   1.00
H74    H     0.85804   0.11446   0.85458   0.00000  Uiso   1.00
H75    H     0.25267   0.47876   0.28363   0.00000  Uiso   1.00
H76    H     0.06327   0.65752   0.44817   0.00000  Uiso   1.00
H77    H     0.12870   0.96178   0.79380   0.00000  Uiso   1.00
H78    H     0.03597   0.80489   0.78820   0.00000  Uiso   1.00
H79    H     0.22313   0.97766   0.99170   0.00000  Uiso   1.00
H80    H     0.13330   0.06243   0.59550   0.00000  Uiso   1.00
H81    H     0.92329   0.69459   0.79160   0.00000  Uiso   1.00
H82    H     0.31793   0.05890   0.22065   0.00000  Uiso   1.00
H83    H     0.12852   0.23765   0.38519   0.00000  Uiso   1.00
O84    O     0.82830   0.81017   0.82077   0.00000  Uiso   1.00
O85    O     0.34605   0.28814   0.38366   0.00000  Uiso   1.00
O86    O     0.09755   0.52265   0.28756   0.00000  Uiso   1.00
N87    N     0.88612   0.03718   0.84050   0.00000  Uiso   1.00
N88    N     0.25507   0.37777   0.24165   0.00000  Uiso   1.00
N89    N     0.07801   0.54491   0.46058   0.00000  Uiso   1.00
N90    N     0.92123   0.81125   0.80661   0.00000  Uiso   1.00
N91    N     0.29018   0.15184   0.20776   0.00000  Uiso   1.00
N92    N     0.11312   0.31898   0.42669   0.00000  Uiso   1.00
C93    C     0.43006   0.83982   0.14949   0.00000  Uiso   1.00
C94    C     0.47214   0.70120   0.16055   0.00000  Uiso   1.00
C95    C     0.52708   0.71050   0.15095   0.00000  Uiso   1.00
C96    C     0.55884   0.57021   0.16378   0.00000  Uiso   1.00
C97    C     0.62759   0.37692   0.17760   0.00000  Uiso   1.00
C98    C     0.37046   0.79506   0.04998   0.00000  Uiso   1.00
C99    C     0.33990   0.88329   0.94742   0.00000  Uiso   1.00
C100   C     0.28606   0.82201   0.86718   0.00000  Uiso   1.00
C101   C     0.19692   0.77449   0.70937   0.00000  Uiso   1.00
C102   C     0.41927   0.84111   0.26524   0.00000  Uiso   1.00
C103   C     0.42973   0.96808   0.34368   0.00000  Uiso   1.00
C104   C     0.41697   0.94558   0.44467   0.00000  Uiso   1.00
C105   C     0.40361   0.96957   0.62110   0.00000  Uiso   1.00
C106   C     0.38876   0.57413   0.18935   0.00000  Uiso   1.00
C107   C     0.44971   0.55690   0.18219   0.00000  Uiso   1.00
C108   C     0.48140   0.41655   0.19505   0.00000  Uiso   1.00
C109   C     0.53638   0.42564   0.18548   0.00000  Uiso   1.00
C110   C     0.34803   0.65075   0.07162   0.00000  Uiso   1.00
C111   C     0.29422   0.58934   0.99151   0.00000  Uiso   1.00
C112   C     0.26359   0.67744   0.88886   0.00000  Uiso   1.00
C113   C     0.39684   0.69680   0.28690   0.00000  Uiso   1.00
C114   C     0.38405   0.67412   0.38777   0.00000  Uiso   1.00
C115   C     0.39450   0.80101   0.46635   0.00000  Uiso   1.00
H116   H     0.44751   0.95217   0.13263   0.00000  Uiso   1.00
H117   H     0.54442   0.82221   0.13419   0.00000  Uiso   1.00
H118   H     0.35727   0.99496   0.93070   0.00000  Uiso   1.00
H119   H     0.44709   0.07973   0.32690   0.00000  Uiso   1.00
H120   H     0.64196   0.61446   0.14542   0.00000  Uiso   1.00
H121   H     0.24733   0.97876   0.71637   0.00000  Uiso   1.00
H122   H     0.43673   0.15752   0.55183   0.00000  Uiso   1.00
H123   H     0.37130   0.46178   0.20620   0.00000  Uiso   1.00
H124   H     0.46403   0.30489   0.21180   0.00000  Uiso   1.00
H125   H     0.27687   0.47766   0.00830   0.00000  Uiso   1.00
H126   H     0.36670   0.56243   0.40450   0.00000  Uiso   1.00
H127   H     0.57671   0.19459   0.20840   0.00000  Uiso   1.00
H128   H     0.18207   0.55890   0.77935   0.00000  Uiso   1.00
H129   H     0.37148   0.73765   0.61481   0.00000  Uiso   1.00
O130   O     0.67170   0.31017   0.17923   0.00000  Uiso   1.00
O131   O     0.15395   0.78814   0.61634   0.00000  Uiso   1.00
O132   O     0.40245   0.02265   0.71244   0.00000  Uiso   1.00
N133   N     0.61388   0.53718   0.15950   0.00000  Uiso   1.00
N134   N     0.24493   0.87777   0.75835   0.00000  Uiso   1.00
N135   N     0.42199   0.04491   0.53942   0.00000  Uiso   1.00
N136   N     0.57877   0.31125   0.19339   0.00000  Uiso   1.00
N137   N     0.20982   0.65184   0.79224   0.00000  Uiso   1.00
N138   N     0.38688   0.81898   0.57331   0.00000  Uiso   1.00
C139   C     0.93006   0.33982   0.14949   0.00000  Uiso   1.00
C140   C     0.97214   0.20120   0.16055   0.00000  Uiso   1.00
C141   C     0.02708   0.21050   0.15095   0.00000  Uiso   1.00
C142   C     0.05884   0.07021   0.16378   0.00000  Uiso   1.00
C143   C     0.12759   0.87692   0.17760   0.00000  Uiso   1.00
C144   C     0.87046   0.29506   0.04998   0.00000  Uiso   1.00
C145   C     0.83990   0.38329   0.94742   0.00000  Uiso   1.00
C146   C     0.78606   0.32201   0.86718   0.00000  Uiso   1.00
C147   C     0.69692   0.27449   0.70937   0.00000  Uiso   1.00
C148   C     0.91927   0.34111   0.26524   0.00000  Uiso   1.00
C149   C     0.92973   0.46808   0.34368   0.00000  Uiso   1.00
C150   C     0.91697   0.44558   0.44467   0.00000  Uiso   1.00
C151   C     0.90361   0.46957   0.62110   0.00000  Uiso   1.00
C152   C     0.88876   0.07413   0.18935   0.00000  Uiso   1.00
C153   C     0.94971   0.05690   0.18219   0.00000  Uiso   1.00
C154   C     0.98140   0.91655   0.19505   0.00000  Uiso   1.00
C155   C     0.03638   0.92564   0.18548   0.00000  Uiso   1.00
C156   C     0.84803   0.15075   0.07162   0.00000  Uiso   1.00
C157   C     0.79422   0.08934   0.99151   0.00000  Uiso   1.00
C158   C     0.76359   0.17744   0.88886   0.00000  Uiso   1.00
C159   C     0.89684   0.19680   0.28690   0.00000  Uiso   1.00
C160   C     0.88405   0.17412   0.38777   0.00000  Uiso   1.00
C161   C     0.89450   0.30101   0.46635   0.00000  Uiso   1.00
H162   H     0.94751   0.45217   0.13263   0.00000  Uiso   1.00
H163   H     0.04442   0.32221   0.13419   0.00000  Uiso   1.00
H164   H     0.85727   0.49496   0.93070   0.00000  Uiso   1.00
H165   H     0.94709   0.57973   0.32690   0.00000  Uiso   1.00
H166   H     0.14196   0.11446   0.14542   0.00000  Uiso   1.00
H167   H     0.74733   0.47876   0.71637   0.00000  Uiso   1.00
H168   H     0.93673   0.65752   0.55183   0.00000  Uiso   1.00
H169   H     0.87130   0.96178   0.20620   0.00000  Uiso   1.00
H170   H     0.96403   0.80489   0.21180   0.00000  Uiso   1.00
H171   H     0.77687   0.97766   0.00830   0.00000  Uiso   1.00
H172   H     0.86670   0.06243   0.40450   0.00000  Uiso   1.00
H173   H     0.07671   0.69459   0.20840   0.00000  Uiso   1.00
H174   H     0.68207   0.05890   0.77935   0.00000  Uiso   1.00
H175   H     0.87148   0.23765   0.61481   0.00000  Uiso   1.00
O176   O     0.17170   0.81017   0.17923   0.00000  Uiso   1.00
O177   O     0.65395   0.28814   0.61634   0.00000  Uiso   1.00
O178   O     0.90245   0.52265   0.71244   0.00000  Uiso   1.00
N179   N     0.11388   0.03718   0.15950   0.00000  Uiso   1.00
N180   N     0.74493   0.37777   0.75835   0.00000  Uiso   1.00
N181   N     0.92199   0.54491   0.53942   0.00000  Uiso   1.00
N182   N     0.07877   0.81125   0.19339   0.00000  Uiso   1.00
N183   N     0.70982   0.15184   0.79224   0.00000  Uiso   1.00
N184   N     0.88688   0.31898   0.57331   0.00000  Uiso   1.00
