data_job_05255
_audit_creation_date              2018-12-19
_audit_creation_method            'Materials Studio'
_symmetry_space_group_name_H-M    'P1'
_symmetry_Int_Tables_number       1
_symmetry_cell_setting            triclinic
loop_
_symmetry_equiv_pos_as_xyz
  x,y,z
_cell_length_a                    20.2439
_cell_length_b                    20.2439
_cell_length_c                    12.3735
_cell_angle_alpha                 90.0000
_cell_angle_beta                  90.0000
_cell_angle_gamma                 120.0000
loop_
_atom_site_label
_atom_site_type_symbol
_atom_site_fract_x
_atom_site_fract_y
_atom_site_fract_z
_atom_site_U_iso_or_equiv
_atom_site_adp_type
_atom_site_occupancy
C1     C     0.41073   0.88580   0.48119   0.00000  Uiso   1.00
C2     C     0.40263   0.80970   0.51528   0.00000  Uiso   1.00
C3     C     0.46089   0.79245   0.51752   0.00000  Uiso   1.00
C4     C     0.44187   0.71962   0.55115   0.00000  Uiso   1.00
C5     C     0.44062   0.60959   0.59943   0.00000  Uiso   1.00
C6     C     0.35333   0.86761   0.39021   0.00000  Uiso   1.00
C7     C     0.37015   0.89907   0.28730   0.00000  Uiso   1.00
C8     C     0.30962   0.87499   0.21565   0.00000  Uiso   1.00
C9     C     0.23183   0.85493   0.06978   0.00000  Uiso   1.00
C10    C     0.38208   0.91246   0.57628   0.00000  Uiso   1.00
C11    C     0.42306   0.98164   0.62980   0.00000  Uiso   1.00
C12    C     0.38672   0.99533   0.71479   0.00000  Uiso   1.00
C13    C     0.35357   0.04489   0.85781   0.00000  Uiso   1.00
C14    C     0.27332   0.78712   0.53695   0.00000  Uiso   1.00
C15    C     0.32799   0.75610   0.54556   0.00000  Uiso   1.00
C16    C     0.30887   0.68328   0.57921   0.00000  Uiso   1.00
C17    C     0.36710   0.66592   0.58150   0.00000  Uiso   1.00
C18    C     0.27870   0.81402   0.42049   0.00000  Uiso   1.00
C19    C     0.21812   0.78989   0.34899   0.00000  Uiso   1.00
C20    C     0.23485   0.82130   0.24599   0.00000  Uiso   1.00
C21    C     0.30744   0.85886   0.60656   0.00000  Uiso   1.00
C22    C     0.27103   0.87245   0.69149   0.00000  Uiso   1.00
C23    C     0.31195   0.94163   0.74513   0.00000  Uiso   1.00
H24    H     0.46884   0.92753   0.45761   0.00000  Uiso   1.00
H25    H     0.51865   0.83395   0.49406   0.00000  Uiso   1.00
H26    H     0.42791   0.94055   0.26389   0.00000  Uiso   1.00
H27    H     0.48081   0.02310   0.60634   0.00000  Uiso   1.00
H28    H     0.54095   0.70655   0.54780   0.00000  Uiso   1.00
H29    H     0.34963   0.93135   0.06248   0.00000  Uiso   1.00
H30    H     0.46118   0.10542   0.78459   0.00000  Uiso   1.00
H31    H     0.21521   0.74539   0.56052   0.00000  Uiso   1.00
H32    H     0.25110   0.64181   0.60264   0.00000  Uiso   1.00
H33    H     0.16037   0.74842   0.37245   0.00000  Uiso   1.00
H34    H     0.21327   0.83096   0.71490   0.00000  Uiso   1.00
H35    H     0.32380   0.55060   0.63592   0.00000  Uiso   1.00
H36    H     0.13248   0.77541   0.15059   0.00000  Uiso   1.00
H37    H     0.24403   0.94947   0.87270   0.00000  Uiso   1.00
O38    O     0.46055   0.56371   0.61767   0.00000  Uiso   1.00
O39    O     0.20955   0.85866   0.98095   0.00000  Uiso   1.00
O40    O     0.35591   0.08703   0.92835   0.00000  Uiso   1.00
N41    N     0.48492   0.68406   0.56278   0.00000  Uiso   1.00
N42    N     0.30605   0.89423   0.10902   0.00000  Uiso   1.00
N43    N     0.41033   0.05698   0.78412   0.00000  Uiso   1.00
N44    N     0.36807   0.60015   0.61020   0.00000  Uiso   1.00
N45    N     0.18921   0.81032   0.15644   0.00000  Uiso   1.00
N46    N     0.29349   0.97307   0.83154   0.00000  Uiso   1.00
C47    C     0.11420   0.52493   0.81452   0.00000  Uiso   1.00
C48    C     0.19030   0.59293   0.84861   0.00000  Uiso   1.00
C49    C     0.20755   0.66844   0.85085   0.00000  Uiso   1.00
C50    C     0.28038   0.72225   0.88448   0.00000  Uiso   1.00
C51    C     0.39041   0.83103   0.93276   0.00000  Uiso   1.00
C52    C     0.13239   0.48571   0.72354   0.00000  Uiso   1.00
C53    C     0.10093   0.47108   0.62063   0.00000  Uiso   1.00
C54    C     0.12501   0.43462   0.54899   0.00000  Uiso   1.00
C55    C     0.14507   0.37691   0.40312   0.00000  Uiso   1.00
C56    C     0.08754   0.46961   0.90961   0.00000  Uiso   1.00
C57    C     0.01836   0.44142   0.96313   0.00000  Uiso   1.00
C58    C     0.00467   0.39140   0.04813   0.00000  Uiso   1.00
C59    C     0.95511   0.30868   0.19115   0.00000  Uiso   1.00
C60    C     0.21288   0.48620   0.87028   0.00000  Uiso   1.00
C61    C     0.24390   0.57189   0.87889   0.00000  Uiso   1.00
C62    C     0.31672   0.62559   0.91254   0.00000  Uiso   1.00
C63    C     0.33408   0.70117   0.91483   0.00000  Uiso   1.00
C64    C     0.18598   0.46468   0.75382   0.00000  Uiso   1.00
C65    C     0.21011   0.42823   0.68232   0.00000  Uiso   1.00
C66    C     0.17870   0.41355   0.57932   0.00000  Uiso   1.00
C67    C     0.14114   0.44858   0.93990   0.00000  Uiso   1.00
C68    C     0.12755   0.39858   0.02482   0.00000  Uiso   1.00
C69    C     0.05837   0.37032   0.07846   0.00000  Uiso   1.00
H70    H     0.07247   0.54131   0.79094   0.00000  Uiso   1.00
H71    H     0.16605   0.68470   0.82740   0.00000  Uiso   1.00
H72    H     0.05945   0.48736   0.59722   0.00000  Uiso   1.00
H73    H     0.97690   0.45771   0.93967   0.00000  Uiso   1.00
H74    H     0.29345   0.83440   0.88114   0.00000  Uiso   1.00
H75    H     0.06865   0.41828   0.39581   0.00000  Uiso   1.00
H76    H     0.89458   0.35576   0.11792   0.00000  Uiso   1.00
H77    H     0.25461   0.46982   0.89386   0.00000  Uiso   1.00
H78    H     0.35819   0.60929   0.93597   0.00000  Uiso   1.00
H79    H     0.25158   0.41196   0.70579   0.00000  Uiso   1.00
H80    H     0.16904   0.38231   0.04823   0.00000  Uiso   1.00
H81    H     0.44940   0.77320   0.96925   0.00000  Uiso   1.00
H82    H     0.22459   0.35707   0.48392   0.00000  Uiso   1.00
H83    H     0.05053   0.29456   0.20604   0.00000  Uiso   1.00
O84    O     0.43629   0.89684   0.95101   0.00000  Uiso   1.00
O85    O     0.14134   0.35089   0.31428   0.00000  Uiso   1.00
O86    O     0.91297   0.26888   0.26168   0.00000  Uiso   1.00
N87    N     0.31594   0.80085   0.89612   0.00000  Uiso   1.00
N88    N     0.10577   0.41182   0.44236   0.00000  Uiso   1.00
N89    N     0.94302   0.35335   0.11746   0.00000  Uiso   1.00
N90    N     0.39985   0.76792   0.94353   0.00000  Uiso   1.00
N91    N     0.18968   0.37889   0.48977   0.00000  Uiso   1.00
N92    N     0.02693   0.32042   0.16487   0.00000  Uiso   1.00
C93    C     0.47507   0.58927   0.14786   0.00000  Uiso   1.00
C94    C     0.40707   0.59737   0.18195   0.00000  Uiso   1.00
C95    C     0.33156   0.53911   0.18418   0.00000  Uiso   1.00
C96    C     0.27775   0.55813   0.21782   0.00000  Uiso   1.00
C97    C     0.16897   0.55938   0.26609   0.00000  Uiso   1.00
C98    C     0.51429   0.64667   0.05688   0.00000  Uiso   1.00
C99    C     0.52892   0.62985   0.95396   0.00000  Uiso   1.00
C100   C     0.56538   0.69038   0.88232   0.00000  Uiso   1.00
C101   C     0.62309   0.76817   0.73645   0.00000  Uiso   1.00
C102   C     0.53039   0.61792   0.24294   0.00000  Uiso   1.00
C103   C     0.55858   0.57694   0.29646   0.00000  Uiso   1.00
C104   C     0.60860   0.61328   0.38146   0.00000  Uiso   1.00
C105   C     0.69132   0.64643   0.52448   0.00000  Uiso   1.00
C106   C     0.51380   0.72668   0.20361   0.00000  Uiso   1.00
C107   C     0.42811   0.67201   0.21223   0.00000  Uiso   1.00
C108   C     0.37441   0.69113   0.24587   0.00000  Uiso   1.00
C109   C     0.29883   0.63290   0.24816   0.00000  Uiso   1.00
C110   C     0.53532   0.72130   0.08716   0.00000  Uiso   1.00
C111   C     0.57177   0.78188   0.01565   0.00000  Uiso   1.00
C112   C     0.58645   0.76515   0.91266   0.00000  Uiso   1.00
C113   C     0.55142   0.69256   0.27323   0.00000  Uiso   1.00
C114   C     0.60142   0.72897   0.35815   0.00000  Uiso   1.00
C115   C     0.62968   0.68805   0.41180   0.00000  Uiso   1.00
H116   H     0.45869   0.53116   0.12427   0.00000  Uiso   1.00
H117   H     0.31530   0.48135   0.16073   0.00000  Uiso   1.00
H118   H     0.51264   0.57209   0.93056   0.00000  Uiso   1.00
H119   H     0.54229   0.51919   0.27300   0.00000  Uiso   1.00
H120   H     0.16560   0.45905   0.21447   0.00000  Uiso   1.00
H121   H     0.58172   0.65037   0.72914   0.00000  Uiso   1.00
H122   H     0.64424   0.53882   0.45126   0.00000  Uiso   1.00
H123   H     0.53018   0.78479   0.22719   0.00000  Uiso   1.00
H124   H     0.39071   0.74890   0.26930   0.00000  Uiso   1.00
H125   H     0.58804   0.83963   0.03912   0.00000  Uiso   1.00
H126   H     0.61769   0.78673   0.38157   0.00000  Uiso   1.00
H127   H     0.22680   0.67620   0.30258   0.00000  Uiso   1.00
H128   H     0.64293   0.86752   0.81725   0.00000  Uiso   1.00
H129   H     0.70544   0.75597   0.53937   0.00000  Uiso   1.00
O130   O     0.10316   0.53945   0.28434   0.00000  Uiso   1.00
O131   O     0.64911   0.79045   0.64761   0.00000  Uiso   1.00
O132   O     0.73112   0.64409   0.59501   0.00000  Uiso   1.00
N133   N     0.19915   0.51508   0.22945   0.00000  Uiso   1.00
N134   N     0.58818   0.69395   0.77569   0.00000  Uiso   1.00
N135   N     0.64665   0.58967   0.45079   0.00000  Uiso   1.00
N136   N     0.23208   0.63193   0.27687   0.00000  Uiso   1.00
N137   N     0.62111   0.81079   0.82311   0.00000  Uiso   1.00
N138   N     0.67958   0.70651   0.49820   0.00000  Uiso   1.00
C139   C     0.58927   0.11420   0.98119   0.00000  Uiso   1.00
C140   C     0.59737   0.19030   0.01528   0.00000  Uiso   1.00
C141   C     0.53911   0.20755   0.01752   0.00000  Uiso   1.00
C142   C     0.55813   0.28038   0.05115   0.00000  Uiso   1.00
C143   C     0.55938   0.39041   0.09943   0.00000  Uiso   1.00
C144   C     0.64667   0.13239   0.89021   0.00000  Uiso   1.00
C145   C     0.62985   0.10093   0.78730   0.00000  Uiso   1.00
C146   C     0.69038   0.12501   0.71565   0.00000  Uiso   1.00
C147   C     0.76817   0.14507   0.56978   0.00000  Uiso   1.00
C148   C     0.61792   0.08754   0.07628   0.00000  Uiso   1.00
C149   C     0.57694   0.01836   0.12980   0.00000  Uiso   1.00
C150   C     0.61328   0.00467   0.21479   0.00000  Uiso   1.00
C151   C     0.64643   0.95511   0.35781   0.00000  Uiso   1.00
C152   C     0.72668   0.21288   0.03695   0.00000  Uiso   1.00
C153   C     0.67201   0.24390   0.04556   0.00000  Uiso   1.00
C154   C     0.69113   0.31672   0.07921   0.00000  Uiso   1.00
C155   C     0.63290   0.33408   0.08150   0.00000  Uiso   1.00
C156   C     0.72130   0.18598   0.92049   0.00000  Uiso   1.00
C157   C     0.78188   0.21011   0.84899   0.00000  Uiso   1.00
C158   C     0.76515   0.17870   0.74599   0.00000  Uiso   1.00
C159   C     0.69256   0.14114   0.10656   0.00000  Uiso   1.00
C160   C     0.72897   0.12755   0.19149   0.00000  Uiso   1.00
C161   C     0.68805   0.05837   0.24513   0.00000  Uiso   1.00
H162   H     0.53116   0.07247   0.95761   0.00000  Uiso   1.00
H163   H     0.48135   0.16605   0.99406   0.00000  Uiso   1.00
H164   H     0.57209   0.05945   0.76389   0.00000  Uiso   1.00
H165   H     0.51919   0.97690   0.10634   0.00000  Uiso   1.00
H166   H     0.45905   0.29345   0.04780   0.00000  Uiso   1.00
H167   H     0.65037   0.06865   0.56248   0.00000  Uiso   1.00
H168   H     0.53882   0.89458   0.28459   0.00000  Uiso   1.00
H169   H     0.78479   0.25461   0.06052   0.00000  Uiso   1.00
H170   H     0.74890   0.35819   0.10264   0.00000  Uiso   1.00
H171   H     0.83963   0.25158   0.87245   0.00000  Uiso   1.00
H172   H     0.78673   0.16904   0.21490   0.00000  Uiso   1.00
H173   H     0.67620   0.44940   0.13592   0.00000  Uiso   1.00
H174   H     0.86752   0.22459   0.65059   0.00000  Uiso   1.00
H175   H     0.75597   0.05053   0.37270   0.00000  Uiso   1.00
O176   O     0.53945   0.43629   0.11767   0.00000  Uiso   1.00
O177   O     0.79045   0.14134   0.48095   0.00000  Uiso   1.00
O178   O     0.64409   0.91297   0.42835   0.00000  Uiso   1.00
N179   N     0.51508   0.31594   0.06278   0.00000  Uiso   1.00
N180   N     0.69395   0.10577   0.60902   0.00000  Uiso   1.00
N181   N     0.58967   0.94302   0.28412   0.00000  Uiso   1.00
N182   N     0.63193   0.39985   0.11020   0.00000  Uiso   1.00
N183   N     0.81079   0.18968   0.65644   0.00000  Uiso   1.00
N184   N     0.70651   0.02693   0.33154   0.00000  Uiso   1.00
C185   C     0.88580   0.47507   0.31452   0.00000  Uiso   1.00
C186   C     0.80970   0.40707   0.34861   0.00000  Uiso   1.00
C187   C     0.79245   0.33156   0.35085   0.00000  Uiso   1.00
C188   C     0.71962   0.27775   0.38448   0.00000  Uiso   1.00
C189   C     0.60959   0.16897   0.43276   0.00000  Uiso   1.00
C190   C     0.86761   0.51429   0.22354   0.00000  Uiso   1.00
C191   C     0.89907   0.52892   0.12063   0.00000  Uiso   1.00
C192   C     0.87499   0.56538   0.04899   0.00000  Uiso   1.00
C193   C     0.85493   0.62309   0.90312   0.00000  Uiso   1.00
C194   C     0.91246   0.53039   0.40961   0.00000  Uiso   1.00
C195   C     0.98164   0.55858   0.46313   0.00000  Uiso   1.00
C196   C     0.99533   0.60860   0.54813   0.00000  Uiso   1.00
C197   C     0.04489   0.69132   0.69115   0.00000  Uiso   1.00
C198   C     0.78712   0.51380   0.37028   0.00000  Uiso   1.00
C199   C     0.75610   0.42811   0.37889   0.00000  Uiso   1.00
C200   C     0.68328   0.37441   0.41254   0.00000  Uiso   1.00
C201   C     0.66592   0.29883   0.41483   0.00000  Uiso   1.00
C202   C     0.81402   0.53532   0.25382   0.00000  Uiso   1.00
C203   C     0.78989   0.57177   0.18232   0.00000  Uiso   1.00
C204   C     0.82130   0.58645   0.07932   0.00000  Uiso   1.00
C205   C     0.85886   0.55142   0.43990   0.00000  Uiso   1.00
C206   C     0.87245   0.60142   0.52482   0.00000  Uiso   1.00
C207   C     0.94163   0.62968   0.57846   0.00000  Uiso   1.00
H208   H     0.92753   0.45869   0.29094   0.00000  Uiso   1.00
H209   H     0.83395   0.31530   0.32740   0.00000  Uiso   1.00
H210   H     0.94055   0.51264   0.09722   0.00000  Uiso   1.00
H211   H     0.02310   0.54229   0.43967   0.00000  Uiso   1.00
H212   H     0.70655   0.16560   0.38114   0.00000  Uiso   1.00
H213   H     0.93135   0.58172   0.89581   0.00000  Uiso   1.00
H214   H     0.10542   0.64424   0.61792   0.00000  Uiso   1.00
H215   H     0.74539   0.53018   0.39386   0.00000  Uiso   1.00
H216   H     0.64181   0.39071   0.43597   0.00000  Uiso   1.00
H217   H     0.74842   0.58804   0.20579   0.00000  Uiso   1.00
H218   H     0.83096   0.61769   0.54823   0.00000  Uiso   1.00
H219   H     0.55060   0.22680   0.46925   0.00000  Uiso   1.00
H220   H     0.77541   0.64293   0.98392   0.00000  Uiso   1.00
H221   H     0.94947   0.70544   0.70604   0.00000  Uiso   1.00
O222   O     0.56371   0.10316   0.45101   0.00000  Uiso   1.00
O223   O     0.85866   0.64911   0.81428   0.00000  Uiso   1.00
O224   O     0.08703   0.73112   0.76168   0.00000  Uiso   1.00
N225   N     0.68406   0.19915   0.39612   0.00000  Uiso   1.00
N226   N     0.89423   0.58818   0.94236   0.00000  Uiso   1.00
N227   N     0.05698   0.64665   0.61746   0.00000  Uiso   1.00
N228   N     0.60015   0.23208   0.44353   0.00000  Uiso   1.00
N229   N     0.81032   0.62111   0.98977   0.00000  Uiso   1.00
N230   N     0.97307   0.67958   0.66487   0.00000  Uiso   1.00
C231   C     0.52493   0.41073   0.64786   0.00000  Uiso   1.00
C232   C     0.59293   0.40263   0.68195   0.00000  Uiso   1.00
C233   C     0.66844   0.46089   0.68418   0.00000  Uiso   1.00
C234   C     0.72225   0.44187   0.71782   0.00000  Uiso   1.00
C235   C     0.83103   0.44062   0.76609   0.00000  Uiso   1.00
C236   C     0.48571   0.35333   0.55688   0.00000  Uiso   1.00
C237   C     0.47108   0.37015   0.45396   0.00000  Uiso   1.00
C238   C     0.43462   0.30962   0.38232   0.00000  Uiso   1.00
C239   C     0.37691   0.23183   0.23645   0.00000  Uiso   1.00
C240   C     0.46961   0.38208   0.74294   0.00000  Uiso   1.00
C241   C     0.44142   0.42306   0.79646   0.00000  Uiso   1.00
C242   C     0.39140   0.38672   0.88146   0.00000  Uiso   1.00
C243   C     0.30868   0.35357   0.02448   0.00000  Uiso   1.00
C244   C     0.48620   0.27332   0.70361   0.00000  Uiso   1.00
C245   C     0.57189   0.32799   0.71223   0.00000  Uiso   1.00
C246   C     0.62559   0.30887   0.74587   0.00000  Uiso   1.00
C247   C     0.70117   0.36710   0.74816   0.00000  Uiso   1.00
C248   C     0.46468   0.27870   0.58716   0.00000  Uiso   1.00
C249   C     0.42823   0.21812   0.51565   0.00000  Uiso   1.00
C250   C     0.41355   0.23485   0.41266   0.00000  Uiso   1.00
C251   C     0.44858   0.30744   0.77323   0.00000  Uiso   1.00
C252   C     0.39858   0.27103   0.85815   0.00000  Uiso   1.00
C253   C     0.37032   0.31195   0.91180   0.00000  Uiso   1.00
H254   H     0.54131   0.46884   0.62427   0.00000  Uiso   1.00
H255   H     0.68470   0.51865   0.66073   0.00000  Uiso   1.00
H256   H     0.48736   0.42791   0.43056   0.00000  Uiso   1.00
H257   H     0.45771   0.48081   0.77300   0.00000  Uiso   1.00
H258   H     0.83440   0.54095   0.71447   0.00000  Uiso   1.00
H259   H     0.41828   0.34963   0.22914   0.00000  Uiso   1.00
H260   H     0.35576   0.46118   0.95126   0.00000  Uiso   1.00
H261   H     0.46982   0.21521   0.72719   0.00000  Uiso   1.00
H262   H     0.60929   0.25110   0.76930   0.00000  Uiso   1.00
H263   H     0.41196   0.16037   0.53912   0.00000  Uiso   1.00
H264   H     0.38231   0.21327   0.88157   0.00000  Uiso   1.00
H265   H     0.77320   0.32380   0.80258   0.00000  Uiso   1.00
H266   H     0.35707   0.13248   0.31725   0.00000  Uiso   1.00
H267   H     0.29456   0.24403   0.03937   0.00000  Uiso   1.00
O268   O     0.89684   0.46055   0.78434   0.00000  Uiso   1.00
O269   O     0.35089   0.20955   0.14761   0.00000  Uiso   1.00
O270   O     0.26888   0.35591   0.09501   0.00000  Uiso   1.00
N271   N     0.80085   0.48492   0.72945   0.00000  Uiso   1.00
N272   N     0.41182   0.30605   0.27569   0.00000  Uiso   1.00
N273   N     0.35335   0.41033   0.95079   0.00000  Uiso   1.00
N274   N     0.76792   0.36807   0.77687   0.00000  Uiso   1.00
N275   N     0.37889   0.18921   0.32311   0.00000  Uiso   1.00
N276   N     0.32042   0.29349   0.99820   0.00000  Uiso   1.00
