data_job_00244
_audit_creation_date              2018-12-19
_audit_creation_method            'Materials Studio'
_symmetry_space_group_name_H-M    'P1'
_symmetry_Int_Tables_number       1
_symmetry_cell_setting            triclinic
loop_
_symmetry_equiv_pos_as_xyz
  x,y,z
_cell_length_a                    12.8299
_cell_length_b                    11.8507
_cell_length_c                    19.0911
_cell_angle_alpha                 90.0000
_cell_angle_beta                  90.0000
_cell_angle_gamma                 90.0000
loop_
_atom_site_label
_atom_site_type_symbol
_atom_site_fract_x
_atom_site_fract_y
_atom_site_fract_z
_atom_site_U_iso_or_equiv
_atom_site_adp_type
_atom_site_occupancy
C1     C     0.82124   0.77798   0.95004   0.00000  Uiso   1.00
C2     C     0.92456   0.71748   0.93783   0.00000  Uiso   1.00
C3     C     0.95538   0.66615   0.87587   0.00000  Uiso   1.00
C4     C     0.05285   0.61528   0.87529   0.00000  Uiso   1.00
C5     C     0.20348   0.52121   0.84733   0.00000  Uiso   1.00
C6     C     0.77107   0.72022   0.01295   0.00000  Uiso   1.00
C7     C     0.67284   0.67122   0.01414   0.00000  Uiso   1.00
C8     C     0.64111   0.62267   0.07681   0.00000  Uiso   1.00
C9     C     0.55342   0.53293   0.16548   0.00000  Uiso   1.00
C10    C     0.84916   0.89687   0.97415   0.00000  Uiso   1.00
C11    C     0.81657   0.99640   0.94272   0.00000  Uiso   1.00
C12    C     0.85057   0.09659   0.97272   0.00000  Uiso   1.00
C13    C     0.88413   0.28113   0.00114   0.00000  Uiso   1.00
C14    C     0.93955   0.77891   0.05921   0.00000  Uiso   1.00
C15    C     0.98881   0.71798   0.99713   0.00000  Uiso   1.00
C16    C     0.08627   0.66718   0.99665   0.00000  Uiso   1.00
C17    C     0.11723   0.61579   0.93469   0.00000  Uiso   1.00
C18    C     0.83533   0.72073   0.07225   0.00000  Uiso   1.00
C19    C     0.80373   0.67225   0.13492   0.00000  Uiso   1.00
C20    C     0.70548   0.62318   0.13621   0.00000  Uiso   1.00
C21    C     0.91343   0.89738   0.03344   0.00000  Uiso   1.00
C22    C     0.94747   0.99743   0.06350   0.00000  Uiso   1.00
C23    C     0.91494   0.09709   0.03212   0.00000  Uiso   1.00
H24    H     0.77121   0.77758   0.90388   0.00000  Uiso   1.00
H25    H     0.90562   0.66577   0.82999   0.00000  Uiso   1.00
H26    H     0.62313   0.67085   0.96825   0.00000  Uiso   1.00
H27    H     0.76684   0.99598   0.89684   0.00000  Uiso   1.00
H28    H     0.08297   0.54199   0.77423   0.00000  Uiso   1.00
H29    H     0.48730   0.55273   0.06576   0.00000  Uiso   1.00
H30    H     0.79035   0.23834   0.91517   0.00000  Uiso   1.00
H31    H     0.98958   0.77931   0.10537   0.00000  Uiso   1.00
H32    H     0.13598   0.66759   0.04254   0.00000  Uiso   1.00
H33    H     0.85348   0.67266   0.18080   0.00000  Uiso   1.00
H34    H     0.99720   0.99779   0.10939   0.00000  Uiso   1.00
H35    H     0.26993   0.54346   0.94675   0.00000  Uiso   1.00
H36    H     0.67426   0.55421   0.23828   0.00000  Uiso   1.00
H37    H     0.97731   0.23981   0.08769   0.00000  Uiso   1.00
O38    O     0.26880   0.46917   0.81553   0.00000  Uiso   1.00
O39    O     0.48730   0.48328   0.19801   0.00000  Uiso   1.00
O40    O     0.88490   0.38277   0.00043   0.00000  Uiso   1.00
N41    N     0.10689   0.55769   0.82345   0.00000  Uiso   1.00
N42    N     0.54997   0.56771   0.09601   0.00000  Uiso   1.00
N43    N     0.83328   0.20870   0.95523   0.00000  Uiso   1.00
N44    N     0.20749   0.55848   0.91628   0.00000  Uiso   1.00
N45    N     0.65058   0.56851   0.18884   0.00000  Uiso   1.00
N46    N     0.93389   0.20949   0.04806   0.00000  Uiso   1.00
C47    C     0.17876   0.22202   0.45004   0.00000  Uiso   1.00
C48    C     0.07544   0.28252   0.43783   0.00000  Uiso   1.00
C49    C     0.04462   0.33385   0.37587   0.00000  Uiso   1.00
C50    C     0.94715   0.38472   0.37529   0.00000  Uiso   1.00
C51    C     0.79652   0.47879   0.34733   0.00000  Uiso   1.00
C52    C     0.22893   0.27978   0.51295   0.00000  Uiso   1.00
C53    C     0.32716   0.32878   0.51414   0.00000  Uiso   1.00
C54    C     0.35889   0.37733   0.57681   0.00000  Uiso   1.00
C55    C     0.44658   0.46707   0.66548   0.00000  Uiso   1.00
C56    C     0.15084   0.10313   0.47415   0.00000  Uiso   1.00
C57    C     0.18343   0.00360   0.44272   0.00000  Uiso   1.00
C58    C     0.14943   0.90341   0.47272   0.00000  Uiso   1.00
C59    C     0.11587   0.71887   0.50114   0.00000  Uiso   1.00
C60    C     0.06045   0.22109   0.55921   0.00000  Uiso   1.00
C61    C     0.01119   0.28202   0.49713   0.00000  Uiso   1.00
C62    C     0.91373   0.33282   0.49665   0.00000  Uiso   1.00
C63    C     0.88277   0.38421   0.43469   0.00000  Uiso   1.00
C64    C     0.16467   0.27927   0.57225   0.00000  Uiso   1.00
C65    C     0.19627   0.32775   0.63492   0.00000  Uiso   1.00
C66    C     0.29452   0.37682   0.63621   0.00000  Uiso   1.00
C67    C     0.08657   0.10262   0.53344   0.00000  Uiso   1.00
C68    C     0.05253   0.00257   0.56350   0.00000  Uiso   1.00
C69    C     0.08506   0.90291   0.53212   0.00000  Uiso   1.00
H70    H     0.22879   0.22242   0.40388   0.00000  Uiso   1.00
H71    H     0.09438   0.33423   0.32999   0.00000  Uiso   1.00
H72    H     0.37687   0.32915   0.46825   0.00000  Uiso   1.00
H73    H     0.23316   0.00402   0.39684   0.00000  Uiso   1.00
H74    H     0.91703   0.45801   0.27423   0.00000  Uiso   1.00
H75    H     0.51270   0.44727   0.56576   0.00000  Uiso   1.00
H76    H     0.20965   0.76166   0.41517   0.00000  Uiso   1.00
H77    H     0.01042   0.22069   0.60537   0.00000  Uiso   1.00
H78    H     0.86402   0.33241   0.54254   0.00000  Uiso   1.00
H79    H     0.14652   0.32734   0.68080   0.00000  Uiso   1.00
H80    H     0.00280   0.00221   0.60939   0.00000  Uiso   1.00
H81    H     0.73007   0.45654   0.44675   0.00000  Uiso   1.00
H82    H     0.32574   0.44579   0.73828   0.00000  Uiso   1.00
H83    H     0.02269   0.76019   0.58769   0.00000  Uiso   1.00
O84    O     0.73120   0.53083   0.31553   0.00000  Uiso   1.00
O85    O     0.51270   0.51672   0.69801   0.00000  Uiso   1.00
O86    O     0.11510   0.61723   0.50043   0.00000  Uiso   1.00
N87    N     0.89311   0.44231   0.32345   0.00000  Uiso   1.00
N88    N     0.45003   0.43229   0.59601   0.00000  Uiso   1.00
N89    N     0.16672   0.79130   0.45523   0.00000  Uiso   1.00
N90    N     0.79251   0.44152   0.41628   0.00000  Uiso   1.00
N91    N     0.34942   0.43149   0.68884   0.00000  Uiso   1.00
N92    N     0.06611   0.79051   0.54806   0.00000  Uiso   1.00
C93    C     0.32124   0.22202   0.95004   0.00000  Uiso   1.00
C94    C     0.42456   0.28252   0.93783   0.00000  Uiso   1.00
C95    C     0.45538   0.33385   0.87587   0.00000  Uiso   1.00
C96    C     0.55285   0.38472   0.87529   0.00000  Uiso   1.00
C97    C     0.70348   0.47879   0.84733   0.00000  Uiso   1.00
C98    C     0.27107   0.27978   0.01295   0.00000  Uiso   1.00
C99    C     0.17284   0.32878   0.01414   0.00000  Uiso   1.00
C100   C     0.14111   0.37733   0.07681   0.00000  Uiso   1.00
C101   C     0.05342   0.46707   0.16548   0.00000  Uiso   1.00
C102   C     0.34916   0.10313   0.97415   0.00000  Uiso   1.00
C103   C     0.31657   0.00360   0.94272   0.00000  Uiso   1.00
C104   C     0.35057   0.90341   0.97272   0.00000  Uiso   1.00
C105   C     0.38413   0.71887   0.00114   0.00000  Uiso   1.00
C106   C     0.43955   0.22109   0.05921   0.00000  Uiso   1.00
C107   C     0.48881   0.28202   0.99713   0.00000  Uiso   1.00
C108   C     0.58627   0.33282   0.99665   0.00000  Uiso   1.00
C109   C     0.61723   0.38421   0.93469   0.00000  Uiso   1.00
C110   C     0.33533   0.27927   0.07225   0.00000  Uiso   1.00
C111   C     0.30373   0.32775   0.13492   0.00000  Uiso   1.00
C112   C     0.20548   0.37682   0.13621   0.00000  Uiso   1.00
C113   C     0.41343   0.10262   0.03344   0.00000  Uiso   1.00
C114   C     0.44747   0.00257   0.06350   0.00000  Uiso   1.00
C115   C     0.41494   0.90291   0.03212   0.00000  Uiso   1.00
H116   H     0.27121   0.22242   0.90388   0.00000  Uiso   1.00
H117   H     0.40562   0.33423   0.82999   0.00000  Uiso   1.00
H118   H     0.12313   0.32915   0.96825   0.00000  Uiso   1.00
H119   H     0.26684   0.00402   0.89684   0.00000  Uiso   1.00
H120   H     0.58297   0.45801   0.77423   0.00000  Uiso   1.00
H121   H     0.98730   0.44727   0.06576   0.00000  Uiso   1.00
H122   H     0.29035   0.76166   0.91517   0.00000  Uiso   1.00
H123   H     0.48958   0.22069   0.10537   0.00000  Uiso   1.00
H124   H     0.63598   0.33241   0.04254   0.00000  Uiso   1.00
H125   H     0.35348   0.32734   0.18080   0.00000  Uiso   1.00
H126   H     0.49720   0.00221   0.10939   0.00000  Uiso   1.00
H127   H     0.76993   0.45654   0.94675   0.00000  Uiso   1.00
H128   H     0.17426   0.44579   0.23828   0.00000  Uiso   1.00
H129   H     0.47731   0.76019   0.08769   0.00000  Uiso   1.00
O130   O     0.76880   0.53083   0.81553   0.00000  Uiso   1.00
O131   O     0.98730   0.51672   0.19801   0.00000  Uiso   1.00
O132   O     0.38490   0.61723   0.00043   0.00000  Uiso   1.00
N133   N     0.60689   0.44231   0.82345   0.00000  Uiso   1.00
N134   N     0.04997   0.43229   0.09601   0.00000  Uiso   1.00
N135   N     0.33328   0.79130   0.95523   0.00000  Uiso   1.00
N136   N     0.70749   0.44152   0.91628   0.00000  Uiso   1.00
N137   N     0.15058   0.43149   0.18884   0.00000  Uiso   1.00
N138   N     0.43389   0.79051   0.04806   0.00000  Uiso   1.00
C139   C     0.67876   0.77798   0.45004   0.00000  Uiso   1.00
C140   C     0.57544   0.71748   0.43783   0.00000  Uiso   1.00
C141   C     0.54462   0.66615   0.37587   0.00000  Uiso   1.00
C142   C     0.44715   0.61528   0.37529   0.00000  Uiso   1.00
C143   C     0.29652   0.52121   0.34733   0.00000  Uiso   1.00
C144   C     0.72893   0.72022   0.51295   0.00000  Uiso   1.00
C145   C     0.82716   0.67122   0.51414   0.00000  Uiso   1.00
C146   C     0.85889   0.62267   0.57681   0.00000  Uiso   1.00
C147   C     0.94658   0.53293   0.66548   0.00000  Uiso   1.00
C148   C     0.65084   0.89687   0.47415   0.00000  Uiso   1.00
C149   C     0.68343   0.99640   0.44272   0.00000  Uiso   1.00
C150   C     0.64943   0.09659   0.47272   0.00000  Uiso   1.00
C151   C     0.61587   0.28113   0.50114   0.00000  Uiso   1.00
C152   C     0.56045   0.77891   0.55921   0.00000  Uiso   1.00
C153   C     0.51119   0.71798   0.49713   0.00000  Uiso   1.00
C154   C     0.41373   0.66718   0.49665   0.00000  Uiso   1.00
C155   C     0.38277   0.61579   0.43469   0.00000  Uiso   1.00
C156   C     0.66467   0.72073   0.57225   0.00000  Uiso   1.00
C157   C     0.69627   0.67225   0.63492   0.00000  Uiso   1.00
C158   C     0.79452   0.62318   0.63621   0.00000  Uiso   1.00
C159   C     0.58657   0.89738   0.53344   0.00000  Uiso   1.00
C160   C     0.55253   0.99743   0.56350   0.00000  Uiso   1.00
C161   C     0.58506   0.09709   0.53212   0.00000  Uiso   1.00
H162   H     0.72879   0.77758   0.40388   0.00000  Uiso   1.00
H163   H     0.59438   0.66577   0.32999   0.00000  Uiso   1.00
H164   H     0.87687   0.67085   0.46825   0.00000  Uiso   1.00
H165   H     0.73316   0.99598   0.39684   0.00000  Uiso   1.00
H166   H     0.41703   0.54199   0.27423   0.00000  Uiso   1.00
H167   H     0.01270   0.55273   0.56576   0.00000  Uiso   1.00
H168   H     0.70965   0.23834   0.41517   0.00000  Uiso   1.00
H169   H     0.51042   0.77931   0.60537   0.00000  Uiso   1.00
H170   H     0.36402   0.66759   0.54254   0.00000  Uiso   1.00
H171   H     0.64652   0.67266   0.68080   0.00000  Uiso   1.00
H172   H     0.50280   0.99779   0.60939   0.00000  Uiso   1.00
H173   H     0.23007   0.54346   0.44675   0.00000  Uiso   1.00
H174   H     0.82574   0.55421   0.73828   0.00000  Uiso   1.00
H175   H     0.52269   0.23981   0.58769   0.00000  Uiso   1.00
O176   O     0.23120   0.46917   0.31553   0.00000  Uiso   1.00
O177   O     0.01270   0.48328   0.69801   0.00000  Uiso   1.00
O178   O     0.61510   0.38277   0.50043   0.00000  Uiso   1.00
N179   N     0.39311   0.55769   0.32345   0.00000  Uiso   1.00
N180   N     0.95003   0.56771   0.59601   0.00000  Uiso   1.00
N181   N     0.66672   0.20870   0.45523   0.00000  Uiso   1.00
N182   N     0.29251   0.55848   0.41628   0.00000  Uiso   1.00
N183   N     0.84942   0.56851   0.68884   0.00000  Uiso   1.00
N184   N     0.56611   0.20949   0.54806   0.00000  Uiso   1.00
