data_job_04554
_audit_creation_date              2018-12-19
_audit_creation_method            'Materials Studio'
_symmetry_space_group_name_H-M    'P1'
_symmetry_Int_Tables_number       1
_symmetry_cell_setting            triclinic
loop_
_symmetry_equiv_pos_as_xyz
  x,y,z
_cell_length_a                    7.4818
_cell_length_b                    12.1811
_cell_length_c                    14.9027
_cell_angle_alpha                 80.5115
_cell_angle_beta                  90.0284
_cell_angle_gamma                 107.8447
loop_
_atom_site_label
_atom_site_type_symbol
_atom_site_fract_x
_atom_site_fract_y
_atom_site_fract_z
_atom_site_U_iso_or_equiv
_atom_site_adp_type
_atom_site_occupancy
C1     C     0.35783   0.37104   0.24849   0.00000  Uiso   1.00
C2     C     0.22655   0.26595   0.21346   0.00000  Uiso   1.00
C3     C     0.27936   0.17749   0.18404   0.00000  Uiso   1.00
C4     C     0.13825   0.08904   0.15452   0.00000  Uiso   1.00
C5     C     0.96288   0.92587   0.10009   0.00000  Uiso   1.00
C6     C     0.33322   0.47921   0.18870   0.00000  Uiso   1.00
C7     C     0.47571   0.57008   0.13849   0.00000  Uiso   1.00
C8     C     0.42439   0.66117   0.08815   0.00000  Uiso   1.00
C9     C     0.41464   0.82914   0.99535   0.00000  Uiso   1.00
C10    C     0.27765   0.36812   0.34322   0.00000  Uiso   1.00
C11    C     0.37344   0.36560   0.42292   0.00000  Uiso   1.00
C12    C     0.27535   0.36318   0.50267   0.00000  Uiso   1.00
C13    C     0.17933   0.35866   0.64976   0.00000  Uiso   1.00
C14    C     0.01333   0.37125   0.24837   0.00000  Uiso   1.00
C15    C     0.03943   0.26606   0.21339   0.00000  Uiso   1.00
C16    C     0.89820   0.17772   0.18391   0.00000  Uiso   1.00
C17    C     0.95078   0.08915   0.15446   0.00000  Uiso   1.00
C18    C     0.14610   0.47933   0.18864   0.00000  Uiso   1.00
C19    C     0.09456   0.57031   0.13837   0.00000  Uiso   1.00
C20    C     0.23693   0.66128   0.08809   0.00000  Uiso   1.00
C21    C     0.09053   0.36823   0.34316   0.00000  Uiso   1.00
C22    C     0.99227   0.36583   0.42279   0.00000  Uiso   1.00
C23    C     0.08789   0.36330   0.50260   0.00000  Uiso   1.00
H24    H     0.50352   0.37096   0.24853   0.00000  Uiso   1.00
H25    H     0.42419   0.17744   0.18409   0.00000  Uiso   1.00
H26    H     0.62051   0.56997   0.13856   0.00000  Uiso   1.00
H27    H     0.51824   0.36552   0.42294   0.00000  Uiso   1.00
H28    H     0.25372   0.96296   0.11259   0.00000  Uiso   1.00
H29    H     0.66769   0.79065   0.01661   0.00000  Uiso   1.00
H30    H     0.45205   0.35953   0.61628   0.00000  Uiso   1.00
H31    H     0.86764   0.37134   0.24832   0.00000  Uiso   1.00
H32    H     0.75340   0.17783   0.18387   0.00000  Uiso   1.00
H33    H     0.94974   0.57037   0.13834   0.00000  Uiso   1.00
H34    H     0.84747   0.36591   0.42272   0.00000  Uiso   1.00
H35    H     0.70929   0.96328   0.11241   0.00000  Uiso   1.00
H36    H     0.12327   0.79098   0.01643   0.00000  Uiso   1.00
H37    H     0.90762   0.35985   0.61610   0.00000  Uiso   1.00
O38    O     0.91784   0.83584   0.07007   0.00000  Uiso   1.00
O39    O     0.46097   0.92175   0.94417   0.00000  Uiso   1.00
O40    O     0.17805   0.35611   0.73092   0.00000  Uiso   1.00
N41    N     0.14126   0.98958   0.12141   0.00000  Uiso   1.00
N42    N     0.52829   0.76341   0.03166   0.00000  Uiso   1.00
N43    N     0.32670   0.36038   0.59230   0.00000  Uiso   1.00
N44    N     0.84831   0.98975   0.12131   0.00000  Uiso   1.00
N45    N     0.23534   0.76359   0.03156   0.00000  Uiso   1.00
N46    N     0.03375   0.36055   0.59220   0.00000  Uiso   1.00
C47    C     0.64217   0.62896   0.75151   0.00000  Uiso   1.00
C48    C     0.77345   0.73405   0.78654   0.00000  Uiso   1.00
C49    C     0.72064   0.82251   0.81596   0.00000  Uiso   1.00
C50    C     0.86175   0.91096   0.84548   0.00000  Uiso   1.00
C51    C     0.03712   0.07413   0.89991   0.00000  Uiso   1.00
C52    C     0.66678   0.52079   0.81130   0.00000  Uiso   1.00
C53    C     0.52429   0.42992   0.86151   0.00000  Uiso   1.00
C54    C     0.57561   0.33883   0.91185   0.00000  Uiso   1.00
C55    C     0.58536   0.17086   0.00465   0.00000  Uiso   1.00
C56    C     0.72235   0.63188   0.65678   0.00000  Uiso   1.00
C57    C     0.62656   0.63440   0.57708   0.00000  Uiso   1.00
C58    C     0.72465   0.63682   0.49733   0.00000  Uiso   1.00
C59    C     0.82067   0.64134   0.35024   0.00000  Uiso   1.00
C60    C     0.98667   0.62875   0.75163   0.00000  Uiso   1.00
C61    C     0.96057   0.73394   0.78661   0.00000  Uiso   1.00
C62    C     0.10180   0.82228   0.81609   0.00000  Uiso   1.00
C63    C     0.04922   0.91085   0.84554   0.00000  Uiso   1.00
C64    C     0.85390   0.52067   0.81136   0.00000  Uiso   1.00
C65    C     0.90544   0.42969   0.86163   0.00000  Uiso   1.00
C66    C     0.76307   0.33872   0.91191   0.00000  Uiso   1.00
C67    C     0.90947   0.63177   0.65684   0.00000  Uiso   1.00
C68    C     0.00773   0.63417   0.57721   0.00000  Uiso   1.00
C69    C     0.91211   0.63670   0.49740   0.00000  Uiso   1.00
H70    H     0.49648   0.62904   0.75147   0.00000  Uiso   1.00
H71    H     0.57581   0.82256   0.81591   0.00000  Uiso   1.00
H72    H     0.37949   0.43003   0.86144   0.00000  Uiso   1.00
H73    H     0.48176   0.63448   0.57706   0.00000  Uiso   1.00
H74    H     0.74628   0.03704   0.88741   0.00000  Uiso   1.00
H75    H     0.33231   0.20935   0.98339   0.00000  Uiso   1.00
H76    H     0.54795   0.64047   0.38372   0.00000  Uiso   1.00
H77    H     0.13236   0.62866   0.75168   0.00000  Uiso   1.00
H78    H     0.24660   0.82217   0.81613   0.00000  Uiso   1.00
H79    H     0.05026   0.42963   0.86166   0.00000  Uiso   1.00
H80    H     0.15253   0.63409   0.57728   0.00000  Uiso   1.00
H81    H     0.29071   0.03672   0.88759   0.00000  Uiso   1.00
H82    H     0.87673   0.20902   0.98357   0.00000  Uiso   1.00
H83    H     0.09238   0.64015   0.38390   0.00000  Uiso   1.00
O84    O     0.08216   0.16416   0.92993   0.00000  Uiso   1.00
O85    O     0.53903   0.07825   0.05583   0.00000  Uiso   1.00
O86    O     0.82195   0.64389   0.26908   0.00000  Uiso   1.00
N87    N     0.85874   0.01042   0.87859   0.00000  Uiso   1.00
N88    N     0.47171   0.23659   0.96834   0.00000  Uiso   1.00
N89    N     0.67330   0.63962   0.40770   0.00000  Uiso   1.00
N90    N     0.15169   0.01025   0.87869   0.00000  Uiso   1.00
N91    N     0.76466   0.23641   0.96844   0.00000  Uiso   1.00
N92    N     0.96625   0.63945   0.40780   0.00000  Uiso   1.00
