data_job_04808
_audit_creation_date              2018-12-19
_audit_creation_method            'Materials Studio'
_symmetry_space_group_name_H-M    'P1'
_symmetry_Int_Tables_number       1
_symmetry_cell_setting            triclinic
loop_
_symmetry_equiv_pos_as_xyz
  x,y,z
_cell_length_a                    17.1532
_cell_length_b                    19.6833
_cell_length_c                    22.8896
_cell_angle_alpha                 90.0000
_cell_angle_beta                  141.5387
_cell_angle_gamma                 90.0000
loop_
_atom_site_label
_atom_site_type_symbol
_atom_site_fract_x
_atom_site_fract_y
_atom_site_fract_z
_atom_site_U_iso_or_equiv
_atom_site_adp_type
_atom_site_occupancy
C1     C     0.32312   0.20010   0.65696   0.00000  Uiso   1.00
C2     C     0.45670   0.19083   0.71302   0.00000  Uiso   1.00
C3     C     0.49124   0.15546   0.68337   0.00000  Uiso   1.00
C4     C     0.61828   0.15282   0.74497   0.00000  Uiso   1.00
C5     C     0.81213   0.13359   0.81865   0.00000  Uiso   1.00
C6     C     0.32238   0.17279   0.71887   0.00000  Uiso   1.00
C7     C     0.24396   0.12226   0.69412   0.00000  Uiso   1.00
C8     C     0.25792   0.10444   0.76064   0.00000  Uiso   1.00
C9     C     0.24318   0.05723   0.84337   0.00000  Uiso   1.00
C10    C     0.30281   0.27656   0.65009   0.00000  Uiso   1.00
C11    C     0.20792   0.31328   0.56753   0.00000  Uiso   1.00
C12    C     0.20538   0.38282   0.57614   0.00000  Uiso   1.00
C13    C     0.16025   0.49673   0.55208   0.00000  Uiso   1.00
C14    C     0.48732   0.25830   0.81908   0.00000  Uiso   1.00
C15    C     0.54588   0.22244   0.80108   0.00000  Uiso   1.00
C16    C     0.67290   0.21985   0.86274   0.00000  Uiso   1.00
C17    C     0.70762   0.18449   0.83319   0.00000  Uiso   1.00
C18    C     0.41156   0.20440   0.80692   0.00000  Uiso   1.00
C19    C     0.42563   0.18665   0.87349   0.00000  Uiso   1.00
C20    C     0.34727   0.13610   0.84886   0.00000  Uiso   1.00
C21    C     0.39199   0.30818   0.73815   0.00000  Uiso   1.00
C22    C     0.38959   0.37767   0.74690   0.00000  Uiso   1.00
C23    C     0.29473   0.41449   0.66436   0.00000  Uiso   1.00
H24    H     0.25368   0.17549   0.58841   0.00000  Uiso   1.00
H25    H     0.42219   0.13100   0.61523   0.00000  Uiso   1.00
H26    H     0.17495   0.09781   0.62597   0.00000  Uiso   1.00
H27    H     0.13892   0.28880   0.49940   0.00000  Uiso   1.00
H28    H     0.64835   0.09560   0.68381   0.00000  Uiso   1.00
H29    H     0.12700   0.02563   0.70645   0.00000  Uiso   1.00
H30    H     0.05101   0.42837   0.43954   0.00000  Uiso   1.00
H31    H     0.55675   0.28291   0.88764   0.00000  Uiso   1.00
H32    H     0.74190   0.24432   0.93088   0.00000  Uiso   1.00
H33    H     0.49465   0.21113   0.94163   0.00000  Uiso   1.00
H34    H     0.45862   0.40212   0.81505   0.00000  Uiso   1.00
H35    H     0.90783   0.18757   0.94001   0.00000  Uiso   1.00
H36    H     0.38648   0.11760   0.96265   0.00000  Uiso   1.00
H37    H     0.31050   0.52034   0.69574   0.00000  Uiso   1.00
O38    O     0.89442   0.11424   0.83497   0.00000  Uiso   1.00
O39    O     0.21041   0.02245   0.86467   0.00000  Uiso   1.00
O40    O     0.11073   0.55084   0.51449   0.00000  Uiso   1.00
N41    N     0.68401   0.12255   0.73816   0.00000  Uiso   1.00
N42    N     0.19659   0.05713   0.75934   0.00000  Uiso   1.00
N43    N     0.12553   0.43365   0.50980   0.00000  Uiso   1.00
N44    N     0.82364   0.17204   0.87602   0.00000  Uiso   1.00
N45    N     0.33622   0.10662   0.89720   0.00000  Uiso   1.00
N46    N     0.26516   0.48314   0.64766   0.00000  Uiso   1.00
C47    C     0.12744   0.84536   0.81852   0.00000  Uiso   1.00
C48    C     0.14694   0.84903   0.76404   0.00000  Uiso   1.00
C49    C     0.24785   0.87927   0.79520   0.00000  Uiso   1.00
C50    C     0.24841   0.87727   0.73490   0.00000  Uiso   1.00
C51    C     0.29340   0.88772   0.66371   0.00000  Uiso   1.00
C52    C     0.99994   0.87761   0.75543   0.00000  Uiso   1.00
C53    C     0.97725   0.93188   0.77936   0.00000  Uiso   1.00
C54    C     0.85406   0.95394   0.71181   0.00000  Uiso   1.00
C55    C     0.67082   0.00874   0.62728   0.00000  Uiso   1.00
C56    C     0.11315   0.77017   0.82473   0.00000  Uiso   1.00
C57    C     0.18562   0.73411   0.90693   0.00000  Uiso   1.00
C58    C     0.15773   0.66572   0.89772   0.00000  Uiso   1.00
C59    C     0.15026   0.55371   0.92080   0.00000  Uiso   1.00
C60    C     0.94899   0.78803   0.65603   0.00000  Uiso   1.00
C61    C     0.05001   0.81789   0.67578   0.00000  Uiso   1.00
C62    C     0.05042   0.81584   0.61542   0.00000  Uiso   1.00
C63    C     0.15131   0.84607   0.64648   0.00000  Uiso   1.00
C64    C     0.90301   0.84647   0.66717   0.00000  Uiso   1.00
C65    C     0.77982   0.86845   0.59958   0.00000  Uiso   1.00
C66    C     0.75696   0.92274   0.62339   0.00000  Uiso   1.00
C67    C     0.01622   0.73903   0.73647   0.00000  Uiso   1.00
C68    C     0.98820   0.67068   0.72714   0.00000  Uiso   1.00
C69    C     0.06062   0.63452   0.80930   0.00000  Uiso   1.00
H70    H     0.20289   0.86961   0.88724   0.00000  Uiso   1.00
H71    H     0.32283   0.90337   0.86351   0.00000  Uiso   1.00
H72    H     0.05228   0.95596   0.84767   0.00000  Uiso   1.00
H73    H     0.26062   0.75823   0.97522   0.00000  Uiso   1.00
H74    H     0.41304   0.92708   0.79826   0.00000  Uiso   1.00
H75    H     0.84256   0.03797   0.76488   0.00000  Uiso   1.00
H76    H     0.28189   0.62100   0.03384   0.00000  Uiso   1.00
H77    H     0.87352   0.76379   0.58731   0.00000  Uiso   1.00
H78    H     0.97539   0.79174   0.54712   0.00000  Uiso   1.00
H79    H     0.70484   0.84434   0.53128   0.00000  Uiso   1.00
H80    H     0.91318   0.64660   0.65883   0.00000  Uiso   1.00
H81    H     0.13105   0.83648   0.54146   0.00000  Uiso   1.00
H82    H     0.56056   0.94737   0.50809   0.00000  Uiso   1.00
H83    H     0.99989   0.53040   0.77704   0.00000  Uiso   1.00
O84    O     0.34498   0.90210   0.64882   0.00000  Uiso   1.00
O85    O     0.59652   0.04757   0.60504   0.00000  Uiso   1.00
O86    O     0.17292   0.50052   0.95790   0.00000  Uiso   1.00
N87    N     0.33271   0.90191   0.74334   0.00000  Uiso   1.00
N88    N     0.79934   0.00560   0.71213   0.00000  Uiso   1.00
N89    N     0.21006   0.61577   0.96358   0.00000  Uiso   1.00
N90    N     0.18097   0.85316   0.60516   0.00000  Uiso   1.00
N91    N     0.64760   0.95684   0.57396   0.00000  Uiso   1.00
N92    N     0.05832   0.56702   0.82541   0.00000  Uiso   1.00
C93    C     0.67688   0.70010   0.84304   0.00000  Uiso   1.00
C94    C     0.54330   0.69083   0.78698   0.00000  Uiso   1.00
C95    C     0.50876   0.65546   0.81663   0.00000  Uiso   1.00
C96    C     0.38172   0.65282   0.75503   0.00000  Uiso   1.00
C97    C     0.18787   0.63359   0.68135   0.00000  Uiso   1.00
C98    C     0.67762   0.67279   0.78113   0.00000  Uiso   1.00
C99    C     0.75604   0.62226   0.80588   0.00000  Uiso   1.00
C100   C     0.74208   0.60444   0.73936   0.00000  Uiso   1.00
C101   C     0.75682   0.55723   0.65663   0.00000  Uiso   1.00
C102   C     0.69719   0.77656   0.84991   0.00000  Uiso   1.00
C103   C     0.79208   0.81328   0.93247   0.00000  Uiso   1.00
C104   C     0.79462   0.88282   0.92386   0.00000  Uiso   1.00
C105   C     0.83975   0.99673   0.94792   0.00000  Uiso   1.00
C106   C     0.51268   0.75830   0.68092   0.00000  Uiso   1.00
C107   C     0.45412   0.72244   0.69892   0.00000  Uiso   1.00
C108   C     0.32710   0.71985   0.63726   0.00000  Uiso   1.00
C109   C     0.29238   0.68449   0.66681   0.00000  Uiso   1.00
C110   C     0.58844   0.70440   0.69308   0.00000  Uiso   1.00
C111   C     0.57437   0.68665   0.62651   0.00000  Uiso   1.00
C112   C     0.65273   0.63610   0.65114   0.00000  Uiso   1.00
C113   C     0.60801   0.80818   0.76185   0.00000  Uiso   1.00
C114   C     0.61041   0.87767   0.75310   0.00000  Uiso   1.00
C115   C     0.70527   0.91449   0.83564   0.00000  Uiso   1.00
H116   H     0.74632   0.67549   0.91159   0.00000  Uiso   1.00
H117   H     0.57781   0.63100   0.88477   0.00000  Uiso   1.00
H118   H     0.82505   0.59781   0.87403   0.00000  Uiso   1.00
H119   H     0.86108   0.78880   0.00060   0.00000  Uiso   1.00
H120   H     0.35165   0.59560   0.81619   0.00000  Uiso   1.00
H121   H     0.87300   0.52563   0.79355   0.00000  Uiso   1.00
H122   H     0.94899   0.92837   0.06046   0.00000  Uiso   1.00
H123   H     0.44325   0.78291   0.61236   0.00000  Uiso   1.00
H124   H     0.25810   0.74432   0.56912   0.00000  Uiso   1.00
H125   H     0.50535   0.71113   0.55837   0.00000  Uiso   1.00
H126   H     0.54138   0.90212   0.68495   0.00000  Uiso   1.00
H127   H     0.09217   0.68757   0.55999   0.00000  Uiso   1.00
H128   H     0.61352   0.61760   0.53735   0.00000  Uiso   1.00
H129   H     0.68950   0.02034   0.80426   0.00000  Uiso   1.00
O130   O     0.10558   0.61424   0.66503   0.00000  Uiso   1.00
O131   O     0.78959   0.52245   0.63533   0.00000  Uiso   1.00
O132   O     0.88927   0.05084   0.98551   0.00000  Uiso   1.00
N133   N     0.31599   0.62255   0.76184   0.00000  Uiso   1.00
N134   N     0.80341   0.55713   0.74066   0.00000  Uiso   1.00
N135   N     0.87447   0.93365   0.99020   0.00000  Uiso   1.00
N136   N     0.17636   0.67204   0.62398   0.00000  Uiso   1.00
N137   N     0.66378   0.60662   0.60280   0.00000  Uiso   1.00
N138   N     0.73484   0.98314   0.85234   0.00000  Uiso   1.00
C139   C     0.87256   0.34536   0.68148   0.00000  Uiso   1.00
C140   C     0.85306   0.34903   0.73596   0.00000  Uiso   1.00
C141   C     0.75215   0.37927   0.70480   0.00000  Uiso   1.00
C142   C     0.75159   0.37727   0.76510   0.00000  Uiso   1.00
C143   C     0.70660   0.38772   0.83629   0.00000  Uiso   1.00
C144   C     0.00006   0.37761   0.74457   0.00000  Uiso   1.00
C145   C     0.02275   0.43188   0.72064   0.00000  Uiso   1.00
C146   C     0.14594   0.45394   0.78819   0.00000  Uiso   1.00
C147   C     0.32918   0.50874   0.87272   0.00000  Uiso   1.00
C148   C     0.88685   0.27017   0.67527   0.00000  Uiso   1.00
C149   C     0.81438   0.23411   0.59307   0.00000  Uiso   1.00
C150   C     0.84227   0.16572   0.60228   0.00000  Uiso   1.00
C151   C     0.84974   0.05371   0.57920   0.00000  Uiso   1.00
C152   C     0.05101   0.28803   0.84397   0.00000  Uiso   1.00
C153   C     0.94999   0.31789   0.82422   0.00000  Uiso   1.00
C154   C     0.94958   0.31584   0.88458   0.00000  Uiso   1.00
C155   C     0.84869   0.34607   0.85352   0.00000  Uiso   1.00
C156   C     0.09699   0.34647   0.83283   0.00000  Uiso   1.00
C157   C     0.22018   0.36845   0.90042   0.00000  Uiso   1.00
C158   C     0.24304   0.42274   0.87661   0.00000  Uiso   1.00
C159   C     0.98378   0.23903   0.76353   0.00000  Uiso   1.00
C160   C     0.01180   0.17068   0.77286   0.00000  Uiso   1.00
C161   C     0.93938   0.13452   0.69070   0.00000  Uiso   1.00
H162   H     0.79711   0.36961   0.61276   0.00000  Uiso   1.00
H163   H     0.67717   0.40337   0.63649   0.00000  Uiso   1.00
H164   H     0.94772   0.45596   0.65233   0.00000  Uiso   1.00
H165   H     0.73938   0.25823   0.52478   0.00000  Uiso   1.00
H166   H     0.58696   0.42708   0.70174   0.00000  Uiso   1.00
H167   H     0.15744   0.53797   0.73512   0.00000  Uiso   1.00
H168   H     0.71811   0.12100   0.46616   0.00000  Uiso   1.00
H169   H     0.12648   0.26379   0.91269   0.00000  Uiso   1.00
H170   H     0.02461   0.29174   0.95288   0.00000  Uiso   1.00
H171   H     0.29516   0.34434   0.96872   0.00000  Uiso   1.00
H172   H     0.08682   0.14660   0.84117   0.00000  Uiso   1.00
H173   H     0.86895   0.33648   0.95854   0.00000  Uiso   1.00
H174   H     0.43944   0.44737   0.99191   0.00000  Uiso   1.00
H175   H     0.00011   0.03040   0.72296   0.00000  Uiso   1.00
O176   O     0.65502   0.40210   0.85118   0.00000  Uiso   1.00
O177   O     0.40348   0.54757   0.89496   0.00000  Uiso   1.00
O178   O     0.82708   0.00052   0.54210   0.00000  Uiso   1.00
N179   N     0.66729   0.40191   0.75666   0.00000  Uiso   1.00
N180   N     0.20066   0.50560   0.78787   0.00000  Uiso   1.00
N181   N     0.78994   0.11577   0.53642   0.00000  Uiso   1.00
N182   N     0.81903   0.35316   0.89484   0.00000  Uiso   1.00
N183   N     0.35240   0.45684   0.92604   0.00000  Uiso   1.00
N184   N     0.94168   0.06702   0.67459   0.00000  Uiso   1.00
C185   C     0.67688   0.79990   0.34304   0.00000  Uiso   1.00
C186   C     0.54330   0.80917   0.28698   0.00000  Uiso   1.00
C187   C     0.50876   0.84454   0.31663   0.00000  Uiso   1.00
C188   C     0.38172   0.84718   0.25503   0.00000  Uiso   1.00
C189   C     0.18787   0.86641   0.18135   0.00000  Uiso   1.00
C190   C     0.67762   0.82721   0.28113   0.00000  Uiso   1.00
C191   C     0.75604   0.87774   0.30588   0.00000  Uiso   1.00
C192   C     0.74208   0.89556   0.23936   0.00000  Uiso   1.00
C193   C     0.75682   0.94277   0.15663   0.00000  Uiso   1.00
C194   C     0.69719   0.72344   0.34991   0.00000  Uiso   1.00
C195   C     0.79208   0.68672   0.43247   0.00000  Uiso   1.00
C196   C     0.79462   0.61718   0.42386   0.00000  Uiso   1.00
C197   C     0.83975   0.50327   0.44792   0.00000  Uiso   1.00
C198   C     0.51268   0.74170   0.18092   0.00000  Uiso   1.00
C199   C     0.45412   0.77756   0.19892   0.00000  Uiso   1.00
C200   C     0.32710   0.78015   0.13726   0.00000  Uiso   1.00
C201   C     0.29238   0.81551   0.16681   0.00000  Uiso   1.00
C202   C     0.58844   0.79560   0.19308   0.00000  Uiso   1.00
C203   C     0.57437   0.81335   0.12651   0.00000  Uiso   1.00
C204   C     0.65273   0.86390   0.15114   0.00000  Uiso   1.00
C205   C     0.60801   0.69182   0.26185   0.00000  Uiso   1.00
C206   C     0.61041   0.62233   0.25310   0.00000  Uiso   1.00
C207   C     0.70527   0.58551   0.33564   0.00000  Uiso   1.00
H208   H     0.74632   0.82451   0.41159   0.00000  Uiso   1.00
H209   H     0.57781   0.86900   0.38477   0.00000  Uiso   1.00
H210   H     0.82505   0.90219   0.37403   0.00000  Uiso   1.00
H211   H     0.86108   0.71120   0.50060   0.00000  Uiso   1.00
H212   H     0.35165   0.90440   0.31619   0.00000  Uiso   1.00
H213   H     0.87300   0.97437   0.29355   0.00000  Uiso   1.00
H214   H     0.94899   0.57163   0.56046   0.00000  Uiso   1.00
H215   H     0.44325   0.71709   0.11236   0.00000  Uiso   1.00
H216   H     0.25810   0.75568   0.06912   0.00000  Uiso   1.00
H217   H     0.50535   0.78887   0.05837   0.00000  Uiso   1.00
H218   H     0.54138   0.59788   0.18495   0.00000  Uiso   1.00
H219   H     0.09217   0.81243   0.05999   0.00000  Uiso   1.00
H220   H     0.61352   0.88240   0.03735   0.00000  Uiso   1.00
H221   H     0.68950   0.47966   0.30426   0.00000  Uiso   1.00
O222   O     0.10558   0.88576   0.16503   0.00000  Uiso   1.00
O223   O     0.78959   0.97755   0.13533   0.00000  Uiso   1.00
O224   O     0.88927   0.44916   0.48551   0.00000  Uiso   1.00
N225   N     0.31599   0.87745   0.26184   0.00000  Uiso   1.00
N226   N     0.80341   0.94287   0.24066   0.00000  Uiso   1.00
N227   N     0.87447   0.56635   0.49020   0.00000  Uiso   1.00
N228   N     0.17636   0.82796   0.12398   0.00000  Uiso   1.00
N229   N     0.66378   0.89338   0.10280   0.00000  Uiso   1.00
N230   N     0.73484   0.51686   0.35234   0.00000  Uiso   1.00
C231   C     0.87256   0.15464   0.18148   0.00000  Uiso   1.00
C232   C     0.85306   0.15097   0.23596   0.00000  Uiso   1.00
C233   C     0.75215   0.12073   0.20480   0.00000  Uiso   1.00
C234   C     0.75159   0.12273   0.26510   0.00000  Uiso   1.00
C235   C     0.70660   0.11228   0.33629   0.00000  Uiso   1.00
C236   C     0.00006   0.12239   0.24457   0.00000  Uiso   1.00
C237   C     0.02275   0.06812   0.22064   0.00000  Uiso   1.00
C238   C     0.14594   0.04606   0.28819   0.00000  Uiso   1.00
C239   C     0.32918   0.99126   0.37272   0.00000  Uiso   1.00
C240   C     0.88685   0.22983   0.17527   0.00000  Uiso   1.00
C241   C     0.81438   0.26589   0.09307   0.00000  Uiso   1.00
C242   C     0.84227   0.33428   0.10228   0.00000  Uiso   1.00
C243   C     0.84974   0.44629   0.07920   0.00000  Uiso   1.00
C244   C     0.05101   0.21197   0.34397   0.00000  Uiso   1.00
C245   C     0.94999   0.18211   0.32422   0.00000  Uiso   1.00
C246   C     0.94958   0.18416   0.38458   0.00000  Uiso   1.00
C247   C     0.84869   0.15393   0.35352   0.00000  Uiso   1.00
C248   C     0.09699   0.15353   0.33283   0.00000  Uiso   1.00
C249   C     0.22018   0.13155   0.40042   0.00000  Uiso   1.00
C250   C     0.24304   0.07726   0.37661   0.00000  Uiso   1.00
C251   C     0.98378   0.26097   0.26353   0.00000  Uiso   1.00
C252   C     0.01180   0.32932   0.27286   0.00000  Uiso   1.00
C253   C     0.93938   0.36548   0.19070   0.00000  Uiso   1.00
H254   H     0.79711   0.13039   0.11276   0.00000  Uiso   1.00
H255   H     0.67717   0.09663   0.13649   0.00000  Uiso   1.00
H256   H     0.94772   0.04404   0.15233   0.00000  Uiso   1.00
H257   H     0.73938   0.24177   0.02478   0.00000  Uiso   1.00
H258   H     0.58696   0.07292   0.20174   0.00000  Uiso   1.00
H259   H     0.15744   0.96203   0.23512   0.00000  Uiso   1.00
H260   H     0.71811   0.37900   0.96616   0.00000  Uiso   1.00
H261   H     0.12648   0.23621   0.41269   0.00000  Uiso   1.00
H262   H     0.02461   0.20826   0.45288   0.00000  Uiso   1.00
H263   H     0.29516   0.15566   0.46872   0.00000  Uiso   1.00
H264   H     0.08682   0.35340   0.34117   0.00000  Uiso   1.00
H265   H     0.86895   0.16352   0.45854   0.00000  Uiso   1.00
H266   H     0.43944   0.05263   0.49191   0.00000  Uiso   1.00
H267   H     0.00011   0.46960   0.22296   0.00000  Uiso   1.00
O268   O     0.65502   0.09790   0.35118   0.00000  Uiso   1.00
O269   O     0.40348   0.95243   0.39496   0.00000  Uiso   1.00
O270   O     0.82708   0.49948   0.04210   0.00000  Uiso   1.00
N271   N     0.66729   0.09809   0.25666   0.00000  Uiso   1.00
N272   N     0.20066   0.99440   0.28787   0.00000  Uiso   1.00
N273   N     0.78994   0.38423   0.03642   0.00000  Uiso   1.00
N274   N     0.81903   0.14684   0.39484   0.00000  Uiso   1.00
N275   N     0.35240   0.04316   0.42604   0.00000  Uiso   1.00
N276   N     0.94168   0.43298   0.17459   0.00000  Uiso   1.00
C277   C     0.32312   0.29990   0.15696   0.00000  Uiso   1.00
C278   C     0.45670   0.30917   0.21302   0.00000  Uiso   1.00
C279   C     0.49124   0.34454   0.18337   0.00000  Uiso   1.00
C280   C     0.61828   0.34718   0.24497   0.00000  Uiso   1.00
C281   C     0.81213   0.36641   0.31865   0.00000  Uiso   1.00
C282   C     0.32238   0.32721   0.21887   0.00000  Uiso   1.00
C283   C     0.24396   0.37774   0.19412   0.00000  Uiso   1.00
C284   C     0.25792   0.39556   0.26064   0.00000  Uiso   1.00
C285   C     0.24318   0.44277   0.34337   0.00000  Uiso   1.00
C286   C     0.30281   0.22344   0.15009   0.00000  Uiso   1.00
C287   C     0.20792   0.18672   0.06753   0.00000  Uiso   1.00
C288   C     0.20538   0.11718   0.07614   0.00000  Uiso   1.00
C289   C     0.16025   0.00327   0.05208   0.00000  Uiso   1.00
C290   C     0.48732   0.24170   0.31908   0.00000  Uiso   1.00
C291   C     0.54588   0.27756   0.30108   0.00000  Uiso   1.00
C292   C     0.67290   0.28015   0.36274   0.00000  Uiso   1.00
C293   C     0.70762   0.31551   0.33319   0.00000  Uiso   1.00
C294   C     0.41156   0.29560   0.30692   0.00000  Uiso   1.00
C295   C     0.42563   0.31335   0.37349   0.00000  Uiso   1.00
C296   C     0.34727   0.36390   0.34886   0.00000  Uiso   1.00
C297   C     0.39199   0.19182   0.23815   0.00000  Uiso   1.00
C298   C     0.38959   0.12233   0.24690   0.00000  Uiso   1.00
C299   C     0.29473   0.08551   0.16436   0.00000  Uiso   1.00
H300   H     0.25368   0.32451   0.08841   0.00000  Uiso   1.00
H301   H     0.42219   0.36900   0.11523   0.00000  Uiso   1.00
H302   H     0.17495   0.40219   0.12597   0.00000  Uiso   1.00
H303   H     0.13892   0.21120   0.99940   0.00000  Uiso   1.00
H304   H     0.64835   0.40440   0.18381   0.00000  Uiso   1.00
H305   H     0.12700   0.47437   0.20645   0.00000  Uiso   1.00
H306   H     0.05101   0.07163   0.93954   0.00000  Uiso   1.00
H307   H     0.55675   0.21709   0.38764   0.00000  Uiso   1.00
H308   H     0.74190   0.25568   0.43088   0.00000  Uiso   1.00
H309   H     0.49465   0.28887   0.44163   0.00000  Uiso   1.00
H310   H     0.45862   0.09788   0.31505   0.00000  Uiso   1.00
H311   H     0.90783   0.31243   0.44001   0.00000  Uiso   1.00
H312   H     0.38648   0.38240   0.46265   0.00000  Uiso   1.00
H313   H     0.31050   0.97966   0.19574   0.00000  Uiso   1.00
O314   O     0.89442   0.38576   0.33497   0.00000  Uiso   1.00
O315   O     0.21041   0.47755   0.36467   0.00000  Uiso   1.00
O316   O     0.11073   0.94916   0.01449   0.00000  Uiso   1.00
N317   N     0.68401   0.37745   0.23816   0.00000  Uiso   1.00
N318   N     0.19659   0.44287   0.25934   0.00000  Uiso   1.00
N319   N     0.12553   0.06635   0.00980   0.00000  Uiso   1.00
N320   N     0.82364   0.32796   0.37602   0.00000  Uiso   1.00
N321   N     0.33622   0.39338   0.39720   0.00000  Uiso   1.00
N322   N     0.26516   0.01686   0.14766   0.00000  Uiso   1.00
C323   C     0.12744   0.65464   0.31852   0.00000  Uiso   1.00
C324   C     0.14694   0.65097   0.26404   0.00000  Uiso   1.00
C325   C     0.24785   0.62073   0.29520   0.00000  Uiso   1.00
C326   C     0.24841   0.62273   0.23490   0.00000  Uiso   1.00
C327   C     0.29340   0.61228   0.16371   0.00000  Uiso   1.00
C328   C     0.99994   0.62239   0.25543   0.00000  Uiso   1.00
C329   C     0.97725   0.56812   0.27936   0.00000  Uiso   1.00
C330   C     0.85406   0.54606   0.21181   0.00000  Uiso   1.00
C331   C     0.67082   0.49126   0.12728   0.00000  Uiso   1.00
C332   C     0.11315   0.72983   0.32473   0.00000  Uiso   1.00
C333   C     0.18562   0.76589   0.40693   0.00000  Uiso   1.00
C334   C     0.15773   0.83428   0.39772   0.00000  Uiso   1.00
C335   C     0.15026   0.94629   0.42080   0.00000  Uiso   1.00
C336   C     0.94899   0.71197   0.15603   0.00000  Uiso   1.00
C337   C     0.05001   0.68211   0.17578   0.00000  Uiso   1.00
C338   C     0.05042   0.68416   0.11542   0.00000  Uiso   1.00
C339   C     0.15131   0.65393   0.14648   0.00000  Uiso   1.00
C340   C     0.90301   0.65353   0.16717   0.00000  Uiso   1.00
C341   C     0.77982   0.63155   0.09958   0.00000  Uiso   1.00
C342   C     0.75696   0.57726   0.12339   0.00000  Uiso   1.00
C343   C     0.01622   0.76097   0.23647   0.00000  Uiso   1.00
C344   C     0.98820   0.82932   0.22714   0.00000  Uiso   1.00
C345   C     0.06062   0.86548   0.30930   0.00000  Uiso   1.00
H346   H     0.20289   0.63039   0.38724   0.00000  Uiso   1.00
H347   H     0.32283   0.59663   0.36351   0.00000  Uiso   1.00
H348   H     0.05228   0.54404   0.34767   0.00000  Uiso   1.00
H349   H     0.26062   0.74177   0.47522   0.00000  Uiso   1.00
H350   H     0.41304   0.57292   0.29826   0.00000  Uiso   1.00
H351   H     0.84256   0.46203   0.26488   0.00000  Uiso   1.00
H352   H     0.28189   0.87900   0.53384   0.00000  Uiso   1.00
H353   H     0.87352   0.73621   0.08731   0.00000  Uiso   1.00
H354   H     0.97539   0.70826   0.04712   0.00000  Uiso   1.00
H355   H     0.70484   0.65566   0.03128   0.00000  Uiso   1.00
H356   H     0.91318   0.85340   0.15883   0.00000  Uiso   1.00
H357   H     0.13105   0.66352   0.04146   0.00000  Uiso   1.00
H358   H     0.56056   0.55263   0.00809   0.00000  Uiso   1.00
H359   H     0.99989   0.96960   0.27704   0.00000  Uiso   1.00
O360   O     0.34498   0.59790   0.14882   0.00000  Uiso   1.00
O361   O     0.59652   0.45243   0.10504   0.00000  Uiso   1.00
O362   O     0.17292   0.99948   0.45790   0.00000  Uiso   1.00
N363   N     0.33271   0.59809   0.24334   0.00000  Uiso   1.00
N364   N     0.79934   0.49440   0.21213   0.00000  Uiso   1.00
N365   N     0.21006   0.88423   0.46358   0.00000  Uiso   1.00
N366   N     0.18097   0.64684   0.10516   0.00000  Uiso   1.00
N367   N     0.64760   0.54316   0.07396   0.00000  Uiso   1.00
N368   N     0.05832   0.93298   0.32541   0.00000  Uiso   1.00
