data_job_02696
_audit_creation_date              2018-12-19
_audit_creation_method            'Materials Studio'
_symmetry_space_group_name_H-M    'P1'
_symmetry_Int_Tables_number       1
_symmetry_cell_setting            triclinic
loop_
_symmetry_equiv_pos_as_xyz
  x,y,z
_cell_length_a                    17.8060
_cell_length_b                    17.4788
_cell_length_c                    12.4136
_cell_angle_alpha                 90.0000
_cell_angle_beta                  128.0320
_cell_angle_gamma                 90.0000
loop_
_atom_site_label
_atom_site_type_symbol
_atom_site_fract_x
_atom_site_fract_y
_atom_site_fract_z
_atom_site_U_iso_or_equiv
_atom_site_adp_type
_atom_site_occupancy
C1     C     0.32648   0.66024   0.85885   0.00000  Uiso   1.00
C2     C     0.38794   0.58851   0.92135   0.00000  Uiso   1.00
C3     C     0.35778   0.51430   0.87422   0.00000  Uiso   1.00
C4     C     0.42486   0.45651   0.94555   0.00000  Uiso   1.00
C5     C     0.50600   0.34270   0.02526   0.00000  Uiso   1.00
C6     C     0.33214   0.69900   0.97372   0.00000  Uiso   1.00
C7     C     0.25507   0.71771   0.97060   0.00000  Uiso   1.00
C8     C     0.27517   0.75294   0.08600   0.00000  Uiso   1.00
C9     C     0.26968   0.81072   0.24696   0.00000  Uiso   1.00
C10    C     0.37774   0.71332   0.82572   0.00000  Uiso   1.00
C11    C     0.33901   0.74408   0.69817   0.00000  Uiso   1.00
C12    C     0.39750   0.79138   0.68898   0.00000  Uiso   1.00
C13    C     0.46281   0.87139   0.62016   0.00000  Uiso   1.00
C14    C     0.49922   0.68957   0.06933   0.00000  Uiso   1.00
C15    C     0.48176   0.60444   0.03568   0.00000  Uiso   1.00
C16    C     0.54890   0.54675   0.10710   0.00000  Uiso   1.00
C17    C     0.51885   0.47247   0.06008   0.00000  Uiso   1.00
C18    C     0.42596   0.71493   0.08804   0.00000  Uiso   1.00
C19    C     0.44619   0.75016   0.20347   0.00000  Uiso   1.00
C20    C     0.36917   0.76890   0.20053   0.00000  Uiso   1.00
C21    C     0.47157   0.72925   0.94005   0.00000  Uiso   1.00
C22    C     0.53013   0.77652   0.93105   0.00000  Uiso   1.00
C23    C     0.49149   0.80734   0.80352   0.00000  Uiso   1.00
H24    H     0.25343   0.64784   0.76984   0.00000  Uiso   1.00
H25    H     0.28516   0.50199   0.78575   0.00000  Uiso   1.00
H26    H     0.18247   0.70538   0.88210   0.00000  Uiso   1.00
H27    H     0.26640   0.73174   0.60973   0.00000  Uiso   1.00
H28    H     0.36171   0.34732   0.85383   0.00000  Uiso   1.00
H29    H     0.14517   0.77618   0.05698   0.00000  Uiso   1.00
H30    H     0.32215   0.83177   0.48262   0.00000  Uiso   1.00
H31    H     0.57227   0.70198   0.15835   0.00000  Uiso   1.00
H32    H     0.62150   0.55910   0.19557   0.00000  Uiso   1.00
H33    H     0.51880   0.76248   0.29192   0.00000  Uiso   1.00
H34    H     0.60273   0.78884   0.01955   0.00000  Uiso   1.00
H35    H     0.63470   0.39366   0.18646   0.00000  Uiso   1.00
H36    H     0.41815   0.82253   0.38961   0.00000  Uiso   1.00
H37    H     0.59513   0.87812   0.81525   0.00000  Uiso   1.00
O38    O     0.52483   0.27552   0.03765   0.00000  Uiso   1.00
O39    O     0.24073   0.83819   0.30416   0.00000  Uiso   1.00
O40    O     0.47292   0.91111   0.55062   0.00000  Uiso   1.00
N41    N     0.41921   0.37783   0.92699   0.00000  Uiso   1.00
N42    N     0.21675   0.77879   0.11693   0.00000  Uiso   1.00
N43    N     0.38220   0.83078   0.57996   0.00000  Uiso   1.00
N44    N     0.56610   0.40277   0.10597   0.00000  Uiso   1.00
N45    N     0.36364   0.80372   0.29592   0.00000  Uiso   1.00
N46    N     0.52910   0.85571   0.75894   0.00000  Uiso   1.00
C47    C     0.82648   0.16024   0.85885   0.00000  Uiso   1.00
C48    C     0.88794   0.08851   0.92135   0.00000  Uiso   1.00
C49    C     0.85778   0.01430   0.87422   0.00000  Uiso   1.00
C50    C     0.92486   0.95651   0.94555   0.00000  Uiso   1.00
C51    C     0.00600   0.84270   0.02526   0.00000  Uiso   1.00
C52    C     0.83214   0.19900   0.97372   0.00000  Uiso   1.00
C53    C     0.75507   0.21771   0.97060   0.00000  Uiso   1.00
C54    C     0.77517   0.25294   0.08600   0.00000  Uiso   1.00
C55    C     0.76968   0.31072   0.24696   0.00000  Uiso   1.00
C56    C     0.87774   0.21332   0.82572   0.00000  Uiso   1.00
C57    C     0.83901   0.24408   0.69817   0.00000  Uiso   1.00
C58    C     0.89750   0.29138   0.68898   0.00000  Uiso   1.00
C59    C     0.96281   0.37139   0.62016   0.00000  Uiso   1.00
C60    C     0.99922   0.18957   0.06933   0.00000  Uiso   1.00
C61    C     0.98176   0.10444   0.03568   0.00000  Uiso   1.00
C62    C     0.04890   0.04675   0.10710   0.00000  Uiso   1.00
C63    C     0.01885   0.97247   0.06008   0.00000  Uiso   1.00
C64    C     0.92596   0.21493   0.08804   0.00000  Uiso   1.00
C65    C     0.94619   0.25016   0.20347   0.00000  Uiso   1.00
C66    C     0.86917   0.26890   0.20053   0.00000  Uiso   1.00
C67    C     0.97157   0.22925   0.94005   0.00000  Uiso   1.00
C68    C     0.03013   0.27652   0.93105   0.00000  Uiso   1.00
C69    C     0.99149   0.30734   0.80352   0.00000  Uiso   1.00
H70    H     0.75343   0.14784   0.76984   0.00000  Uiso   1.00
H71    H     0.78516   0.00199   0.78575   0.00000  Uiso   1.00
H72    H     0.68247   0.20538   0.88210   0.00000  Uiso   1.00
H73    H     0.76640   0.23174   0.60973   0.00000  Uiso   1.00
H74    H     0.86171   0.84732   0.85383   0.00000  Uiso   1.00
H75    H     0.64517   0.27618   0.05698   0.00000  Uiso   1.00
H76    H     0.82215   0.33177   0.48262   0.00000  Uiso   1.00
H77    H     0.07227   0.20198   0.15835   0.00000  Uiso   1.00
H78    H     0.12150   0.05910   0.19557   0.00000  Uiso   1.00
H79    H     0.01880   0.26248   0.29192   0.00000  Uiso   1.00
H80    H     0.10273   0.28884   0.01955   0.00000  Uiso   1.00
H81    H     0.13470   0.89366   0.18646   0.00000  Uiso   1.00
H82    H     0.91815   0.32253   0.38961   0.00000  Uiso   1.00
H83    H     0.09513   0.37812   0.81525   0.00000  Uiso   1.00
O84    O     0.02483   0.77552   0.03765   0.00000  Uiso   1.00
O85    O     0.74073   0.33819   0.30416   0.00000  Uiso   1.00
O86    O     0.97292   0.41111   0.55062   0.00000  Uiso   1.00
N87    N     0.91921   0.87783   0.92699   0.00000  Uiso   1.00
N88    N     0.71675   0.27879   0.11693   0.00000  Uiso   1.00
N89    N     0.88220   0.33078   0.57996   0.00000  Uiso   1.00
N90    N     0.06610   0.90277   0.10597   0.00000  Uiso   1.00
N91    N     0.86364   0.30372   0.29592   0.00000  Uiso   1.00
N92    N     0.02910   0.35571   0.75894   0.00000  Uiso   1.00
C93    C     0.32648   0.33976   0.35885   0.00000  Uiso   1.00
C94    C     0.38794   0.41149   0.42135   0.00000  Uiso   1.00
C95    C     0.35778   0.48570   0.37422   0.00000  Uiso   1.00
C96    C     0.42486   0.54349   0.44555   0.00000  Uiso   1.00
C97    C     0.50600   0.65730   0.52526   0.00000  Uiso   1.00
C98    C     0.33214   0.30100   0.47372   0.00000  Uiso   1.00
C99    C     0.25507   0.28229   0.47060   0.00000  Uiso   1.00
C100   C     0.27517   0.24706   0.58600   0.00000  Uiso   1.00
C101   C     0.26968   0.18928   0.74696   0.00000  Uiso   1.00
C102   C     0.37774   0.28668   0.32572   0.00000  Uiso   1.00
C103   C     0.33901   0.25592   0.19817   0.00000  Uiso   1.00
C104   C     0.39750   0.20862   0.18898   0.00000  Uiso   1.00
C105   C     0.46281   0.12861   0.12016   0.00000  Uiso   1.00
C106   C     0.49922   0.31043   0.56933   0.00000  Uiso   1.00
C107   C     0.48176   0.39556   0.53568   0.00000  Uiso   1.00
C108   C     0.54890   0.45325   0.60710   0.00000  Uiso   1.00
C109   C     0.51885   0.52753   0.56008   0.00000  Uiso   1.00
C110   C     0.42596   0.28507   0.58804   0.00000  Uiso   1.00
C111   C     0.44619   0.24984   0.70347   0.00000  Uiso   1.00
C112   C     0.36917   0.23110   0.70053   0.00000  Uiso   1.00
C113   C     0.47157   0.27075   0.44005   0.00000  Uiso   1.00
C114   C     0.53013   0.22348   0.43105   0.00000  Uiso   1.00
C115   C     0.49149   0.19266   0.30352   0.00000  Uiso   1.00
H116   H     0.25343   0.35216   0.26984   0.00000  Uiso   1.00
H117   H     0.28516   0.49801   0.28575   0.00000  Uiso   1.00
H118   H     0.18247   0.29462   0.38210   0.00000  Uiso   1.00
H119   H     0.26640   0.26826   0.10973   0.00000  Uiso   1.00
H120   H     0.36171   0.65268   0.35383   0.00000  Uiso   1.00
H121   H     0.14517   0.22382   0.55698   0.00000  Uiso   1.00
H122   H     0.32215   0.16823   0.98262   0.00000  Uiso   1.00
H123   H     0.57227   0.29802   0.65835   0.00000  Uiso   1.00
H124   H     0.62150   0.44090   0.69557   0.00000  Uiso   1.00
H125   H     0.51880   0.23752   0.79192   0.00000  Uiso   1.00
H126   H     0.60273   0.21116   0.51955   0.00000  Uiso   1.00
H127   H     0.63470   0.60634   0.68646   0.00000  Uiso   1.00
H128   H     0.41815   0.17747   0.88961   0.00000  Uiso   1.00
H129   H     0.59513   0.12188   0.31525   0.00000  Uiso   1.00
O130   O     0.52483   0.72448   0.53765   0.00000  Uiso   1.00
O131   O     0.24073   0.16181   0.80416   0.00000  Uiso   1.00
O132   O     0.47292   0.08889   0.05062   0.00000  Uiso   1.00
N133   N     0.41921   0.62217   0.42699   0.00000  Uiso   1.00
N134   N     0.21675   0.22121   0.61693   0.00000  Uiso   1.00
N135   N     0.38220   0.16922   0.07996   0.00000  Uiso   1.00
N136   N     0.56610   0.59723   0.60597   0.00000  Uiso   1.00
N137   N     0.36364   0.19628   0.79592   0.00000  Uiso   1.00
N138   N     0.52910   0.14429   0.25894   0.00000  Uiso   1.00
C139   C     0.82648   0.83976   0.35885   0.00000  Uiso   1.00
C140   C     0.88794   0.91149   0.42135   0.00000  Uiso   1.00
C141   C     0.85778   0.98570   0.37422   0.00000  Uiso   1.00
C142   C     0.92486   0.04349   0.44555   0.00000  Uiso   1.00
C143   C     0.00600   0.15730   0.52526   0.00000  Uiso   1.00
C144   C     0.83214   0.80100   0.47372   0.00000  Uiso   1.00
C145   C     0.75507   0.78229   0.47060   0.00000  Uiso   1.00
C146   C     0.77517   0.74706   0.58600   0.00000  Uiso   1.00
C147   C     0.76968   0.68928   0.74696   0.00000  Uiso   1.00
C148   C     0.87774   0.78668   0.32572   0.00000  Uiso   1.00
C149   C     0.83901   0.75592   0.19817   0.00000  Uiso   1.00
C150   C     0.89750   0.70862   0.18898   0.00000  Uiso   1.00
C151   C     0.96281   0.62861   0.12016   0.00000  Uiso   1.00
C152   C     0.99922   0.81043   0.56933   0.00000  Uiso   1.00
C153   C     0.98176   0.89556   0.53568   0.00000  Uiso   1.00
C154   C     0.04890   0.95325   0.60710   0.00000  Uiso   1.00
C155   C     0.01885   0.02753   0.56008   0.00000  Uiso   1.00
C156   C     0.92596   0.78507   0.58804   0.00000  Uiso   1.00
C157   C     0.94619   0.74984   0.70347   0.00000  Uiso   1.00
C158   C     0.86917   0.73110   0.70053   0.00000  Uiso   1.00
C159   C     0.97157   0.77075   0.44005   0.00000  Uiso   1.00
C160   C     0.03013   0.72348   0.43105   0.00000  Uiso   1.00
C161   C     0.99149   0.69266   0.30352   0.00000  Uiso   1.00
H162   H     0.75343   0.85216   0.26984   0.00000  Uiso   1.00
H163   H     0.78516   0.99801   0.28575   0.00000  Uiso   1.00
H164   H     0.68247   0.79462   0.38210   0.00000  Uiso   1.00
H165   H     0.76640   0.76826   0.10973   0.00000  Uiso   1.00
H166   H     0.86171   0.15268   0.35383   0.00000  Uiso   1.00
H167   H     0.64517   0.72382   0.55698   0.00000  Uiso   1.00
H168   H     0.82215   0.66823   0.98262   0.00000  Uiso   1.00
H169   H     0.07227   0.79802   0.65835   0.00000  Uiso   1.00
H170   H     0.12150   0.94090   0.69557   0.00000  Uiso   1.00
H171   H     0.01880   0.73752   0.79192   0.00000  Uiso   1.00
H172   H     0.10273   0.71116   0.51955   0.00000  Uiso   1.00
H173   H     0.13470   0.10634   0.68646   0.00000  Uiso   1.00
H174   H     0.91815   0.67747   0.88961   0.00000  Uiso   1.00
H175   H     0.09513   0.62188   0.31525   0.00000  Uiso   1.00
O176   O     0.02483   0.22448   0.53765   0.00000  Uiso   1.00
O177   O     0.74073   0.66181   0.80416   0.00000  Uiso   1.00
O178   O     0.97292   0.58889   0.05062   0.00000  Uiso   1.00
N179   N     0.91921   0.12217   0.42699   0.00000  Uiso   1.00
N180   N     0.71675   0.72121   0.61693   0.00000  Uiso   1.00
N181   N     0.88220   0.66922   0.07996   0.00000  Uiso   1.00
N182   N     0.06610   0.09723   0.60597   0.00000  Uiso   1.00
N183   N     0.86364   0.69628   0.79592   0.00000  Uiso   1.00
N184   N     0.02910   0.64429   0.25894   0.00000  Uiso   1.00
