data_job_04864
_audit_creation_date              2018-12-19
_audit_creation_method            'Materials Studio'
_symmetry_space_group_name_H-M    'P1'
_symmetry_Int_Tables_number       1
_symmetry_cell_setting            triclinic
loop_
_symmetry_equiv_pos_as_xyz
  x,y,z
_cell_length_a                    24.3640
_cell_length_b                    12.3201
_cell_length_c                    20.9916
_cell_angle_alpha                 90.0000
_cell_angle_beta                  90.0000
_cell_angle_gamma                 90.0000
loop_
_atom_site_label
_atom_site_type_symbol
_atom_site_fract_x
_atom_site_fract_y
_atom_site_fract_z
_atom_site_U_iso_or_equiv
_atom_site_adp_type
_atom_site_occupancy
C1     C     0.25055   0.26991   0.83246   0.00000  Uiso   1.00
C2     C     0.29046   0.21533   0.87835   0.00000  Uiso   1.00
C3     C     0.33815   0.16098   0.86134   0.00000  Uiso   1.00
C4     C     0.36909   0.11660   0.91040   0.00000  Uiso   1.00
C5     C     0.43351   0.03034   0.97195   0.00000  Uiso   1.00
C6     C     0.19461   0.21889   0.84533   0.00000  Uiso   1.00
C7     C     0.16172   0.16755   0.80055   0.00000  Uiso   1.00
C8     C     0.11197   0.12618   0.82180   0.00000  Uiso   1.00
C9     C     0.02757   0.04552   0.83208   0.00000  Uiso   1.00
C10    C     0.24612   0.38772   0.85414   0.00000  Uiso   1.00
C11    C     0.25652   0.47833   0.81676   0.00000  Uiso   1.00
C12    C     0.25013   0.57911   0.84543   0.00000  Uiso   1.00
C13    C     0.24570   0.76056   0.86938   0.00000  Uiso   1.00
C14    C     0.22070   0.28775   0.94983   0.00000  Uiso   1.00
C15    C     0.27424   0.22502   0.94210   0.00000  Uiso   1.00
C16    C     0.30512   0.18072   0.99120   0.00000  Uiso   1.00
C17    C     0.35285   0.12631   0.97426   0.00000  Uiso   1.00
C18    C     0.17840   0.22858   0.90908   0.00000  Uiso   1.00
C19    C     0.12869   0.18729   0.93041   0.00000  Uiso   1.00
C20    C     0.09573   0.13589   0.88567   0.00000  Uiso   1.00
C21    C     0.22991   0.39741   0.91789   0.00000  Uiso   1.00
C22    C     0.22349   0.49806   0.94662   0.00000  Uiso   1.00
C23    C     0.23388   0.58881   0.90930   0.00000  Uiso   1.00
H24    H     0.26317   0.26237   0.78283   0.00000  Uiso   1.00
H25    H     0.35068   0.15349   0.81200   0.00000  Uiso   1.00
H26    H     0.17427   0.16008   0.75122   0.00000  Uiso   1.00
H27    H     0.26906   0.47080   0.76743   0.00000  Uiso   1.00
H28    H     0.44054   0.03703   0.87245   0.00000  Uiso   1.00
H29    H     0.06857   0.05094   0.74428   0.00000  Uiso   1.00
H30    H     0.26845   0.70617   0.77847   0.00000  Uiso   1.00
H31    H     0.20807   0.29529   0.99947   0.00000  Uiso   1.00
H32    H     0.29256   0.18822   0.04053   0.00000  Uiso   1.00
H33    H     0.11615   0.19480   0.97974   0.00000  Uiso   1.00
H34    H     0.21094   0.50553   0.99596   0.00000  Uiso   1.00
H35    H     0.39336   0.06521   0.05793   0.00000  Uiso   1.00
H36    H     0.02139   0.07912   0.92976   0.00000  Uiso   1.00
H37    H     0.22127   0.73435   0.96395   0.00000  Uiso   1.00
O38    O     0.47351   0.98006   0.98829   0.00000  Uiso   1.00
O39    O     0.98550   0.99833   0.82013   0.00000  Uiso   1.00
O40    O     0.24774   0.85798   0.86499   0.00000  Uiso   1.00
N41    N     0.41785   0.05837   0.91047   0.00000  Uiso   1.00
N42    N     0.07008   0.07136   0.79064   0.00000  Uiso   1.00
N43    N     0.25694   0.68395   0.82260   0.00000  Uiso   1.00
N44    N     0.39246   0.07354   0.01028   0.00000  Uiso   1.00
N45    N     0.04470   0.08653   0.89045   0.00000  Uiso   1.00
N46    N     0.23155   0.69912   0.92240   0.00000  Uiso   1.00
C47    C     0.89455   0.26890   0.17325   0.00000  Uiso   1.00
C48    C     0.85419   0.21601   0.12722   0.00000  Uiso   1.00
C49    C     0.80614   0.16280   0.14411   0.00000  Uiso   1.00
C50    C     0.77481   0.11989   0.09494   0.00000  Uiso   1.00
C51    C     0.70968   0.03619   0.03317   0.00000  Uiso   1.00
C52    C     0.95010   0.21648   0.16005   0.00000  Uiso   1.00
C53    C     0.98269   0.16368   0.20454   0.00000  Uiso   1.00
C54    C     0.03210   0.12118   0.18300   0.00000  Uiso   1.00
C55    C     0.11590   0.03828   0.17220   0.00000  Uiso   1.00
C56    C     0.89979   0.38684   0.15206   0.00000  Uiso   1.00
C57    C     0.89011   0.47728   0.18984   0.00000  Uiso   1.00
C58    C     0.89718   0.57821   0.16158   0.00000  Uiso   1.00
C59    C     0.90287   0.75981   0.13838   0.00000  Uiso   1.00
C60    C     0.92435   0.28733   0.05589   0.00000  Uiso   1.00
C61    C     0.87037   0.22602   0.06348   0.00000  Uiso   1.00
C62    C     0.83910   0.18319   0.01427   0.00000  Uiso   1.00
C63    C     0.79102   0.12992   0.03108   0.00000  Uiso   1.00
C64    C     0.96628   0.22649   0.09631   0.00000  Uiso   1.00
C65    C     0.01566   0.18406   0.07470   0.00000  Uiso   1.00
C66    C     0.04832   0.13120   0.11914   0.00000  Uiso   1.00
C67    C     0.91598   0.39685   0.08831   0.00000  Uiso   1.00
C68    C     0.92307   0.49766   0.05999   0.00000  Uiso   1.00
C69    C     0.91339   0.58823   0.09772   0.00000  Uiso   1.00
H70    H     0.88196   0.26111   0.22288   0.00000  Uiso   1.00
H71    H     0.79363   0.15506   0.19345   0.00000  Uiso   1.00
H72    H     0.97016   0.15595   0.25387   0.00000  Uiso   1.00
H73    H     0.87758   0.46950   0.23917   0.00000  Uiso   1.00
H74    H     0.70285   0.04187   0.13271   0.00000  Uiso   1.00
H75    H     0.07508   0.04378   0.26011   0.00000  Uiso   1.00
H76    H     0.87987   0.70495   0.22911   0.00000  Uiso   1.00
H77    H     0.93695   0.29512   0.00626   0.00000  Uiso   1.00
H78    H     0.85164   0.19094   0.96494   0.00000  Uiso   1.00
H79    H     0.02817   0.19183   0.02537   0.00000  Uiso   1.00
H80    H     0.93560   0.50538   0.01066   0.00000  Uiso   1.00
H81    H     0.74994   0.07099   0.94724   0.00000  Uiso   1.00
H82    H     0.12217   0.07290   0.07465   0.00000  Uiso   1.00
H83    H     0.92696   0.73407   0.04365   0.00000  Uiso   1.00
O84    O     0.66929   0.98725   0.01670   0.00000  Uiso   1.00
O85    O     0.15765   0.98977   0.18386   0.00000  Uiso   1.00
O86    O     0.90153   0.85721   0.14318   0.00000  Uiso   1.00
N87    N     0.72564   0.06304   0.09473   0.00000  Uiso   1.00
N88    N     0.07364   0.06481   0.21384   0.00000  Uiso   1.00
N89    N     0.89116   0.68295   0.18486   0.00000  Uiso   1.00
N90    N     0.75097   0.07871   0.99493   0.00000  Uiso   1.00
N91    N     0.09898   0.08048   0.11405   0.00000  Uiso   1.00
N92    N     0.91649   0.69862   0.08507   0.00000  Uiso   1.00
C93    C     0.74945   0.73009   0.33246   0.00000  Uiso   1.00
C94    C     0.70954   0.78467   0.37835   0.00000  Uiso   1.00
C95    C     0.66185   0.83902   0.36134   0.00000  Uiso   1.00
C96    C     0.63091   0.88340   0.41040   0.00000  Uiso   1.00
C97    C     0.56649   0.96966   0.47195   0.00000  Uiso   1.00
C98    C     0.80539   0.78111   0.34533   0.00000  Uiso   1.00
C99    C     0.83828   0.83245   0.30055   0.00000  Uiso   1.00
C100   C     0.88803   0.87382   0.32180   0.00000  Uiso   1.00
C101   C     0.97243   0.95448   0.33208   0.00000  Uiso   1.00
C102   C     0.75388   0.61228   0.35414   0.00000  Uiso   1.00
C103   C     0.74348   0.52167   0.31676   0.00000  Uiso   1.00
C104   C     0.74987   0.42089   0.34543   0.00000  Uiso   1.00
C105   C     0.75430   0.23944   0.36938   0.00000  Uiso   1.00
C106   C     0.77930   0.71225   0.44983   0.00000  Uiso   1.00
C107   C     0.72576   0.77498   0.44210   0.00000  Uiso   1.00
C108   C     0.69488   0.81928   0.49120   0.00000  Uiso   1.00
C109   C     0.64715   0.87369   0.47426   0.00000  Uiso   1.00
C110   C     0.82160   0.77142   0.40908   0.00000  Uiso   1.00
C111   C     0.87131   0.81271   0.43041   0.00000  Uiso   1.00
C112   C     0.90427   0.86411   0.38567   0.00000  Uiso   1.00
C113   C     0.77009   0.60259   0.41789   0.00000  Uiso   1.00
C114   C     0.77651   0.50194   0.44662   0.00000  Uiso   1.00
C115   C     0.76612   0.41119   0.40930   0.00000  Uiso   1.00
H116   H     0.73683   0.73763   0.28283   0.00000  Uiso   1.00
H117   H     0.64932   0.84651   0.31200   0.00000  Uiso   1.00
H118   H     0.82573   0.83992   0.25122   0.00000  Uiso   1.00
H119   H     0.73094   0.52920   0.26743   0.00000  Uiso   1.00
H120   H     0.55946   0.96297   0.37245   0.00000  Uiso   1.00
H121   H     0.93143   0.94906   0.24428   0.00000  Uiso   1.00
H122   H     0.73155   0.29383   0.27847   0.00000  Uiso   1.00
H123   H     0.79193   0.70471   0.49947   0.00000  Uiso   1.00
H124   H     0.70744   0.81178   0.54053   0.00000  Uiso   1.00
H125   H     0.88385   0.80520   0.47974   0.00000  Uiso   1.00
H126   H     0.78906   0.49447   0.49596   0.00000  Uiso   1.00
H127   H     0.60664   0.93479   0.55793   0.00000  Uiso   1.00
H128   H     0.97861   0.92088   0.42976   0.00000  Uiso   1.00
H129   H     0.77873   0.26565   0.46395   0.00000  Uiso   1.00
O130   O     0.52649   0.01994   0.48829   0.00000  Uiso   1.00
O131   O     0.01450   0.00167   0.32013   0.00000  Uiso   1.00
O132   O     0.75226   0.14202   0.36499   0.00000  Uiso   1.00
N133   N     0.58215   0.94163   0.41047   0.00000  Uiso   1.00
N134   N     0.92992   0.92864   0.29064   0.00000  Uiso   1.00
N135   N     0.74306   0.31605   0.32260   0.00000  Uiso   1.00
N136   N     0.60754   0.92646   0.51028   0.00000  Uiso   1.00
N137   N     0.95530   0.91347   0.39045   0.00000  Uiso   1.00
N138   N     0.76845   0.30088   0.42240   0.00000  Uiso   1.00
C139   C     0.10545   0.73110   0.67325   0.00000  Uiso   1.00
C140   C     0.14581   0.78399   0.62722   0.00000  Uiso   1.00
C141   C     0.19386   0.83720   0.64411   0.00000  Uiso   1.00
C142   C     0.22519   0.88011   0.59494   0.00000  Uiso   1.00
C143   C     0.29032   0.96381   0.53317   0.00000  Uiso   1.00
C144   C     0.04990   0.78352   0.66005   0.00000  Uiso   1.00
C145   C     0.01731   0.83632   0.70454   0.00000  Uiso   1.00
C146   C     0.96790   0.87882   0.68300   0.00000  Uiso   1.00
C147   C     0.88410   0.96172   0.67220   0.00000  Uiso   1.00
C148   C     0.10021   0.61316   0.65206   0.00000  Uiso   1.00
C149   C     0.10989   0.52272   0.68984   0.00000  Uiso   1.00
C150   C     0.10282   0.42179   0.66158   0.00000  Uiso   1.00
C151   C     0.09713   0.24019   0.63838   0.00000  Uiso   1.00
C152   C     0.07565   0.71267   0.55589   0.00000  Uiso   1.00
C153   C     0.12963   0.77398   0.56348   0.00000  Uiso   1.00
C154   C     0.16090   0.81681   0.51427   0.00000  Uiso   1.00
C155   C     0.20898   0.87008   0.53108   0.00000  Uiso   1.00
C156   C     0.03372   0.77351   0.59631   0.00000  Uiso   1.00
C157   C     0.98434   0.81594   0.57470   0.00000  Uiso   1.00
C158   C     0.95168   0.86880   0.61914   0.00000  Uiso   1.00
C159   C     0.08402   0.60315   0.58831   0.00000  Uiso   1.00
C160   C     0.07693   0.50234   0.55999   0.00000  Uiso   1.00
C161   C     0.08661   0.41177   0.59772   0.00000  Uiso   1.00
H162   H     0.11804   0.73889   0.72288   0.00000  Uiso   1.00
H163   H     0.20637   0.84494   0.69345   0.00000  Uiso   1.00
H164   H     0.02984   0.84405   0.75387   0.00000  Uiso   1.00
H165   H     0.12242   0.53050   0.73917   0.00000  Uiso   1.00
H166   H     0.29715   0.95813   0.63271   0.00000  Uiso   1.00
H167   H     0.92492   0.95622   0.76011   0.00000  Uiso   1.00
H168   H     0.12013   0.29505   0.72911   0.00000  Uiso   1.00
H169   H     0.06305   0.70488   0.50626   0.00000  Uiso   1.00
H170   H     0.14836   0.80906   0.46494   0.00000  Uiso   1.00
H171   H     0.97183   0.80817   0.52537   0.00000  Uiso   1.00
H172   H     0.06440   0.49462   0.51066   0.00000  Uiso   1.00
H173   H     0.25006   0.92901   0.44724   0.00000  Uiso   1.00
H174   H     0.87783   0.92710   0.57465   0.00000  Uiso   1.00
H175   H     0.07304   0.26593   0.54365   0.00000  Uiso   1.00
O176   O     0.33071   0.01275   0.51670   0.00000  Uiso   1.00
O177   O     0.84235   0.01023   0.68386   0.00000  Uiso   1.00
O178   O     0.09847   0.14279   0.64318   0.00000  Uiso   1.00
N179   N     0.27436   0.93696   0.59473   0.00000  Uiso   1.00
N180   N     0.92636   0.93519   0.71384   0.00000  Uiso   1.00
N181   N     0.10884   0.31705   0.68486   0.00000  Uiso   1.00
N182   N     0.24903   0.92129   0.49493   0.00000  Uiso   1.00
N183   N     0.90102   0.91952   0.61405   0.00000  Uiso   1.00
N184   N     0.08351   0.30138   0.58507   0.00000  Uiso   1.00
C185   C     0.75055   0.73009   0.83246   0.00000  Uiso   1.00
C186   C     0.79046   0.78467   0.87835   0.00000  Uiso   1.00
C187   C     0.83815   0.83902   0.86134   0.00000  Uiso   1.00
C188   C     0.86909   0.88340   0.91040   0.00000  Uiso   1.00
C189   C     0.93351   0.96966   0.97195   0.00000  Uiso   1.00
C190   C     0.69461   0.78111   0.84533   0.00000  Uiso   1.00
C191   C     0.66172   0.83245   0.80055   0.00000  Uiso   1.00
C192   C     0.61197   0.87382   0.82180   0.00000  Uiso   1.00
C193   C     0.52757   0.95448   0.83208   0.00000  Uiso   1.00
C194   C     0.74612   0.61228   0.85414   0.00000  Uiso   1.00
C195   C     0.75652   0.52167   0.81676   0.00000  Uiso   1.00
C196   C     0.75013   0.42089   0.84543   0.00000  Uiso   1.00
C197   C     0.74570   0.23944   0.86938   0.00000  Uiso   1.00
C198   C     0.72070   0.71225   0.94983   0.00000  Uiso   1.00
C199   C     0.77424   0.77498   0.94210   0.00000  Uiso   1.00
C200   C     0.80512   0.81928   0.99120   0.00000  Uiso   1.00
C201   C     0.85285   0.87369   0.97426   0.00000  Uiso   1.00
C202   C     0.67840   0.77142   0.90908   0.00000  Uiso   1.00
C203   C     0.62869   0.81271   0.93041   0.00000  Uiso   1.00
C204   C     0.59573   0.86411   0.88567   0.00000  Uiso   1.00
C205   C     0.72991   0.60259   0.91789   0.00000  Uiso   1.00
C206   C     0.72349   0.50194   0.94662   0.00000  Uiso   1.00
C207   C     0.73388   0.41119   0.90930   0.00000  Uiso   1.00
H208   H     0.76317   0.73763   0.78283   0.00000  Uiso   1.00
H209   H     0.85068   0.84651   0.81200   0.00000  Uiso   1.00
H210   H     0.67427   0.83992   0.75122   0.00000  Uiso   1.00
H211   H     0.76906   0.52920   0.76743   0.00000  Uiso   1.00
H212   H     0.94054   0.96297   0.87245   0.00000  Uiso   1.00
H213   H     0.56857   0.94906   0.74428   0.00000  Uiso   1.00
H214   H     0.76845   0.29383   0.77847   0.00000  Uiso   1.00
H215   H     0.70807   0.70471   0.99947   0.00000  Uiso   1.00
H216   H     0.79256   0.81178   0.04053   0.00000  Uiso   1.00
H217   H     0.61615   0.80520   0.97974   0.00000  Uiso   1.00
H218   H     0.71094   0.49447   0.99596   0.00000  Uiso   1.00
H219   H     0.89336   0.93479   0.05793   0.00000  Uiso   1.00
H220   H     0.52139   0.92088   0.92976   0.00000  Uiso   1.00
H221   H     0.72127   0.26565   0.96395   0.00000  Uiso   1.00
O222   O     0.97351   0.01994   0.98829   0.00000  Uiso   1.00
O223   O     0.48550   0.00167   0.82013   0.00000  Uiso   1.00
O224   O     0.74774   0.14202   0.86499   0.00000  Uiso   1.00
N225   N     0.91785   0.94163   0.91047   0.00000  Uiso   1.00
N226   N     0.57008   0.92864   0.79064   0.00000  Uiso   1.00
N227   N     0.75694   0.31605   0.82260   0.00000  Uiso   1.00
N228   N     0.89246   0.92646   0.01028   0.00000  Uiso   1.00
N229   N     0.54470   0.91347   0.89045   0.00000  Uiso   1.00
N230   N     0.73155   0.30088   0.92240   0.00000  Uiso   1.00
C231   C     0.39455   0.73110   0.17325   0.00000  Uiso   1.00
C232   C     0.35419   0.78399   0.12722   0.00000  Uiso   1.00
C233   C     0.30614   0.83720   0.14411   0.00000  Uiso   1.00
C234   C     0.27481   0.88011   0.09494   0.00000  Uiso   1.00
C235   C     0.20968   0.96381   0.03317   0.00000  Uiso   1.00
C236   C     0.45010   0.78352   0.16005   0.00000  Uiso   1.00
C237   C     0.48269   0.83632   0.20454   0.00000  Uiso   1.00
C238   C     0.53210   0.87882   0.18300   0.00000  Uiso   1.00
C239   C     0.61590   0.96172   0.17220   0.00000  Uiso   1.00
C240   C     0.39979   0.61316   0.15206   0.00000  Uiso   1.00
C241   C     0.39011   0.52272   0.18984   0.00000  Uiso   1.00
C242   C     0.39718   0.42179   0.16158   0.00000  Uiso   1.00
C243   C     0.40287   0.24019   0.13838   0.00000  Uiso   1.00
C244   C     0.42435   0.71267   0.05589   0.00000  Uiso   1.00
C245   C     0.37037   0.77398   0.06348   0.00000  Uiso   1.00
C246   C     0.33910   0.81681   0.01427   0.00000  Uiso   1.00
C247   C     0.29102   0.87008   0.03108   0.00000  Uiso   1.00
C248   C     0.46628   0.77351   0.09631   0.00000  Uiso   1.00
C249   C     0.51566   0.81594   0.07470   0.00000  Uiso   1.00
C250   C     0.54832   0.86880   0.11914   0.00000  Uiso   1.00
C251   C     0.41598   0.60315   0.08831   0.00000  Uiso   1.00
C252   C     0.42307   0.50234   0.05999   0.00000  Uiso   1.00
C253   C     0.41339   0.41177   0.09772   0.00000  Uiso   1.00
H254   H     0.38196   0.73889   0.22288   0.00000  Uiso   1.00
H255   H     0.29363   0.84494   0.19345   0.00000  Uiso   1.00
H256   H     0.47016   0.84405   0.25387   0.00000  Uiso   1.00
H257   H     0.37758   0.53050   0.23917   0.00000  Uiso   1.00
H258   H     0.20285   0.95813   0.13271   0.00000  Uiso   1.00
H259   H     0.57508   0.95622   0.26011   0.00000  Uiso   1.00
H260   H     0.37987   0.29505   0.22911   0.00000  Uiso   1.00
H261   H     0.43695   0.70488   0.00626   0.00000  Uiso   1.00
H262   H     0.35164   0.80906   0.96494   0.00000  Uiso   1.00
H263   H     0.52817   0.80817   0.02537   0.00000  Uiso   1.00
H264   H     0.43560   0.49462   0.01066   0.00000  Uiso   1.00
H265   H     0.24994   0.92901   0.94724   0.00000  Uiso   1.00
H266   H     0.62217   0.92710   0.07465   0.00000  Uiso   1.00
H267   H     0.42696   0.26593   0.04365   0.00000  Uiso   1.00
O268   O     0.16929   0.01275   0.01670   0.00000  Uiso   1.00
O269   O     0.65765   0.01023   0.18386   0.00000  Uiso   1.00
O270   O     0.40153   0.14279   0.14318   0.00000  Uiso   1.00
N271   N     0.22564   0.93696   0.09473   0.00000  Uiso   1.00
N272   N     0.57364   0.93519   0.21384   0.00000  Uiso   1.00
N273   N     0.39116   0.31705   0.18486   0.00000  Uiso   1.00
N274   N     0.25097   0.92129   0.99493   0.00000  Uiso   1.00
N275   N     0.59898   0.91952   0.11405   0.00000  Uiso   1.00
N276   N     0.41649   0.30138   0.08507   0.00000  Uiso   1.00
C277   C     0.24945   0.26991   0.33246   0.00000  Uiso   1.00
C278   C     0.20954   0.21533   0.37835   0.00000  Uiso   1.00
C279   C     0.16185   0.16098   0.36134   0.00000  Uiso   1.00
C280   C     0.13091   0.11660   0.41040   0.00000  Uiso   1.00
C281   C     0.06649   0.03034   0.47195   0.00000  Uiso   1.00
C282   C     0.30539   0.21889   0.34533   0.00000  Uiso   1.00
C283   C     0.33828   0.16755   0.30055   0.00000  Uiso   1.00
C284   C     0.38803   0.12618   0.32180   0.00000  Uiso   1.00
C285   C     0.47243   0.04552   0.33208   0.00000  Uiso   1.00
C286   C     0.25388   0.38772   0.35414   0.00000  Uiso   1.00
C287   C     0.24348   0.47833   0.31676   0.00000  Uiso   1.00
C288   C     0.24987   0.57911   0.34543   0.00000  Uiso   1.00
C289   C     0.25430   0.76056   0.36938   0.00000  Uiso   1.00
C290   C     0.27930   0.28775   0.44983   0.00000  Uiso   1.00
C291   C     0.22576   0.22502   0.44210   0.00000  Uiso   1.00
C292   C     0.19488   0.18072   0.49120   0.00000  Uiso   1.00
C293   C     0.14715   0.12631   0.47426   0.00000  Uiso   1.00
C294   C     0.32160   0.22858   0.40908   0.00000  Uiso   1.00
C295   C     0.37131   0.18729   0.43041   0.00000  Uiso   1.00
C296   C     0.40427   0.13589   0.38567   0.00000  Uiso   1.00
C297   C     0.27009   0.39741   0.41789   0.00000  Uiso   1.00
C298   C     0.27651   0.49806   0.44662   0.00000  Uiso   1.00
C299   C     0.26612   0.58881   0.40930   0.00000  Uiso   1.00
H300   H     0.23683   0.26237   0.28283   0.00000  Uiso   1.00
H301   H     0.14932   0.15349   0.31200   0.00000  Uiso   1.00
H302   H     0.32573   0.16008   0.25122   0.00000  Uiso   1.00
H303   H     0.23094   0.47080   0.26743   0.00000  Uiso   1.00
H304   H     0.05946   0.03703   0.37245   0.00000  Uiso   1.00
H305   H     0.43143   0.05094   0.24428   0.00000  Uiso   1.00
H306   H     0.23155   0.70617   0.27847   0.00000  Uiso   1.00
H307   H     0.29193   0.29529   0.49947   0.00000  Uiso   1.00
H308   H     0.20744   0.18822   0.54053   0.00000  Uiso   1.00
H309   H     0.38385   0.19480   0.47974   0.00000  Uiso   1.00
H310   H     0.28906   0.50553   0.49596   0.00000  Uiso   1.00
H311   H     0.10664   0.06521   0.55793   0.00000  Uiso   1.00
H312   H     0.47861   0.07912   0.42976   0.00000  Uiso   1.00
H313   H     0.27873   0.73435   0.46395   0.00000  Uiso   1.00
O314   O     0.02649   0.98006   0.48829   0.00000  Uiso   1.00
O315   O     0.51450   0.99833   0.32013   0.00000  Uiso   1.00
O316   O     0.25226   0.85798   0.36499   0.00000  Uiso   1.00
N317   N     0.08215   0.05837   0.41047   0.00000  Uiso   1.00
N318   N     0.42992   0.07136   0.29064   0.00000  Uiso   1.00
N319   N     0.24306   0.68395   0.32260   0.00000  Uiso   1.00
N320   N     0.10754   0.07354   0.51028   0.00000  Uiso   1.00
N321   N     0.45530   0.08653   0.39045   0.00000  Uiso   1.00
N322   N     0.26845   0.69912   0.42240   0.00000  Uiso   1.00
C323   C     0.60545   0.26890   0.67325   0.00000  Uiso   1.00
C324   C     0.64581   0.21601   0.62722   0.00000  Uiso   1.00
C325   C     0.69386   0.16280   0.64411   0.00000  Uiso   1.00
C326   C     0.72519   0.11989   0.59494   0.00000  Uiso   1.00
C327   C     0.79032   0.03619   0.53317   0.00000  Uiso   1.00
C328   C     0.54990   0.21648   0.66005   0.00000  Uiso   1.00
C329   C     0.51731   0.16368   0.70454   0.00000  Uiso   1.00
C330   C     0.46790   0.12118   0.68300   0.00000  Uiso   1.00
C331   C     0.38410   0.03828   0.67220   0.00000  Uiso   1.00
C332   C     0.60021   0.38684   0.65206   0.00000  Uiso   1.00
C333   C     0.60989   0.47728   0.68984   0.00000  Uiso   1.00
C334   C     0.60282   0.57821   0.66158   0.00000  Uiso   1.00
C335   C     0.59713   0.75981   0.63838   0.00000  Uiso   1.00
C336   C     0.57565   0.28733   0.55589   0.00000  Uiso   1.00
C337   C     0.62963   0.22602   0.56348   0.00000  Uiso   1.00
C338   C     0.66090   0.18319   0.51427   0.00000  Uiso   1.00
C339   C     0.70898   0.12992   0.53108   0.00000  Uiso   1.00
C340   C     0.53372   0.22649   0.59631   0.00000  Uiso   1.00
C341   C     0.48434   0.18406   0.57470   0.00000  Uiso   1.00
C342   C     0.45168   0.13120   0.61914   0.00000  Uiso   1.00
C343   C     0.58402   0.39685   0.58831   0.00000  Uiso   1.00
C344   C     0.57693   0.49766   0.55999   0.00000  Uiso   1.00
C345   C     0.58661   0.58823   0.59772   0.00000  Uiso   1.00
H346   H     0.61804   0.26111   0.72288   0.00000  Uiso   1.00
H347   H     0.70637   0.15506   0.69345   0.00000  Uiso   1.00
H348   H     0.52984   0.15595   0.75387   0.00000  Uiso   1.00
H349   H     0.62242   0.46950   0.73917   0.00000  Uiso   1.00
H350   H     0.79715   0.04187   0.63271   0.00000  Uiso   1.00
H351   H     0.42492   0.04378   0.76011   0.00000  Uiso   1.00
H352   H     0.62013   0.70495   0.72911   0.00000  Uiso   1.00
H353   H     0.56305   0.29512   0.50626   0.00000  Uiso   1.00
H354   H     0.64836   0.19094   0.46494   0.00000  Uiso   1.00
H355   H     0.47183   0.19183   0.52537   0.00000  Uiso   1.00
H356   H     0.56440   0.50538   0.51066   0.00000  Uiso   1.00
H357   H     0.75006   0.07099   0.44724   0.00000  Uiso   1.00
H358   H     0.37783   0.07290   0.57465   0.00000  Uiso   1.00
H359   H     0.57304   0.73407   0.54365   0.00000  Uiso   1.00
O360   O     0.83071   0.98725   0.51670   0.00000  Uiso   1.00
O361   O     0.34235   0.98977   0.68386   0.00000  Uiso   1.00
O362   O     0.59847   0.85721   0.64318   0.00000  Uiso   1.00
N363   N     0.77436   0.06304   0.59473   0.00000  Uiso   1.00
N364   N     0.42636   0.06481   0.71384   0.00000  Uiso   1.00
N365   N     0.60884   0.68295   0.68486   0.00000  Uiso   1.00
N366   N     0.74903   0.07871   0.49493   0.00000  Uiso   1.00
N367   N     0.40102   0.08048   0.61405   0.00000  Uiso   1.00
N368   N     0.58351   0.69862   0.58507   0.00000  Uiso   1.00
