data_job_02325
_audit_creation_date              2018-12-19
_audit_creation_method            'Materials Studio'
_symmetry_space_group_name_H-M    'P1'
_symmetry_Int_Tables_number       1
_symmetry_cell_setting            triclinic
loop_
_symmetry_equiv_pos_as_xyz
  x,y,z
_cell_length_a                    12.2622
_cell_length_b                    12.2622
_cell_length_c                    35.3821
_cell_angle_alpha                 90.0000
_cell_angle_beta                  90.0000
_cell_angle_gamma                 120.0000
loop_
_atom_site_label
_atom_site_type_symbol
_atom_site_fract_x
_atom_site_fract_y
_atom_site_fract_z
_atom_site_U_iso_or_equiv
_atom_site_adp_type
_atom_site_occupancy
C1     C     0.53409   0.19247   0.77940   0.00000  Uiso   1.00
C2     C     0.46767   0.10751   0.74566   0.00000  Uiso   1.00
C3     C     0.41183   0.97727   0.74515   0.00000  Uiso   1.00
C4     C     0.35593   0.91676   0.71152   0.00000  Uiso   1.00
C5     C     0.25286   0.77458   0.66399   0.00000  Uiso   1.00
C6     C     0.66656   0.28688   0.76593   0.00000  Uiso   1.00
C7     C     0.77793   0.30748   0.78246   0.00000  Uiso   1.00
C8     C     0.88945   0.39798   0.76589   0.00000  Uiso   1.00
C9     C     0.09514   0.53435   0.74984   0.00000  Uiso   1.00
C10    C     0.46809   0.26810   0.78630   0.00000  Uiso   1.00
C11    C     0.41260   0.27292   0.81998   0.00000  Uiso   1.00
C12    C     0.35705   0.34764   0.82057   0.00000  Uiso   1.00
C13    C     0.25458   0.45484   0.83615   0.00000  Uiso   1.00
C14    C     0.53413   0.31660   0.72058   0.00000  Uiso   1.00
C15    C     0.46770   0.17493   0.71371   0.00000  Uiso   1.00
C16    C     0.41187   0.11461   0.68007   0.00000  Uiso   1.00
C17    C     0.35595   0.98431   0.67952   0.00000  Uiso   1.00
C18    C     0.66658   0.35431   0.73398   0.00000  Uiso   1.00
C19    C     0.77797   0.44481   0.71738   0.00000  Uiso   1.00
C20    C     0.88947   0.46553   0.73389   0.00000  Uiso   1.00
C21    C     0.46810   0.33552   0.75436   0.00000  Uiso   1.00
C22    C     0.41264   0.41025   0.75490   0.00000  Uiso   1.00
C23    C     0.35708   0.41519   0.78856   0.00000  Uiso   1.00
H24    H     0.53409   0.13999   0.80427   0.00000  Uiso   1.00
H25    H     0.41184   0.92513   0.76988   0.00000  Uiso   1.00
H26    H     0.77788   0.25529   0.80719   0.00000  Uiso   1.00
H27    H     0.41261   0.22074   0.84470   0.00000  Uiso   1.00
H28    H     0.27637   0.71666   0.71766   0.00000  Uiso   1.00
H29    H     0.04818   0.41286   0.79633   0.00000  Uiso   1.00
H30    H     0.27793   0.33999   0.87542   0.00000  Uiso   1.00
H31    H     0.53415   0.36910   0.69570   0.00000  Uiso   1.00
H32    H     0.41190   0.16681   0.65535   0.00000  Uiso   1.00
H33    H     0.77794   0.49697   0.69266   0.00000  Uiso   1.00
H34    H     0.41267   0.46242   0.73017   0.00000  Uiso   1.00
H35    H     0.27642   0.91281   0.62470   0.00000  Uiso   1.00
H36    H     0.04823   0.60902   0.70337   0.00000  Uiso   1.00
H37    H     0.27798   0.53615   0.78246   0.00000  Uiso   1.00
O38    O     0.19601   0.67753   0.64659   0.00000  Uiso   1.00
O39    O     0.20859   0.59093   0.74981   0.00000  Uiso   1.00
O40    O     0.19804   0.49533   0.85357   0.00000  Uiso   1.00
N41    N     0.29313   0.79058   0.70132   0.00000  Uiso   1.00
N42    N     0.01473   0.44147   0.77487   0.00000  Uiso   1.00
N43    N     0.29464   0.37338   0.84882   0.00000  Uiso   1.00
N44    N     0.29316   0.89613   0.65130   0.00000  Uiso   1.00
N45    N     0.01476   0.54702   0.72485   0.00000  Uiso   1.00
N46    N     0.29467   0.47893   0.79880   0.00000  Uiso   1.00
C47    C     0.78251   0.46620   0.88727   0.00000  Uiso   1.00
C48    C     0.86745   0.53220   0.92105   0.00000  Uiso   1.00
C49    C     0.99764   0.58768   0.92159   0.00000  Uiso   1.00
C50    C     0.05813   0.64323   0.95526   0.00000  Uiso   1.00
C51    C     0.20026   0.74566   0.00286   0.00000  Uiso   1.00
C52    C     0.68775   0.33374   0.90067   0.00000  Uiso   1.00
C53    C     0.66685   0.22236   0.88406   0.00000  Uiso   1.00
C54    C     0.57605   0.11085   0.90056   0.00000  Uiso   1.00
C55    C     0.43913   0.90517   0.91650   0.00000  Uiso   1.00
C56    C     0.70728   0.53264   0.88041   0.00000  Uiso   1.00
C57    C     0.70277   0.58846   0.84677   0.00000  Uiso   1.00
C58    C     0.62839   0.64438   0.84621   0.00000  Uiso   1.00
C59    C     0.52181   0.74752   0.83069   0.00000  Uiso   1.00
C60    C     0.65840   0.46621   0.94609   0.00000  Uiso   1.00
C61    C     0.80003   0.53220   0.95300   0.00000  Uiso   1.00
C62    C     0.86033   0.58769   0.98667   0.00000  Uiso   1.00
C63    C     0.99060   0.64324   0.98727   0.00000  Uiso   1.00
C64    C     0.62034   0.33375   0.93261   0.00000  Uiso   1.00
C65    C     0.52954   0.22238   0.94914   0.00000  Uiso   1.00
C66    C     0.50851   0.11085   0.93257   0.00000  Uiso   1.00
C67    C     0.63987   0.53265   0.91236   0.00000  Uiso   1.00
C68    C     0.56547   0.58848   0.91185   0.00000  Uiso   1.00
C69    C     0.56086   0.64439   0.87822   0.00000  Uiso   1.00
H70    H     0.83498   0.46618   0.86240   0.00000  Uiso   1.00
H71    H     0.04978   0.58764   0.89686   0.00000  Uiso   1.00
H72    H     0.71902   0.22238   0.85934   0.00000  Uiso   1.00
H73    H     0.75495   0.58844   0.82205   0.00000  Uiso   1.00
H74    H     0.25818   0.72227   0.94917   0.00000  Uiso   1.00
H75    H     0.56074   0.95210   0.87004   0.00000  Uiso   1.00
H76    H     0.63649   0.72399   0.79141   0.00000  Uiso   1.00
H77    H     0.60591   0.46621   0.97097   0.00000  Uiso   1.00
H78    H     0.80814   0.58768   0.01139   0.00000  Uiso   1.00
H79    H     0.47739   0.22242   0.97387   0.00000  Uiso   1.00
H80    H     0.51332   0.58847   0.93658   0.00000  Uiso   1.00
H81    H     0.06206   0.72229   0.04213   0.00000  Uiso   1.00
H82    H     0.36461   0.95212   0.96299   0.00000  Uiso   1.00
H83    H     0.44038   0.72402   0.88436   0.00000  Uiso   1.00
O84    O     0.29728   0.80215   0.02029   0.00000  Uiso   1.00
O85    O     0.38225   0.79172   0.91646   0.00000  Uiso   1.00
O86    O     0.48165   0.80443   0.81330   0.00000  Uiso   1.00
N87    N     0.18427   0.70563   0.96550   0.00000  Uiso   1.00
N88    N     0.53222   0.98556   0.89151   0.00000  Uiso   1.00
N89    N     0.60302   0.70719   0.81800   0.00000  Uiso   1.00
N90    N     0.07875   0.70564   0.01552   0.00000  Uiso   1.00
N91    N     0.42669   0.98558   0.94153   0.00000  Uiso   1.00
N92    N     0.49749   0.70720   0.86802   0.00000  Uiso   1.00
C93    C     0.80753   0.34162   0.11273   0.00000  Uiso   1.00
C94    C     0.89249   0.36017   0.07899   0.00000  Uiso   1.00
C95    C     0.02273   0.43456   0.07849   0.00000  Uiso   1.00
C96    C     0.08324   0.43917   0.04486   0.00000  Uiso   1.00
C97    C     0.22542   0.47827   0.99732   0.00000  Uiso   1.00
C98    C     0.71312   0.37967   0.09926   0.00000  Uiso   1.00
C99    C     0.69252   0.47045   0.11580   0.00000  Uiso   1.00
C100   C     0.60202   0.49147   0.09923   0.00000  Uiso   1.00
C101   C     0.46565   0.56079   0.08317   0.00000  Uiso   1.00
C102   C     0.73190   0.19999   0.11964   0.00000  Uiso   1.00
C103   C     0.72708   0.13968   0.15331   0.00000  Uiso   1.00
C104   C     0.65236   0.00941   0.15390   0.00000  Uiso   1.00
C105   C     0.54516   0.79975   0.16949   0.00000  Uiso   1.00
C106   C     0.68340   0.21752   0.05391   0.00000  Uiso   1.00
C107   C     0.82507   0.29277   0.04704   0.00000  Uiso   1.00
C108   C     0.88539   0.29726   0.01341   0.00000  Uiso   1.00
C109   C     0.01569   0.37164   0.01285   0.00000  Uiso   1.00
C110   C     0.64569   0.31227   0.06731   0.00000  Uiso   1.00
C111   C     0.55519   0.33315   0.05072   0.00000  Uiso   1.00
C112   C     0.53447   0.42394   0.06722   0.00000  Uiso   1.00
C113   C     0.66448   0.13258   0.08769   0.00000  Uiso   1.00
C114   C     0.58975   0.00238   0.08823   0.00000  Uiso   1.00
C115   C     0.58481   0.94189   0.12190   0.00000  Uiso   1.00
H116   H     0.86001   0.39410   0.13761   0.00000  Uiso   1.00
H117   H     0.07487   0.48672   0.10322   0.00000  Uiso   1.00
H118   H     0.74471   0.52259   0.14052   0.00000  Uiso   1.00
H119   H     0.77926   0.19187   0.17803   0.00000  Uiso   1.00
H120   H     0.28334   0.55971   0.05099   0.00000  Uiso   1.00
H121   H     0.58714   0.63532   0.12966   0.00000  Uiso   1.00
H122   H     0.66001   0.93794   0.20875   0.00000  Uiso   1.00
H123   H     0.63090   0.16505   0.02904   0.00000  Uiso   1.00
H124   H     0.83319   0.24509   0.98869   0.00000  Uiso   1.00
H125   H     0.50303   0.28097   0.02599   0.00000  Uiso   1.00
H126   H     0.53758   0.95025   0.06350   0.00000  Uiso   1.00
H127   H     0.08719   0.36360   0.95803   0.00000  Uiso   1.00
H128   H     0.39098   0.43921   0.03671   0.00000  Uiso   1.00
H129   H     0.46385   0.74183   0.11580   0.00000  Uiso   1.00
O130   O     0.32247   0.51848   0.97992   0.00000  Uiso   1.00
O131   O     0.40907   0.61766   0.08314   0.00000  Uiso   1.00
O132   O     0.50467   0.70272   0.18691   0.00000  Uiso   1.00
N133   N     0.20942   0.50255   0.03465   0.00000  Uiso   1.00
N134   N     0.55853   0.57326   0.10820   0.00000  Uiso   1.00
N135   N     0.62662   0.92127   0.18215   0.00000  Uiso   1.00
N136   N     0.10387   0.39702   0.98463   0.00000  Uiso   1.00
N137   N     0.45298   0.46773   0.05818   0.00000  Uiso   1.00
N138   N     0.52107   0.81574   0.13213   0.00000  Uiso   1.00
C139   C     0.53380   0.31631   0.22061   0.00000  Uiso   1.00
C140   C     0.46780   0.33524   0.25439   0.00000  Uiso   1.00
C141   C     0.41232   0.40997   0.25493   0.00000  Uiso   1.00
C142   C     0.35677   0.41490   0.28859   0.00000  Uiso   1.00
C143   C     0.25434   0.45460   0.33619   0.00000  Uiso   1.00
C144   C     0.66626   0.35400   0.23400   0.00000  Uiso   1.00
C145   C     0.77764   0.44449   0.21740   0.00000  Uiso   1.00
C146   C     0.88915   0.46520   0.23390   0.00000  Uiso   1.00
C147   C     0.09483   0.53396   0.24983   0.00000  Uiso   1.00
C148   C     0.46736   0.17464   0.21374   0.00000  Uiso   1.00
C149   C     0.41154   0.11431   0.18010   0.00000  Uiso   1.00
C150   C     0.35562   0.98401   0.17954   0.00000  Uiso   1.00
C151   C     0.25248   0.77428   0.16402   0.00000  Uiso   1.00
C152   C     0.53379   0.19219   0.27943   0.00000  Uiso   1.00
C153   C     0.46780   0.26783   0.28634   0.00000  Uiso   1.00
C154   C     0.41231   0.27264   0.32001   0.00000  Uiso   1.00
C155   C     0.35676   0.34736   0.32060   0.00000  Uiso   1.00
C156   C     0.66625   0.28659   0.26595   0.00000  Uiso   1.00
C157   C     0.77762   0.30716   0.28248   0.00000  Uiso   1.00
C158   C     0.88915   0.39766   0.26591   0.00000  Uiso   1.00
C159   C     0.46735   0.10722   0.24569   0.00000  Uiso   1.00
C160   C     0.41152   0.97699   0.24518   0.00000  Uiso   1.00
C161   C     0.35561   0.91647   0.21155   0.00000  Uiso   1.00
H162   H     0.53382   0.36880   0.19573   0.00000  Uiso   1.00
H163   H     0.41236   0.46213   0.23020   0.00000  Uiso   1.00
H164   H     0.77762   0.49664   0.19267   0.00000  Uiso   1.00
H165   H     0.41156   0.16651   0.15538   0.00000  Uiso   1.00
H166   H     0.27773   0.53592   0.28250   0.00000  Uiso   1.00
H167   H     0.04790   0.60864   0.20337   0.00000  Uiso   1.00
H168   H     0.27601   0.91251   0.12474   0.00000  Uiso   1.00
H169   H     0.53379   0.13970   0.30430   0.00000  Uiso   1.00
H170   H     0.41232   0.22046   0.34473   0.00000  Uiso   1.00
H171   H     0.77758   0.25497   0.30720   0.00000  Uiso   1.00
H172   H     0.41153   0.92485   0.26991   0.00000  Uiso   1.00
H173   H     0.27771   0.33977   0.37546   0.00000  Uiso   1.00
H174   H     0.04788   0.41249   0.29632   0.00000  Uiso   1.00
H175   H     0.27598   0.71636   0.21770   0.00000  Uiso   1.00
O176   O     0.19785   0.49514   0.35362   0.00000  Uiso   1.00
O177   O     0.20828   0.59053   0.24979   0.00000  Uiso   1.00
O178   O     0.19557   0.67722   0.14664   0.00000  Uiso   1.00
N179   N     0.29437   0.47865   0.29883   0.00000  Uiso   1.00
N180   N     0.01444   0.54666   0.22485   0.00000  Uiso   1.00
N181   N     0.29281   0.89583   0.15133   0.00000  Uiso   1.00
N182   N     0.29436   0.37310   0.34885   0.00000  Uiso   1.00
N183   N     0.01442   0.44111   0.27487   0.00000  Uiso   1.00
N184   N     0.29280   0.79029   0.20135   0.00000  Uiso   1.00
C185   C     0.65838   0.46591   0.44607   0.00000  Uiso   1.00
C186   C     0.63983   0.53233   0.41233   0.00000  Uiso   1.00
C187   C     0.56544   0.58817   0.41182   0.00000  Uiso   1.00
C188   C     0.56083   0.64407   0.37819   0.00000  Uiso   1.00
C189   C     0.52173   0.74714   0.33065   0.00000  Uiso   1.00
C190   C     0.62033   0.33344   0.43259   0.00000  Uiso   1.00
C191   C     0.52955   0.22207   0.44913   0.00000  Uiso   1.00
C192   C     0.50853   0.11055   0.43256   0.00000  Uiso   1.00
C193   C     0.43921   0.90486   0.41650   0.00000  Uiso   1.00
C194   C     0.80001   0.53191   0.45297   0.00000  Uiso   1.00
C195   C     0.86032   0.58740   0.48664   0.00000  Uiso   1.00
C196   C     0.99059   0.64295   0.48724   0.00000  Uiso   1.00
C197   C     0.20025   0.74542   0.50282   0.00000  Uiso   1.00
C198   C     0.78248   0.46587   0.38725   0.00000  Uiso   1.00
C199   C     0.70723   0.53230   0.38038   0.00000  Uiso   1.00
C200   C     0.70274   0.58813   0.34674   0.00000  Uiso   1.00
C201   C     0.62836   0.64405   0.34618   0.00000  Uiso   1.00
C202   C     0.68773   0.33342   0.40064   0.00000  Uiso   1.00
C203   C     0.66685   0.22203   0.38405   0.00000  Uiso   1.00
C204   C     0.57606   0.11053   0.40055   0.00000  Uiso   1.00
C205   C     0.86742   0.53190   0.42102   0.00000  Uiso   1.00
C206   C     0.99762   0.58736   0.42156   0.00000  Uiso   1.00
C207   C     0.05811   0.64292   0.45523   0.00000  Uiso   1.00
H208   H     0.60590   0.46591   0.47094   0.00000  Uiso   1.00
H209   H     0.51328   0.58816   0.43655   0.00000  Uiso   1.00
H210   H     0.47741   0.22212   0.47385   0.00000  Uiso   1.00
H211   H     0.80813   0.58739   0.51136   0.00000  Uiso   1.00
H212   H     0.44029   0.72363   0.38432   0.00000  Uiso   1.00
H213   H     0.36468   0.95182   0.46299   0.00000  Uiso   1.00
H214   H     0.06206   0.72207   0.54209   0.00000  Uiso   1.00
H215   H     0.83495   0.46585   0.36237   0.00000  Uiso   1.00
H216   H     0.75491   0.58810   0.32202   0.00000  Uiso   1.00
H217   H     0.71903   0.22206   0.35933   0.00000  Uiso   1.00
H218   H     0.04975   0.58733   0.39683   0.00000  Uiso   1.00
H219   H     0.63640   0.72358   0.29137   0.00000  Uiso   1.00
H220   H     0.56079   0.95177   0.37004   0.00000  Uiso   1.00
H221   H     0.25817   0.72202   0.44913   0.00000  Uiso   1.00
O222   O     0.48152   0.80399   0.31326   0.00000  Uiso   1.00
O223   O     0.38234   0.79141   0.41647   0.00000  Uiso   1.00
O224   O     0.29728   0.80196   0.52024   0.00000  Uiso   1.00
N225   N     0.49745   0.70687   0.36799   0.00000  Uiso   1.00
N226   N     0.42674   0.98527   0.44153   0.00000  Uiso   1.00
N227   N     0.07873   0.70536   0.51548   0.00000  Uiso   1.00
N228   N     0.60298   0.70684   0.31797   0.00000  Uiso   1.00
N229   N     0.53227   0.98524   0.39152   0.00000  Uiso   1.00
N230   N     0.18426   0.70533   0.46546   0.00000  Uiso   1.00
C231   C     0.68369   0.21749   0.55394   0.00000  Uiso   1.00
C232   C     0.66476   0.13255   0.58772   0.00000  Uiso   1.00
C233   C     0.59003   0.00236   0.58826   0.00000  Uiso   1.00
C234   C     0.58510   0.94187   0.62193   0.00000  Uiso   1.00
C235   C     0.54540   0.79974   0.66952   0.00000  Uiso   1.00
C236   C     0.64600   0.31225   0.56733   0.00000  Uiso   1.00
C237   C     0.55551   0.33315   0.55073   0.00000  Uiso   1.00
C238   C     0.53480   0.42395   0.56723   0.00000  Uiso   1.00
C239   C     0.46604   0.56087   0.58316   0.00000  Uiso   1.00
C240   C     0.82536   0.29272   0.54707   0.00000  Uiso   1.00
C241   C     0.88569   0.29723   0.51344   0.00000  Uiso   1.00
C242   C     0.01599   0.37161   0.51288   0.00000  Uiso   1.00
C243   C     0.22572   0.47819   0.49736   0.00000  Uiso   1.00
C244   C     0.80781   0.34160   0.61276   0.00000  Uiso   1.00
C245   C     0.73217   0.19997   0.61967   0.00000  Uiso   1.00
C246   C     0.72736   0.13967   0.65334   0.00000  Uiso   1.00
C247   C     0.65264   0.00940   0.65393   0.00000  Uiso   1.00
C248   C     0.71341   0.37966   0.59928   0.00000  Uiso   1.00
C249   C     0.69284   0.47046   0.61581   0.00000  Uiso   1.00
C250   C     0.60234   0.49149   0.59924   0.00000  Uiso   1.00
C251   C     0.89278   0.36013   0.57902   0.00000  Uiso   1.00
C252   C     0.02301   0.43453   0.57852   0.00000  Uiso   1.00
C253   C     0.08353   0.43914   0.54488   0.00000  Uiso   1.00
H254   H     0.63120   0.16502   0.52907   0.00000  Uiso   1.00
H255   H     0.53787   0.95022   0.56353   0.00000  Uiso   1.00
H256   H     0.50336   0.28098   0.52600   0.00000  Uiso   1.00
H257   H     0.83349   0.24505   0.48872   0.00000  Uiso   1.00
H258   H     0.46408   0.74182   0.61584   0.00000  Uiso   1.00
H259   H     0.39136   0.43926   0.53670   0.00000  Uiso   1.00
H260   H     0.08749   0.36351   0.45807   0.00000  Uiso   1.00
H261   H     0.86030   0.39409   0.63763   0.00000  Uiso   1.00
H262   H     0.77954   0.19186   0.67806   0.00000  Uiso   1.00
H263   H     0.74503   0.52261   0.64053   0.00000  Uiso   1.00
H264   H     0.07515   0.48668   0.60325   0.00000  Uiso   1.00
H265   H     0.66023   0.93794   0.70879   0.00000  Uiso   1.00
H266   H     0.58751   0.63539   0.62966   0.00000  Uiso   1.00
H267   H     0.28364   0.55962   0.55103   0.00000  Uiso   1.00
O268   O     0.50486   0.70272   0.68695   0.00000  Uiso   1.00
O269   O     0.40947   0.61775   0.58313   0.00000  Uiso   1.00
O270   O     0.32278   0.51835   0.47997   0.00000  Uiso   1.00
N271   N     0.52135   0.81573   0.63216   0.00000  Uiso   1.00
N272   N     0.45334   0.46778   0.55818   0.00000  Uiso   1.00
N273   N     0.10417   0.39698   0.48467   0.00000  Uiso   1.00
N274   N     0.62690   0.92125   0.68218   0.00000  Uiso   1.00
N275   N     0.55889   0.57331   0.60820   0.00000  Uiso   1.00
N276   N     0.20971   0.50251   0.53469   0.00000  Uiso   1.00
