data_job_06171
_audit_creation_date              2018-12-19
_audit_creation_method            'Materials Studio'
_symmetry_space_group_name_H-M    'P1'
_symmetry_Int_Tables_number       1
_symmetry_cell_setting            triclinic
loop_
_symmetry_equiv_pos_as_xyz
  x,y,z
_cell_length_a                    14.9745
_cell_length_b                    14.9727
_cell_length_c                    14.9695
_cell_angle_alpha                 91.7527
_cell_angle_beta                  91.6855
_cell_angle_gamma                 91.6132
loop_
_atom_site_label
_atom_site_type_symbol
_atom_site_fract_x
_atom_site_fract_y
_atom_site_fract_z
_atom_site_U_iso_or_equiv
_atom_site_adp_type
_atom_site_occupancy
C1     C     0.87314   0.22782   0.45805   0.00000  Uiso   1.00
C2     C     0.84156   0.30908   0.51090   0.00000  Uiso   1.00
C3     C     0.88971   0.38888   0.52636   0.00000  Uiso   1.00
C4     C     0.84912   0.45513   0.57630   0.00000  Uiso   1.00
C5     C     0.81313   0.58329   0.65335   0.00000  Uiso   1.00
C6     C     0.86748   0.14974   0.52090   0.00000  Uiso   1.00
C7     C     0.93742   0.09556   0.54475   0.00000  Uiso   1.00
C8     C     0.91865   0.02767   0.60310   0.00000  Uiso   1.00
C9     C     0.92289   0.90841   0.69561   0.00000  Uiso   1.00
C10    C     0.80231   0.20802   0.38429   0.00000  Uiso   1.00
C11    C     0.81747   0.20282   0.29329   0.00000  Uiso   1.00
C12    C     0.74383   0.18398   0.23662   0.00000  Uiso   1.00
C13    C     0.64688   0.15522   0.11704   0.00000  Uiso   1.00
C14    C     0.71543   0.20357   0.51924   0.00000  Uiso   1.00
C15    C     0.75589   0.29590   0.54414   0.00000  Uiso   1.00
C16    C     0.71522   0.36205   0.59406   0.00000  Uiso   1.00
C17    C     0.76330   0.44194   0.60960   0.00000  Uiso   1.00
C18    C     0.78182   0.13656   0.55413   0.00000  Uiso   1.00
C19    C     0.76293   0.06874   0.61245   0.00000  Uiso   1.00
C20    C     0.83283   0.01448   0.63639   0.00000  Uiso   1.00
C21    C     0.71665   0.19485   0.41752   0.00000  Uiso   1.00
C22    C     0.64297   0.17600   0.36099   0.00000  Uiso   1.00
C23    C     0.65801   0.17079   0.26992   0.00000  Uiso   1.00
H24    H     0.93983   0.23806   0.43218   0.00000  Uiso   1.00
H25    H     0.95600   0.39904   0.50064   0.00000  Uiso   1.00
H26    H     0.00371   0.10576   0.51901   0.00000  Uiso   1.00
H27    H     0.88376   0.21302   0.26759   0.00000  Uiso   1.00
H28    H     0.93617   0.57169   0.59122   0.00000  Uiso   1.00
H29    H     0.03675   0.95328   0.62995   0.00000  Uiso   1.00
H30    H     0.78383   0.17944   0.09978   0.00000  Uiso   1.00
H31    H     0.64873   0.19331   0.54511   0.00000  Uiso   1.00
H32    H     0.64893   0.35184   0.61977   0.00000  Uiso   1.00
H33    H     0.69663   0.05856   0.63815   0.00000  Uiso   1.00
H34    H     0.57669   0.16582   0.38673   0.00000  Uiso   1.00
H35    H     0.68693   0.53338   0.68792   0.00000  Uiso   1.00
H36    H     0.78751   0.91497   0.72665   0.00000  Uiso   1.00
H37    H     0.53459   0.14114   0.19648   0.00000  Uiso   1.00
O38    O     0.81694   0.65762   0.68668   0.00000  Uiso   1.00
O39    O     0.94890   0.84628   0.73747   0.00000  Uiso   1.00
O40    O     0.61707   0.14300   0.04189   0.00000  Uiso   1.00
N41    N     0.87748   0.54093   0.60372   0.00000  Uiso   1.00
N42    N     0.97152   0.96276   0.63994   0.00000  Uiso   1.00
N43    N     0.73506   0.17418   0.14427   0.00000  Uiso   1.00
N44    N     0.74336   0.52031   0.65575   0.00000  Uiso   1.00
N45    N     0.83741   0.94215   0.69197   0.00000  Uiso   1.00
N46    N     0.60095   0.15357   0.19630   0.00000  Uiso   1.00
C47    C     0.45779   0.87295   0.22781   0.00000  Uiso   1.00
C48    C     0.51060   0.84143   0.30902   0.00000  Uiso   1.00
C49    C     0.52598   0.88968   0.38889   0.00000  Uiso   1.00
C50    C     0.57589   0.84913   0.45508   0.00000  Uiso   1.00
C51    C     0.65285   0.81324   0.58318   0.00000  Uiso   1.00
C52    C     0.52067   0.86716   0.14967   0.00000  Uiso   1.00
C53    C     0.54450   0.93704   0.09555   0.00000  Uiso   1.00
C54    C     0.60288   0.91814   0.02759   0.00000  Uiso   1.00
C55    C     0.69542   0.92218   0.90825   0.00000  Uiso   1.00
C56    C     0.38412   0.80214   0.20796   0.00000  Uiso   1.00
C57    C     0.29314   0.81735   0.20284   0.00000  Uiso   1.00
C58    C     0.23656   0.74371   0.18394   0.00000  Uiso   1.00
C59    C     0.11709   0.64679   0.15512   0.00000  Uiso   1.00
C60    C     0.51907   0.71515   0.20333   0.00000  Uiso   1.00
C61    C     0.54388   0.75572   0.29572   0.00000  Uiso   1.00
C62    C     0.59378   0.71508   0.36181   0.00000  Uiso   1.00
C63    C     0.60923   0.76326   0.44176   0.00000  Uiso   1.00
C64    C     0.55395   0.78145   0.13637   0.00000  Uiso   1.00
C65    C     0.61230   0.76245   0.06847   0.00000  Uiso   1.00
C66    C     0.63622   0.83228   0.01427   0.00000  Uiso   1.00
C67    C     0.41740   0.71642   0.19467   0.00000  Uiso   1.00
C68    C     0.36094   0.64275   0.17577   0.00000  Uiso   1.00
C69    C     0.26990   0.65784   0.17062   0.00000  Uiso   1.00
H70    H     0.43188   0.93969   0.23815   0.00000  Uiso   1.00
H71    H     0.50022   0.95601   0.39914   0.00000  Uiso   1.00
H72    H     0.51873   0.00335   0.10585   0.00000  Uiso   1.00
H73    H     0.26741   0.88368   0.21313   0.00000  Uiso   1.00
H74    H     0.59068   0.93632   0.57176   0.00000  Uiso   1.00
H75    H     0.62969   0.03615   0.95331   0.00000  Uiso   1.00
H76    H     0.09974   0.78379   0.17952   0.00000  Uiso   1.00
H77    H     0.54499   0.64842   0.19298   0.00000  Uiso   1.00
H78    H     0.61953   0.64876   0.35150   0.00000  Uiso   1.00
H79    H     0.63804   0.69611   0.05820   0.00000  Uiso   1.00
H80    H     0.38672   0.57643   0.16548   0.00000  Uiso   1.00
H81    H     0.68752   0.68695   0.53309   0.00000  Uiso   1.00
H82    H     0.72653   0.78677   0.91463   0.00000  Uiso   1.00
H83    H     0.19658   0.53442   0.14085   0.00000  Uiso   1.00
O84    O     0.68612   0.81712   0.65751   0.00000  Uiso   1.00
O85    O     0.73728   0.94809   0.84611   0.00000  Uiso   1.00
O86    O     0.04200   0.61701   0.14291   0.00000  Uiso   1.00
N87    N     0.60323   0.87758   0.54091   0.00000  Uiso   1.00
N88    N     0.63971   0.97091   0.96270   0.00000  Uiso   1.00
N89    N     0.14425   0.73499   0.17417   0.00000  Uiso   1.00
N90    N     0.65534   0.74339   0.52010   0.00000  Uiso   1.00
N91    N     0.69182   0.83673   0.94189   0.00000  Uiso   1.00
N92    N     0.19636   0.60080   0.15337   0.00000  Uiso   1.00
C93    C     0.22817   0.45797   0.87248   0.00000  Uiso   1.00
C94    C     0.30933   0.51069   0.84096   0.00000  Uiso   1.00
C95    C     0.38913   0.52608   0.88919   0.00000  Uiso   1.00
C96    C     0.45529   0.57591   0.84866   0.00000  Uiso   1.00
C97    C     0.58332   0.65276   0.81278   0.00000  Uiso   1.00
C98    C     0.15002   0.52089   0.86680   0.00000  Uiso   1.00
C99    C     0.09586   0.54485   0.93676   0.00000  Uiso   1.00
C100   C     0.02790   0.60325   0.91797   0.00000  Uiso   1.00
C101   C     0.90856   0.69589   0.92218   0.00000  Uiso   1.00
C102   C     0.20842   0.38421   0.80157   0.00000  Uiso   1.00
C103   C     0.20334   0.29324   0.81667   0.00000  Uiso   1.00
C104   C     0.18452   0.23657   0.74296   0.00000  Uiso   1.00
C105   C     0.15585   0.11699   0.64590   0.00000  Uiso   1.00
C106   C     0.20375   0.51908   0.71473   0.00000  Uiso   1.00
C107   C     0.29607   0.54389   0.75528   0.00000  Uiso   1.00
C108   C     0.36212   0.59370   0.71466   0.00000  Uiso   1.00
C109   C     0.44201   0.60916   0.76282   0.00000  Uiso   1.00
C110   C     0.13676   0.55409   0.78112   0.00000  Uiso   1.00
C111   C     0.06886   0.61246   0.76222   0.00000  Uiso   1.00
C112   C     0.01462   0.63651   0.83213   0.00000  Uiso   1.00
C113   C     0.19516   0.41740   0.71588   0.00000  Uiso   1.00
C114   C     0.17634   0.36086   0.64214   0.00000  Uiso   1.00
C115   C     0.17124   0.26983   0.65712   0.00000  Uiso   1.00
H116   H     0.23849   0.43213   0.93919   0.00000  Uiso   1.00
H117   H     0.39937   0.50039   0.95550   0.00000  Uiso   1.00
H118   H     0.10614   0.51914   0.00305   0.00000  Uiso   1.00
H119   H     0.21360   0.26758   0.88299   0.00000  Uiso   1.00
H120   H     0.57187   0.59074   0.93582   0.00000  Uiso   1.00
H121   H     0.95357   0.63026   0.03607   0.00000  Uiso   1.00
H122   H     0.18018   0.09978   0.78290   0.00000  Uiso   1.00
H123   H     0.19343   0.54493   0.64802   0.00000  Uiso   1.00
H124   H     0.35184   0.61938   0.64835   0.00000  Uiso   1.00
H125   H     0.05861   0.63813   0.69591   0.00000  Uiso   1.00
H126   H     0.16608   0.38657   0.57584   0.00000  Uiso   1.00
H127   H     0.53330   0.68732   0.68653   0.00000  Uiso   1.00
H128   H     0.91499   0.72683   0.78678   0.00000  Uiso   1.00
H129   H     0.14160   0.19636   0.53360   0.00000  Uiso   1.00
O130   O     0.65760   0.68600   0.81666   0.00000  Uiso   1.00
O131   O     0.84639   0.73782   0.94819   0.00000  Uiso   1.00
O132   O     0.14371   0.04186   0.61602   0.00000  Uiso   1.00
N133   N     0.54106   0.60324   0.87709   0.00000  Uiso   1.00
N134   N     0.96299   0.64019   0.97083   0.00000  Uiso   1.00
N135   N     0.17483   0.14425   0.73413   0.00000  Uiso   1.00
N136   N     0.52031   0.65520   0.74295   0.00000  Uiso   1.00
N137   N     0.94223   0.69216   0.83669   0.00000  Uiso   1.00
N138   N     0.15407   0.19622   0.59999   0.00000  Uiso   1.00
C139   C     0.12686   0.77218   0.54195   0.00000  Uiso   1.00
C140   C     0.15844   0.69092   0.48910   0.00000  Uiso   1.00
C141   C     0.11029   0.61112   0.47364   0.00000  Uiso   1.00
C142   C     0.15088   0.54487   0.42370   0.00000  Uiso   1.00
C143   C     0.18687   0.41671   0.34665   0.00000  Uiso   1.00
C144   C     0.13252   0.85027   0.47910   0.00000  Uiso   1.00
C145   C     0.06258   0.90444   0.45525   0.00000  Uiso   1.00
C146   C     0.08135   0.97233   0.39690   0.00000  Uiso   1.00
C147   C     0.07711   0.09159   0.30439   0.00000  Uiso   1.00
C148   C     0.19769   0.79198   0.61571   0.00000  Uiso   1.00
C149   C     0.18253   0.79718   0.70671   0.00000  Uiso   1.00
C150   C     0.25617   0.81602   0.76338   0.00000  Uiso   1.00
C151   C     0.35312   0.84478   0.88296   0.00000  Uiso   1.00
C152   C     0.28457   0.79643   0.48076   0.00000  Uiso   1.00
C153   C     0.24411   0.70410   0.45587   0.00000  Uiso   1.00
C154   C     0.28478   0.63795   0.40594   0.00000  Uiso   1.00
C155   C     0.23670   0.55806   0.39040   0.00000  Uiso   1.00
C156   C     0.21818   0.86344   0.44587   0.00000  Uiso   1.00
C157   C     0.23707   0.93127   0.38755   0.00000  Uiso   1.00
C158   C     0.16717   0.98552   0.36361   0.00000  Uiso   1.00
C159   C     0.28335   0.80515   0.58248   0.00000  Uiso   1.00
C160   C     0.35703   0.82400   0.63901   0.00000  Uiso   1.00
C161   C     0.34199   0.82921   0.73008   0.00000  Uiso   1.00
H162   H     0.06017   0.76194   0.56783   0.00000  Uiso   1.00
H163   H     0.04400   0.60096   0.49936   0.00000  Uiso   1.00
H164   H     0.99629   0.89424   0.48099   0.00000  Uiso   1.00
H165   H     0.11624   0.78698   0.73241   0.00000  Uiso   1.00
H166   H     0.06383   0.42831   0.40878   0.00000  Uiso   1.00
H167   H     0.96325   0.04672   0.37005   0.00000  Uiso   1.00
H168   H     0.21617   0.82056   0.90023   0.00000  Uiso   1.00
H169   H     0.35127   0.80669   0.45489   0.00000  Uiso   1.00
H170   H     0.35107   0.64816   0.38023   0.00000  Uiso   1.00
H171   H     0.30337   0.94144   0.36185   0.00000  Uiso   1.00
H172   H     0.42331   0.83418   0.61327   0.00000  Uiso   1.00
H173   H     0.31307   0.46662   0.31208   0.00000  Uiso   1.00
H174   H     0.21249   0.08503   0.27335   0.00000  Uiso   1.00
H175   H     0.46541   0.85887   0.80353   0.00000  Uiso   1.00
O176   O     0.18306   0.34239   0.31332   0.00000  Uiso   1.00
O177   O     0.05110   0.15372   0.26253   0.00000  Uiso   1.00
O178   O     0.38293   0.85700   0.95811   0.00000  Uiso   1.00
N179   N     0.12252   0.45907   0.39628   0.00000  Uiso   1.00
N180   N     0.02848   0.03724   0.36006   0.00000  Uiso   1.00
N181   N     0.26494   0.82582   0.85573   0.00000  Uiso   1.00
N182   N     0.25664   0.47969   0.34425   0.00000  Uiso   1.00
N183   N     0.16259   0.05785   0.30803   0.00000  Uiso   1.00
N184   N     0.39905   0.84643   0.80370   0.00000  Uiso   1.00
C185   C     0.54221   0.12705   0.77219   0.00000  Uiso   1.00
C186   C     0.48940   0.15857   0.69098   0.00000  Uiso   1.00
C187   C     0.47402   0.11032   0.61111   0.00000  Uiso   1.00
C188   C     0.42411   0.15087   0.54493   0.00000  Uiso   1.00
C189   C     0.34715   0.18676   0.41682   0.00000  Uiso   1.00
C190   C     0.47933   0.13284   0.85033   0.00000  Uiso   1.00
C191   C     0.45550   0.06296   0.90445   0.00000  Uiso   1.00
C192   C     0.39712   0.08186   0.97241   0.00000  Uiso   1.00
C193   C     0.30458   0.07782   0.09175   0.00000  Uiso   1.00
C194   C     0.61588   0.19786   0.79204   0.00000  Uiso   1.00
C195   C     0.70686   0.18265   0.79716   0.00000  Uiso   1.00
C196   C     0.76344   0.25629   0.81606   0.00000  Uiso   1.00
C197   C     0.88291   0.35321   0.84488   0.00000  Uiso   1.00
C198   C     0.48093   0.28485   0.79667   0.00000  Uiso   1.00
C199   C     0.45612   0.24428   0.70428   0.00000  Uiso   1.00
C200   C     0.40622   0.28492   0.63819   0.00000  Uiso   1.00
C201   C     0.39077   0.23674   0.55824   0.00000  Uiso   1.00
C202   C     0.44605   0.21855   0.86363   0.00000  Uiso   1.00
C203   C     0.38770   0.23755   0.93153   0.00000  Uiso   1.00
C204   C     0.36378   0.16772   0.98573   0.00000  Uiso   1.00
C205   C     0.58260   0.28358   0.80533   0.00000  Uiso   1.00
C206   C     0.63906   0.35725   0.82423   0.00000  Uiso   1.00
C207   C     0.73010   0.34216   0.82938   0.00000  Uiso   1.00
H208   H     0.56812   0.06031   0.76185   0.00000  Uiso   1.00
H209   H     0.49978   0.04399   0.60086   0.00000  Uiso   1.00
H210   H     0.48127   0.99665   0.89415   0.00000  Uiso   1.00
H211   H     0.73259   0.11632   0.78687   0.00000  Uiso   1.00
H212   H     0.40932   0.06368   0.42824   0.00000  Uiso   1.00
H213   H     0.37031   0.96385   0.04669   0.00000  Uiso   1.00
H214   H     0.90026   0.21621   0.82048   0.00000  Uiso   1.00
H215   H     0.45501   0.35158   0.80702   0.00000  Uiso   1.00
H216   H     0.38047   0.35124   0.64850   0.00000  Uiso   1.00
H217   H     0.36196   0.30389   0.94180   0.00000  Uiso   1.00
H218   H     0.61328   0.42357   0.83452   0.00000  Uiso   1.00
H219   H     0.31248   0.31305   0.46691   0.00000  Uiso   1.00
H220   H     0.27347   0.21323   0.08537   0.00000  Uiso   1.00
H221   H     0.80342   0.46558   0.85915   0.00000  Uiso   1.00
O222   O     0.31388   0.18288   0.34249   0.00000  Uiso   1.00
O223   O     0.26272   0.05191   0.15389   0.00000  Uiso   1.00
O224   O     0.95800   0.38299   0.85709   0.00000  Uiso   1.00
N225   N     0.39677   0.12242   0.45909   0.00000  Uiso   1.00
N226   N     0.36029   0.02909   0.03730   0.00000  Uiso   1.00
N227   N     0.85575   0.26501   0.82583   0.00000  Uiso   1.00
N228   N     0.34466   0.25661   0.47990   0.00000  Uiso   1.00
N229   N     0.30818   0.16327   0.05811   0.00000  Uiso   1.00
N230   N     0.80364   0.39920   0.84664   0.00000  Uiso   1.00
C231   C     0.77183   0.54203   0.12752   0.00000  Uiso   1.00
C232   C     0.69067   0.48931   0.15904   0.00000  Uiso   1.00
C233   C     0.61087   0.47392   0.11081   0.00000  Uiso   1.00
C234   C     0.54471   0.42409   0.15134   0.00000  Uiso   1.00
C235   C     0.41668   0.34724   0.18722   0.00000  Uiso   1.00
C236   C     0.84998   0.47911   0.13320   0.00000  Uiso   1.00
C237   C     0.90414   0.45515   0.06324   0.00000  Uiso   1.00
C238   C     0.97210   0.39675   0.08203   0.00000  Uiso   1.00
C239   C     0.09144   0.30411   0.07782   0.00000  Uiso   1.00
C240   C     0.79158   0.61579   0.19843   0.00000  Uiso   1.00
C241   C     0.79666   0.70676   0.18333   0.00000  Uiso   1.00
C242   C     0.81548   0.76343   0.25704   0.00000  Uiso   1.00
C243   C     0.84415   0.88301   0.35410   0.00000  Uiso   1.00
C244   C     0.79625   0.48092   0.28527   0.00000  Uiso   1.00
C245   C     0.70393   0.45611   0.24472   0.00000  Uiso   1.00
C246   C     0.63788   0.40630   0.28534   0.00000  Uiso   1.00
C247   C     0.55799   0.39084   0.23718   0.00000  Uiso   1.00
C248   C     0.86324   0.44591   0.21888   0.00000  Uiso   1.00
C249   C     0.93115   0.38754   0.23778   0.00000  Uiso   1.00
C250   C     0.98538   0.36349   0.16787   0.00000  Uiso   1.00
C251   C     0.80484   0.58260   0.28412   0.00000  Uiso   1.00
C252   C     0.82366   0.63914   0.35786   0.00000  Uiso   1.00
C253   C     0.82876   0.73017   0.34288   0.00000  Uiso   1.00
H254   H     0.76152   0.56787   0.06081   0.00000  Uiso   1.00
H255   H     0.60063   0.49961   0.04450   0.00000  Uiso   1.00
H256   H     0.89386   0.48086   0.99695   0.00000  Uiso   1.00
H257   H     0.78640   0.73242   0.11701   0.00000  Uiso   1.00
H258   H     0.42813   0.40926   0.06418   0.00000  Uiso   1.00
H259   H     0.04643   0.36974   0.96393   0.00000  Uiso   1.00
H260   H     0.81982   0.90022   0.21711   0.00000  Uiso   1.00
H261   H     0.80657   0.45507   0.35198   0.00000  Uiso   1.00
H262   H     0.64816   0.38062   0.35165   0.00000  Uiso   1.00
H263   H     0.94139   0.36187   0.30409   0.00000  Uiso   1.00
H264   H     0.83392   0.61343   0.42416   0.00000  Uiso   1.00
H265   H     0.46670   0.31268   0.31347   0.00000  Uiso   1.00
H266   H     0.08501   0.27317   0.21322   0.00000  Uiso   1.00
H267   H     0.85840   0.80364   0.46640   0.00000  Uiso   1.00
O268   O     0.34240   0.31400   0.18334   0.00000  Uiso   1.00
O269   O     0.15361   0.26218   0.05181   0.00000  Uiso   1.00
O270   O     0.85629   0.95814   0.38398   0.00000  Uiso   1.00
N271   N     0.45894   0.39676   0.12291   0.00000  Uiso   1.00
N272   N     0.03701   0.35981   0.02917   0.00000  Uiso   1.00
N273   N     0.82517   0.85575   0.26587   0.00000  Uiso   1.00
N274   N     0.47969   0.34480   0.25705   0.00000  Uiso   1.00
N275   N     0.05777   0.30784   0.16331   0.00000  Uiso   1.00
N276   N     0.84593   0.80378   0.40001   0.00000  Uiso   1.00
