data_job_05199
_audit_creation_date              2018-12-19
_audit_creation_method            'Materials Studio'
_symmetry_space_group_name_H-M    'P1'
_symmetry_Int_Tables_number       1
_symmetry_cell_setting            triclinic
loop_
_symmetry_equiv_pos_as_xyz
  x,y,z
_cell_length_a                    22.3555
_cell_length_b                    24.3529
_cell_length_c                    11.7459
_cell_angle_alpha                 90.0000
_cell_angle_beta                  90.0000
_cell_angle_gamma                 90.0000
loop_
_atom_site_label
_atom_site_type_symbol
_atom_site_fract_x
_atom_site_fract_y
_atom_site_fract_z
_atom_site_U_iso_or_equiv
_atom_site_adp_type
_atom_site_occupancy
C1     C     0.93733   0.84529   0.03264   0.00000  Uiso   1.00
C2     C     0.89634   0.88749   0.08844   0.00000  Uiso   1.00
C3     C     0.91440   0.93672   0.13699   0.00000  Uiso   1.00
C4     C     0.87005   0.96966   0.18369   0.00000  Uiso   1.00
C5     C     0.81556   0.03757   0.27067   0.00000  Uiso   1.00
C6     C     0.92618   0.79132   0.09496   0.00000  Uiso   1.00
C7     C     0.96933   0.75970   0.14897   0.00000  Uiso   1.00
C8     C     0.95009   0.71168   0.20113   0.00000  Uiso   1.00
C9     C     0.94194   0.63027   0.29816   0.00000  Uiso   1.00
C10    C     0.91349   0.83715   0.91218   0.00000  Uiso   1.00
C11    C     0.94597   0.84405   0.81252   0.00000  Uiso   1.00
C12    C     0.91605   0.83461   0.71080   0.00000  Uiso   1.00
C13    C     0.88820   0.82435   0.52404   0.00000  Uiso   1.00
C14    C     0.82644   0.81624   0.02922   0.00000  Uiso   1.00
C15    C     0.83611   0.87170   0.08659   0.00000  Uiso   1.00
C16    C     0.79172   0.90458   0.13321   0.00000  Uiso   1.00
C17    C     0.80971   0.95386   0.18183   0.00000  Uiso   1.00
C18    C     0.86595   0.77554   0.09310   0.00000  Uiso   1.00
C19    C     0.84664   0.72756   0.14519   0.00000  Uiso   1.00
C20    C     0.88975   0.69587   0.19927   0.00000  Uiso   1.00
C21    C     0.85326   0.82137   0.91032   0.00000  Uiso   1.00
C22    C     0.82328   0.81191   0.80874   0.00000  Uiso   1.00
C23    C     0.85571   0.81880   0.70894   0.00000  Uiso   1.00
H24    H     0.98423   0.85757   0.03409   0.00000  Uiso   1.00
H25    H     0.96102   0.94891   0.13842   0.00000  Uiso   1.00
H26    H     0.01594   0.77192   0.15038   0.00000  Uiso   1.00
H27    H     0.99258   0.85626   0.81399   0.00000  Uiso   1.00
H28    H     0.90873   0.04322   0.25332   0.00000  Uiso   1.00
H29    H     0.02453   0.67000   0.27851   0.00000  Uiso   1.00
H30    H     0.97528   0.84785   0.56914   0.00000  Uiso   1.00
H31    H     0.77955   0.80395   0.02777   0.00000  Uiso   1.00
H32    H     0.74511   0.89236   0.13176   0.00000  Uiso   1.00
H33    H     0.80003   0.71536   0.14373   0.00000  Uiso   1.00
H34    H     0.77667   0.79970   0.80733   0.00000  Uiso   1.00
H35    H     0.73349   0.99732   0.24792   0.00000  Uiso   1.00
H36    H     0.84929   0.62409   0.27310   0.00000  Uiso   1.00
H37    H     0.80004   0.80195   0.56374   0.00000  Uiso   1.00
O38    O     0.80215   0.07938   0.31918   0.00000  Uiso   1.00
O39    O     0.95408   0.58973   0.35220   0.00000  Uiso   1.00
O40    O     0.88947   0.82307   0.42154   0.00000  Uiso   1.00
N41    N     0.87221   0.02029   0.23776   0.00000  Uiso   1.00
N42    N     0.98048   0.67135   0.26132   0.00000  Uiso   1.00
N43    N     0.93444   0.83762   0.59813   0.00000  Uiso   1.00
N44    N     0.77792   0.99559   0.23485   0.00000  Uiso   1.00
N45    N     0.88618   0.64665   0.25841   0.00000  Uiso   1.00
N46    N     0.84014   0.81292   0.59522   0.00000  Uiso   1.00
C47    C     0.05982   0.65472   0.60033   0.00000  Uiso   1.00
C48    C     0.10240   0.61337   0.54613   0.00000  Uiso   1.00
C49    C     0.08608   0.56371   0.49721   0.00000  Uiso   1.00
C50    C     0.13170   0.53170   0.45219   0.00000  Uiso   1.00
C51    C     0.18873   0.46492   0.36740   0.00000  Uiso   1.00
C52    C     0.07016   0.70886   0.53813   0.00000  Uiso   1.00
C53    C     0.02671   0.73948   0.48251   0.00000  Uiso   1.00
C54    C     0.04519   0.78785   0.43076   0.00000  Uiso   1.00
C55    C     0.05215   0.86933   0.33363   0.00000  Uiso   1.00
C56    C     0.08231   0.66349   0.72153   0.00000  Uiso   1.00
C57    C     0.04909   0.65598   0.82011   0.00000  Uiso   1.00
C58    C     0.07780   0.66617   0.92278   0.00000  Uiso   1.00
C59    C     0.10364   0.67720   0.11040   0.00000  Uiso   1.00
C60    C     0.16988   0.68618   0.60735   0.00000  Uiso   1.00
C61    C     0.16218   0.63047   0.54994   0.00000  Uiso   1.00
C62    C     0.20785   0.59852   0.50498   0.00000  Uiso   1.00
C63    C     0.19159   0.54882   0.45601   0.00000  Uiso   1.00
C64    C     0.12993   0.72595   0.54194   0.00000  Uiso   1.00
C65    C     0.14848   0.77429   0.49027   0.00000  Uiso   1.00
C66    C     0.10508   0.80497   0.43458   0.00000  Uiso   1.00
C67    C     0.14210   0.68058   0.72534   0.00000  Uiso   1.00
C68    C     0.17086   0.69078   0.82788   0.00000  Uiso   1.00
C69    C     0.13769   0.68329   0.92660   0.00000  Uiso   1.00
H70    H     0.01328   0.64142   0.59735   0.00000  Uiso   1.00
H71    H     0.03981   0.55051   0.49427   0.00000  Uiso   1.00
H72    H     0.98046   0.72625   0.47958   0.00000  Uiso   1.00
H73    H     0.00283   0.64276   0.81713   0.00000  Uiso   1.00
H74    H     0.09558   0.45726   0.38163   0.00000  Uiso   1.00
H75    H     0.97043   0.82783   0.35068   0.00000  Uiso   1.00
H76    H     0.01761   0.65177   0.06248   0.00000  Uiso   1.00
H77    H     0.21642   0.69949   0.61032   0.00000  Uiso   1.00
H78    H     0.25410   0.61176   0.50794   0.00000  Uiso   1.00
H79    H     0.19475   0.78750   0.49325   0.00000  Uiso   1.00
H80    H     0.21712   0.70401   0.83080   0.00000  Uiso   1.00
H81    H     0.26951   0.50697   0.39272   0.00000  Uiso   1.00
H82    H     0.14436   0.87754   0.36178   0.00000  Uiso   1.00
H83    H     0.19154   0.70149   0.07357   0.00000  Uiso   1.00
O84    O     0.20367   0.42337   0.31956   0.00000  Uiso   1.00
O85    O     0.03947   0.90954   0.27898   0.00000  Uiso   1.00
O86    O     0.10137   0.67856   0.21283   0.00000  Uiso   1.00
N87    N     0.13135   0.48099   0.39831   0.00000  Uiso   1.00
N88    N     0.01434   0.82745   0.36936   0.00000  Uiso   1.00
N89    N     0.05845   0.66287   0.03482   0.00000  Uiso   1.00
N90    N     0.22494   0.50774   0.40428   0.00000  Uiso   1.00
N91    N     0.10793   0.85420   0.37533   0.00000  Uiso   1.00
N92    N     0.15204   0.68962   0.04080   0.00000  Uiso   1.00
C93    C     0.06267   0.15471   0.03264   0.00000  Uiso   1.00
C94    C     0.10366   0.11251   0.08844   0.00000  Uiso   1.00
C95    C     0.08560   0.06328   0.13699   0.00000  Uiso   1.00
C96    C     0.12995   0.03034   0.18369   0.00000  Uiso   1.00
C97    C     0.18444   0.96243   0.27067   0.00000  Uiso   1.00
C98    C     0.07382   0.20868   0.09496   0.00000  Uiso   1.00
C99    C     0.03067   0.24030   0.14897   0.00000  Uiso   1.00
C100   C     0.04991   0.28832   0.20113   0.00000  Uiso   1.00
C101   C     0.05806   0.36973   0.29816   0.00000  Uiso   1.00
C102   C     0.08651   0.16285   0.91218   0.00000  Uiso   1.00
C103   C     0.05403   0.15595   0.81252   0.00000  Uiso   1.00
C104   C     0.08395   0.16539   0.71080   0.00000  Uiso   1.00
C105   C     0.11180   0.17565   0.52404   0.00000  Uiso   1.00
C106   C     0.17356   0.18376   0.02922   0.00000  Uiso   1.00
C107   C     0.16389   0.12830   0.08659   0.00000  Uiso   1.00
C108   C     0.20828   0.09542   0.13321   0.00000  Uiso   1.00
C109   C     0.19029   0.04614   0.18183   0.00000  Uiso   1.00
C110   C     0.13405   0.22446   0.09310   0.00000  Uiso   1.00
C111   C     0.15336   0.27244   0.14519   0.00000  Uiso   1.00
C112   C     0.11025   0.30413   0.19927   0.00000  Uiso   1.00
C113   C     0.14674   0.17863   0.91032   0.00000  Uiso   1.00
C114   C     0.17672   0.18809   0.80874   0.00000  Uiso   1.00
C115   C     0.14429   0.18120   0.70894   0.00000  Uiso   1.00
H116   H     0.01577   0.14243   0.03409   0.00000  Uiso   1.00
H117   H     0.03898   0.05109   0.13842   0.00000  Uiso   1.00
H118   H     0.98406   0.22808   0.15038   0.00000  Uiso   1.00
H119   H     0.00742   0.14374   0.81399   0.00000  Uiso   1.00
H120   H     0.09127   0.95678   0.25332   0.00000  Uiso   1.00
H121   H     0.97547   0.33000   0.27851   0.00000  Uiso   1.00
H122   H     0.02472   0.15215   0.56914   0.00000  Uiso   1.00
H123   H     0.22045   0.19605   0.02777   0.00000  Uiso   1.00
H124   H     0.25489   0.10764   0.13176   0.00000  Uiso   1.00
H125   H     0.19997   0.28464   0.14373   0.00000  Uiso   1.00
H126   H     0.22333   0.20030   0.80733   0.00000  Uiso   1.00
H127   H     0.26651   0.00268   0.24792   0.00000  Uiso   1.00
H128   H     0.15071   0.37591   0.27310   0.00000  Uiso   1.00
H129   H     0.19996   0.19805   0.56374   0.00000  Uiso   1.00
O130   O     0.19785   0.92062   0.31918   0.00000  Uiso   1.00
O131   O     0.04592   0.41027   0.35220   0.00000  Uiso   1.00
O132   O     0.11053   0.17693   0.42154   0.00000  Uiso   1.00
N133   N     0.12779   0.97971   0.23776   0.00000  Uiso   1.00
N134   N     0.01952   0.32865   0.26132   0.00000  Uiso   1.00
N135   N     0.06556   0.16238   0.59813   0.00000  Uiso   1.00
N136   N     0.22208   0.00441   0.23485   0.00000  Uiso   1.00
N137   N     0.11382   0.35335   0.25841   0.00000  Uiso   1.00
N138   N     0.15986   0.18708   0.59522   0.00000  Uiso   1.00
C139   C     0.94018   0.34528   0.60033   0.00000  Uiso   1.00
C140   C     0.89760   0.38663   0.54613   0.00000  Uiso   1.00
C141   C     0.91392   0.43629   0.49721   0.00000  Uiso   1.00
C142   C     0.86830   0.46830   0.45219   0.00000  Uiso   1.00
C143   C     0.81127   0.53508   0.36740   0.00000  Uiso   1.00
C144   C     0.92984   0.29114   0.53813   0.00000  Uiso   1.00
C145   C     0.97329   0.26052   0.48251   0.00000  Uiso   1.00
C146   C     0.95481   0.21215   0.43076   0.00000  Uiso   1.00
C147   C     0.94785   0.13067   0.33363   0.00000  Uiso   1.00
C148   C     0.91769   0.33651   0.72153   0.00000  Uiso   1.00
C149   C     0.95091   0.34402   0.82011   0.00000  Uiso   1.00
C150   C     0.92220   0.33383   0.92278   0.00000  Uiso   1.00
C151   C     0.89636   0.32280   0.11040   0.00000  Uiso   1.00
C152   C     0.83012   0.31382   0.60735   0.00000  Uiso   1.00
C153   C     0.83782   0.36953   0.54994   0.00000  Uiso   1.00
C154   C     0.79215   0.40148   0.50498   0.00000  Uiso   1.00
C155   C     0.80841   0.45118   0.45601   0.00000  Uiso   1.00
C156   C     0.87007   0.27405   0.54194   0.00000  Uiso   1.00
C157   C     0.85152   0.22571   0.49027   0.00000  Uiso   1.00
C158   C     0.89492   0.19503   0.43458   0.00000  Uiso   1.00
C159   C     0.85790   0.31942   0.72534   0.00000  Uiso   1.00
C160   C     0.82914   0.30922   0.82788   0.00000  Uiso   1.00
C161   C     0.86231   0.31671   0.92660   0.00000  Uiso   1.00
H162   H     0.98672   0.35858   0.59735   0.00000  Uiso   1.00
H163   H     0.96019   0.44949   0.49427   0.00000  Uiso   1.00
H164   H     0.01954   0.27375   0.47958   0.00000  Uiso   1.00
H165   H     0.99717   0.35724   0.81713   0.00000  Uiso   1.00
H166   H     0.90442   0.54274   0.38163   0.00000  Uiso   1.00
H167   H     0.02957   0.17217   0.35068   0.00000  Uiso   1.00
H168   H     0.98239   0.34823   0.06248   0.00000  Uiso   1.00
H169   H     0.78358   0.30051   0.61032   0.00000  Uiso   1.00
H170   H     0.74590   0.38824   0.50794   0.00000  Uiso   1.00
H171   H     0.80525   0.21250   0.49325   0.00000  Uiso   1.00
H172   H     0.78288   0.29599   0.83080   0.00000  Uiso   1.00
H173   H     0.73049   0.49303   0.39272   0.00000  Uiso   1.00
H174   H     0.85564   0.12246   0.36178   0.00000  Uiso   1.00
H175   H     0.80846   0.29851   0.07357   0.00000  Uiso   1.00
O176   O     0.79633   0.57663   0.31956   0.00000  Uiso   1.00
O177   O     0.96053   0.09046   0.27898   0.00000  Uiso   1.00
O178   O     0.89863   0.32144   0.21283   0.00000  Uiso   1.00
N179   N     0.86865   0.51901   0.39831   0.00000  Uiso   1.00
N180   N     0.98566   0.17255   0.36936   0.00000  Uiso   1.00
N181   N     0.94155   0.33713   0.03482   0.00000  Uiso   1.00
N182   N     0.77506   0.49226   0.40428   0.00000  Uiso   1.00
N183   N     0.89207   0.14580   0.37533   0.00000  Uiso   1.00
N184   N     0.84796   0.31038   0.04080   0.00000  Uiso   1.00
C185   C     0.56267   0.34529   0.96736   0.00000  Uiso   1.00
C186   C     0.60366   0.38749   0.91156   0.00000  Uiso   1.00
C187   C     0.58560   0.43672   0.86301   0.00000  Uiso   1.00
C188   C     0.62995   0.46966   0.81631   0.00000  Uiso   1.00
C189   C     0.68444   0.53757   0.72933   0.00000  Uiso   1.00
C190   C     0.57382   0.29132   0.90504   0.00000  Uiso   1.00
C191   C     0.53067   0.25970   0.85103   0.00000  Uiso   1.00
C192   C     0.54991   0.21168   0.79887   0.00000  Uiso   1.00
C193   C     0.55806   0.13027   0.70184   0.00000  Uiso   1.00
C194   C     0.58651   0.33715   0.08782   0.00000  Uiso   1.00
C195   C     0.55403   0.34405   0.18748   0.00000  Uiso   1.00
C196   C     0.58395   0.33461   0.28920   0.00000  Uiso   1.00
C197   C     0.61180   0.32435   0.47596   0.00000  Uiso   1.00
C198   C     0.67356   0.31624   0.97078   0.00000  Uiso   1.00
C199   C     0.66389   0.37170   0.91341   0.00000  Uiso   1.00
C200   C     0.70828   0.40458   0.86679   0.00000  Uiso   1.00
C201   C     0.69029   0.45386   0.81817   0.00000  Uiso   1.00
C202   C     0.63405   0.27554   0.90690   0.00000  Uiso   1.00
C203   C     0.65336   0.22756   0.85481   0.00000  Uiso   1.00
C204   C     0.61025   0.19587   0.80073   0.00000  Uiso   1.00
C205   C     0.64674   0.32137   0.08968   0.00000  Uiso   1.00
C206   C     0.67672   0.31191   0.19126   0.00000  Uiso   1.00
C207   C     0.64429   0.31880   0.29106   0.00000  Uiso   1.00
H208   H     0.51577   0.35757   0.96591   0.00000  Uiso   1.00
H209   H     0.53898   0.44891   0.86158   0.00000  Uiso   1.00
H210   H     0.48406   0.27192   0.84962   0.00000  Uiso   1.00
H211   H     0.50742   0.35626   0.18601   0.00000  Uiso   1.00
H212   H     0.59127   0.54322   0.74668   0.00000  Uiso   1.00
H213   H     0.47547   0.17000   0.72149   0.00000  Uiso   1.00
H214   H     0.52472   0.34785   0.43086   0.00000  Uiso   1.00
H215   H     0.72045   0.30395   0.97223   0.00000  Uiso   1.00
H216   H     0.75489   0.39236   0.86824   0.00000  Uiso   1.00
H217   H     0.69997   0.21536   0.85627   0.00000  Uiso   1.00
H218   H     0.72333   0.29970   0.19267   0.00000  Uiso   1.00
H219   H     0.76651   0.49732   0.75208   0.00000  Uiso   1.00
H220   H     0.65071   0.12409   0.72690   0.00000  Uiso   1.00
H221   H     0.69996   0.30195   0.43626   0.00000  Uiso   1.00
O222   O     0.69785   0.57938   0.68082   0.00000  Uiso   1.00
O223   O     0.54592   0.08973   0.64780   0.00000  Uiso   1.00
O224   O     0.61053   0.32307   0.57846   0.00000  Uiso   1.00
N225   N     0.62779   0.52029   0.76224   0.00000  Uiso   1.00
N226   N     0.51952   0.17135   0.73868   0.00000  Uiso   1.00
N227   N     0.56556   0.33762   0.40187   0.00000  Uiso   1.00
N228   N     0.72208   0.49559   0.76515   0.00000  Uiso   1.00
N229   N     0.61382   0.14665   0.74159   0.00000  Uiso   1.00
N230   N     0.65986   0.31292   0.40478   0.00000  Uiso   1.00
C231   C     0.44018   0.15472   0.39967   0.00000  Uiso   1.00
C232   C     0.39760   0.11337   0.45387   0.00000  Uiso   1.00
C233   C     0.41392   0.06371   0.50279   0.00000  Uiso   1.00
C234   C     0.36830   0.03170   0.54781   0.00000  Uiso   1.00
C235   C     0.31127   0.96492   0.63260   0.00000  Uiso   1.00
C236   C     0.42984   0.20886   0.46187   0.00000  Uiso   1.00
C237   C     0.47329   0.23948   0.51749   0.00000  Uiso   1.00
C238   C     0.45481   0.28785   0.56924   0.00000  Uiso   1.00
C239   C     0.44785   0.36933   0.66637   0.00000  Uiso   1.00
C240   C     0.41769   0.16349   0.27847   0.00000  Uiso   1.00
C241   C     0.45091   0.15598   0.17989   0.00000  Uiso   1.00
C242   C     0.42220   0.16617   0.07722   0.00000  Uiso   1.00
C243   C     0.39636   0.17720   0.88960   0.00000  Uiso   1.00
C244   C     0.33012   0.18618   0.39265   0.00000  Uiso   1.00
C245   C     0.33782   0.13047   0.45006   0.00000  Uiso   1.00
C246   C     0.29215   0.09852   0.49502   0.00000  Uiso   1.00
C247   C     0.30841   0.04882   0.54399   0.00000  Uiso   1.00
C248   C     0.37007   0.22595   0.45806   0.00000  Uiso   1.00
C249   C     0.35152   0.27429   0.50973   0.00000  Uiso   1.00
C250   C     0.39492   0.30497   0.56542   0.00000  Uiso   1.00
C251   C     0.35790   0.18058   0.27466   0.00000  Uiso   1.00
C252   C     0.32914   0.19078   0.17212   0.00000  Uiso   1.00
C253   C     0.36231   0.18329   0.07340   0.00000  Uiso   1.00
H254   H     0.48672   0.14142   0.40265   0.00000  Uiso   1.00
H255   H     0.46019   0.05051   0.50573   0.00000  Uiso   1.00
H256   H     0.51954   0.22625   0.52042   0.00000  Uiso   1.00
H257   H     0.49717   0.14276   0.18287   0.00000  Uiso   1.00
H258   H     0.40442   0.95726   0.61837   0.00000  Uiso   1.00
H259   H     0.52957   0.32783   0.64932   0.00000  Uiso   1.00
H260   H     0.48239   0.15177   0.93752   0.00000  Uiso   1.00
H261   H     0.28358   0.19949   0.38968   0.00000  Uiso   1.00
H262   H     0.24590   0.11176   0.49206   0.00000  Uiso   1.00
H263   H     0.30525   0.28750   0.50675   0.00000  Uiso   1.00
H264   H     0.28288   0.20401   0.16920   0.00000  Uiso   1.00
H265   H     0.23049   0.00697   0.60728   0.00000  Uiso   1.00
H266   H     0.35564   0.37754   0.63822   0.00000  Uiso   1.00
H267   H     0.30846   0.20149   0.92643   0.00000  Uiso   1.00
O268   O     0.29633   0.92337   0.68044   0.00000  Uiso   1.00
O269   O     0.46053   0.40954   0.72102   0.00000  Uiso   1.00
O270   O     0.39863   0.17856   0.78717   0.00000  Uiso   1.00
N271   N     0.36865   0.98099   0.60169   0.00000  Uiso   1.00
N272   N     0.48566   0.32745   0.63064   0.00000  Uiso   1.00
N273   N     0.44155   0.16287   0.96517   0.00000  Uiso   1.00
N274   N     0.27506   0.00774   0.59572   0.00000  Uiso   1.00
N275   N     0.39207   0.35420   0.62467   0.00000  Uiso   1.00
N276   N     0.34796   0.18962   0.95920   0.00000  Uiso   1.00
C277   C     0.43733   0.65471   0.96736   0.00000  Uiso   1.00
C278   C     0.39634   0.61251   0.91156   0.00000  Uiso   1.00
C279   C     0.41440   0.56328   0.86301   0.00000  Uiso   1.00
C280   C     0.37005   0.53034   0.81631   0.00000  Uiso   1.00
C281   C     0.31556   0.46243   0.72933   0.00000  Uiso   1.00
C282   C     0.42618   0.70868   0.90504   0.00000  Uiso   1.00
C283   C     0.46933   0.74030   0.85103   0.00000  Uiso   1.00
C284   C     0.45009   0.78832   0.79887   0.00000  Uiso   1.00
C285   C     0.44194   0.86973   0.70184   0.00000  Uiso   1.00
C286   C     0.41349   0.66285   0.08782   0.00000  Uiso   1.00
C287   C     0.44597   0.65595   0.18748   0.00000  Uiso   1.00
C288   C     0.41605   0.66539   0.28920   0.00000  Uiso   1.00
C289   C     0.38820   0.67565   0.47596   0.00000  Uiso   1.00
C290   C     0.32644   0.68376   0.97078   0.00000  Uiso   1.00
C291   C     0.33611   0.62830   0.91341   0.00000  Uiso   1.00
C292   C     0.29172   0.59542   0.86679   0.00000  Uiso   1.00
C293   C     0.30971   0.54614   0.81817   0.00000  Uiso   1.00
C294   C     0.36595   0.72446   0.90690   0.00000  Uiso   1.00
C295   C     0.34664   0.77244   0.85481   0.00000  Uiso   1.00
C296   C     0.38975   0.80413   0.80073   0.00000  Uiso   1.00
C297   C     0.35326   0.67863   0.08968   0.00000  Uiso   1.00
C298   C     0.32328   0.68809   0.19126   0.00000  Uiso   1.00
C299   C     0.35571   0.68120   0.29106   0.00000  Uiso   1.00
H300   H     0.48423   0.64243   0.96591   0.00000  Uiso   1.00
H301   H     0.46102   0.55108   0.86158   0.00000  Uiso   1.00
H302   H     0.51594   0.72808   0.84962   0.00000  Uiso   1.00
H303   H     0.49258   0.64374   0.18601   0.00000  Uiso   1.00
H304   H     0.40873   0.45678   0.74668   0.00000  Uiso   1.00
H305   H     0.52453   0.83000   0.72149   0.00000  Uiso   1.00
H306   H     0.47528   0.65215   0.43086   0.00000  Uiso   1.00
H307   H     0.27955   0.69605   0.97223   0.00000  Uiso   1.00
H308   H     0.24511   0.60764   0.86824   0.00000  Uiso   1.00
H309   H     0.30003   0.78464   0.85627   0.00000  Uiso   1.00
H310   H     0.27667   0.70030   0.19267   0.00000  Uiso   1.00
H311   H     0.23349   0.50268   0.75208   0.00000  Uiso   1.00
H312   H     0.34929   0.87591   0.72690   0.00000  Uiso   1.00
H313   H     0.30004   0.69805   0.43626   0.00000  Uiso   1.00
O314   O     0.30215   0.42062   0.68082   0.00000  Uiso   1.00
O315   O     0.45408   0.91027   0.64780   0.00000  Uiso   1.00
O316   O     0.38947   0.67693   0.57846   0.00000  Uiso   1.00
N317   N     0.37221   0.47971   0.76224   0.00000  Uiso   1.00
N318   N     0.48048   0.82865   0.73868   0.00000  Uiso   1.00
N319   N     0.43444   0.66238   0.40187   0.00000  Uiso   1.00
N320   N     0.27792   0.50441   0.76515   0.00000  Uiso   1.00
N321   N     0.38618   0.85335   0.74159   0.00000  Uiso   1.00
N322   N     0.34014   0.68708   0.40478   0.00000  Uiso   1.00
C323   C     0.55982   0.84528   0.39967   0.00000  Uiso   1.00
C324   C     0.60240   0.88663   0.45387   0.00000  Uiso   1.00
C325   C     0.58608   0.93629   0.50279   0.00000  Uiso   1.00
C326   C     0.63170   0.96830   0.54781   0.00000  Uiso   1.00
C327   C     0.68873   0.03508   0.63260   0.00000  Uiso   1.00
C328   C     0.57016   0.79114   0.46187   0.00000  Uiso   1.00
C329   C     0.52671   0.76052   0.51749   0.00000  Uiso   1.00
C330   C     0.54519   0.71215   0.56924   0.00000  Uiso   1.00
C331   C     0.55215   0.63067   0.66637   0.00000  Uiso   1.00
C332   C     0.58231   0.83651   0.27847   0.00000  Uiso   1.00
C333   C     0.54909   0.84402   0.17989   0.00000  Uiso   1.00
C334   C     0.57780   0.83383   0.07722   0.00000  Uiso   1.00
C335   C     0.60364   0.82280   0.88960   0.00000  Uiso   1.00
C336   C     0.66988   0.81382   0.39265   0.00000  Uiso   1.00
C337   C     0.66218   0.86953   0.45006   0.00000  Uiso   1.00
C338   C     0.70785   0.90148   0.49502   0.00000  Uiso   1.00
C339   C     0.69159   0.95118   0.54399   0.00000  Uiso   1.00
C340   C     0.62993   0.77405   0.45806   0.00000  Uiso   1.00
C341   C     0.64848   0.72571   0.50973   0.00000  Uiso   1.00
C342   C     0.60508   0.69503   0.56542   0.00000  Uiso   1.00
C343   C     0.64210   0.81942   0.27466   0.00000  Uiso   1.00
C344   C     0.67086   0.80922   0.17212   0.00000  Uiso   1.00
C345   C     0.63769   0.81671   0.07340   0.00000  Uiso   1.00
H346   H     0.51328   0.85858   0.40265   0.00000  Uiso   1.00
H347   H     0.53981   0.94949   0.50573   0.00000  Uiso   1.00
H348   H     0.48046   0.77375   0.52042   0.00000  Uiso   1.00
H349   H     0.50283   0.85724   0.18287   0.00000  Uiso   1.00
H350   H     0.59558   0.04274   0.61837   0.00000  Uiso   1.00
H351   H     0.47043   0.67217   0.64932   0.00000  Uiso   1.00
H352   H     0.51761   0.84823   0.93752   0.00000  Uiso   1.00
H353   H     0.71642   0.80051   0.38968   0.00000  Uiso   1.00
H354   H     0.75410   0.88824   0.49206   0.00000  Uiso   1.00
H355   H     0.69475   0.71250   0.50675   0.00000  Uiso   1.00
H356   H     0.71712   0.79599   0.16920   0.00000  Uiso   1.00
H357   H     0.76951   0.99303   0.60728   0.00000  Uiso   1.00
H358   H     0.64436   0.62246   0.63822   0.00000  Uiso   1.00
H359   H     0.69154   0.79851   0.92643   0.00000  Uiso   1.00
O360   O     0.70367   0.07663   0.68044   0.00000  Uiso   1.00
O361   O     0.53947   0.59046   0.72102   0.00000  Uiso   1.00
O362   O     0.60137   0.82144   0.78717   0.00000  Uiso   1.00
N363   N     0.63135   0.01901   0.60169   0.00000  Uiso   1.00
N364   N     0.51434   0.67255   0.63064   0.00000  Uiso   1.00
N365   N     0.55845   0.83713   0.96517   0.00000  Uiso   1.00
N366   N     0.72494   0.99226   0.59572   0.00000  Uiso   1.00
N367   N     0.60793   0.64580   0.62467   0.00000  Uiso   1.00
N368   N     0.65204   0.81038   0.95920   0.00000  Uiso   1.00
