data_job_01014
_audit_creation_date              2018-12-19
_audit_creation_method            'Materials Studio'
_symmetry_space_group_name_H-M    'P1'
_symmetry_Int_Tables_number       1
_symmetry_cell_setting            triclinic
loop_
_symmetry_equiv_pos_as_xyz
  x,y,z
_cell_length_a                    15.3904
_cell_length_b                    9.6693
_cell_length_c                    30.7858
_cell_angle_alpha                 90.0000
_cell_angle_beta                  90.0000
_cell_angle_gamma                 90.0000
loop_
_atom_site_label
_atom_site_type_symbol
_atom_site_fract_x
_atom_site_fract_y
_atom_site_fract_z
_atom_site_U_iso_or_equiv
_atom_site_adp_type
_atom_site_occupancy
C1     C     0.08269   0.27596   0.09148   0.00000  Uiso   1.00
C2     C     0.11869   0.23724   0.13599   0.00000  Uiso   1.00
C3     C     0.18842   0.14957   0.14367   0.00000  Uiso   1.00
C4     C     0.21132   0.12728   0.18673   0.00000  Uiso   1.00
C5     C     0.27408   0.05750   0.25066   0.00000  Uiso   1.00
C6     C     0.98671   0.23691   0.09230   0.00000  Uiso   1.00
C7     C     0.94546   0.14898   0.06324   0.00000  Uiso   1.00
C8     C     0.85726   0.12643   0.06951   0.00000  Uiso   1.00
C9     C     0.71509   0.05621   0.06560   0.00000  Uiso   1.00
C10    C     0.08558   0.43342   0.08917   0.00000  Uiso   1.00
C11    C     0.12744   0.51074   0.05748   0.00000  Uiso   1.00
C12    C     0.12245   0.65365   0.06111   0.00000  Uiso   1.00
C13    C     0.13379   0.88855   0.05234   0.00000  Uiso   1.00
C14    C     0.99938   0.39227   0.15428   0.00000  Uiso   1.00
C15    C     0.07344   0.30041   0.17011   0.00000  Uiso   1.00
C16    C     0.09624   0.27826   0.21316   0.00000  Uiso   1.00
C17    C     0.16599   0.19058   0.22090   0.00000  Uiso   1.00
C18    C     0.94146   0.30008   0.12641   0.00000  Uiso   1.00
C19    C     0.85329   0.27766   0.13273   0.00000  Uiso   1.00
C20    C     0.81192   0.18972   0.10369   0.00000  Uiso   1.00
C21    C     0.04032   0.49660   0.12329   0.00000  Uiso   1.00
C22    C     0.03526   0.63942   0.12697   0.00000  Uiso   1.00
C23    C     0.07711   0.71693   0.09529   0.00000  Uiso   1.00
H24    H     0.11792   0.22677   0.06492   0.00000  Uiso   1.00
H25    H     0.22342   0.10069   0.11726   0.00000  Uiso   1.00
H26    H     0.98050   0.10012   0.03684   0.00000  Uiso   1.00
H27    H     0.16245   0.46181   0.03108   0.00000  Uiso   1.00
H28    H     0.32040   0.98873   0.19035   0.00000  Uiso   1.00
H29    H     0.80819   0.98756   0.02076   0.00000  Uiso   1.00
H30    H     0.19187   0.75026   0.00862   0.00000  Uiso   1.00
H31    H     0.96414   0.44145   0.18084   0.00000  Uiso   1.00
H32    H     0.06121   0.32716   0.23955   0.00000  Uiso   1.00
H33    H     0.81829   0.32658   0.15913   0.00000  Uiso   1.00
H34    H     0.00024   0.68827   0.15337   0.00000  Uiso   1.00
H35    H     0.18875   0.17253   0.28960   0.00000  Uiso   1.00
H36    H     0.67653   0.17136   0.12002   0.00000  Uiso   1.00
H37    H     0.06021   0.93406   0.10788   0.00000  Uiso   1.00
O38    O     0.32118   0.00153   0.27650   0.00000  Uiso   1.00
O39    O     0.64918   0.00001   0.05401   0.00000  Uiso   1.00
O40    O     0.15255   0.00066   0.03809   0.00000  Uiso   1.00
N41    N     0.27611   0.04770   0.20565   0.00000  Uiso   1.00
N42    N     0.79722   0.04658   0.04710   0.00000  Uiso   1.00
N43    N     0.15591   0.75965   0.03574   0.00000  Uiso   1.00
N44    N     0.20527   0.14660   0.25906   0.00000  Uiso   1.00
N45    N     0.72638   0.14548   0.10051   0.00000  Uiso   1.00
N46    N     0.08507   0.85855   0.08915   0.00000  Uiso   1.00
C47    C     0.41731   0.22404   0.59148   0.00000  Uiso   1.00
C48    C     0.38131   0.26276   0.63599   0.00000  Uiso   1.00
C49    C     0.31158   0.35043   0.64367   0.00000  Uiso   1.00
C50    C     0.28868   0.37272   0.68673   0.00000  Uiso   1.00
C51    C     0.22592   0.44250   0.75066   0.00000  Uiso   1.00
C52    C     0.51329   0.26309   0.59230   0.00000  Uiso   1.00
C53    C     0.55454   0.35102   0.56324   0.00000  Uiso   1.00
C54    C     0.64274   0.37357   0.56951   0.00000  Uiso   1.00
C55    C     0.78491   0.44379   0.56560   0.00000  Uiso   1.00
C56    C     0.41442   0.06658   0.58917   0.00000  Uiso   1.00
C57    C     0.37256   0.98926   0.55748   0.00000  Uiso   1.00
C58    C     0.37755   0.84635   0.56111   0.00000  Uiso   1.00
C59    C     0.36621   0.61145   0.55234   0.00000  Uiso   1.00
C60    C     0.50062   0.10773   0.65428   0.00000  Uiso   1.00
C61    C     0.42656   0.19959   0.67011   0.00000  Uiso   1.00
C62    C     0.40376   0.22174   0.71316   0.00000  Uiso   1.00
C63    C     0.33401   0.30942   0.72090   0.00000  Uiso   1.00
C64    C     0.55854   0.19992   0.62641   0.00000  Uiso   1.00
C65    C     0.64671   0.22234   0.63273   0.00000  Uiso   1.00
C66    C     0.68808   0.31028   0.60369   0.00000  Uiso   1.00
C67    C     0.45968   0.00340   0.62329   0.00000  Uiso   1.00
C68    C     0.46474   0.86058   0.62697   0.00000  Uiso   1.00
C69    C     0.42289   0.78307   0.59529   0.00000  Uiso   1.00
H70    H     0.38208   0.27323   0.56492   0.00000  Uiso   1.00
H71    H     0.27658   0.39931   0.61726   0.00000  Uiso   1.00
H72    H     0.51950   0.39988   0.53684   0.00000  Uiso   1.00
H73    H     0.33755   0.03819   0.53108   0.00000  Uiso   1.00
H74    H     0.17960   0.51127   0.69035   0.00000  Uiso   1.00
H75    H     0.69181   0.51244   0.52076   0.00000  Uiso   1.00
H76    H     0.30813   0.74974   0.50862   0.00000  Uiso   1.00
H77    H     0.53586   0.05855   0.68084   0.00000  Uiso   1.00
H78    H     0.43879   0.17284   0.73955   0.00000  Uiso   1.00
H79    H     0.68171   0.17342   0.65913   0.00000  Uiso   1.00
H80    H     0.49976   0.81173   0.65337   0.00000  Uiso   1.00
H81    H     0.31125   0.32747   0.78960   0.00000  Uiso   1.00
H82    H     0.82347   0.32864   0.62002   0.00000  Uiso   1.00
H83    H     0.43979   0.56594   0.60788   0.00000  Uiso   1.00
O84    O     0.17882   0.49847   0.77650   0.00000  Uiso   1.00
O85    O     0.85082   0.49999   0.55401   0.00000  Uiso   1.00
O86    O     0.34745   0.49934   0.53809   0.00000  Uiso   1.00
N87    N     0.22389   0.45230   0.70565   0.00000  Uiso   1.00
N88    N     0.70278   0.45342   0.54710   0.00000  Uiso   1.00
N89    N     0.34409   0.74035   0.53574   0.00000  Uiso   1.00
N90    N     0.29473   0.35340   0.75906   0.00000  Uiso   1.00
N91    N     0.77362   0.35452   0.60051   0.00000  Uiso   1.00
N92    N     0.41493   0.64145   0.58915   0.00000  Uiso   1.00
C93    C     0.91731   0.27596   0.40852   0.00000  Uiso   1.00
C94    C     0.88131   0.23724   0.36401   0.00000  Uiso   1.00
C95    C     0.81158   0.14957   0.35633   0.00000  Uiso   1.00
C96    C     0.78868   0.12728   0.31327   0.00000  Uiso   1.00
C97    C     0.72592   0.05750   0.24934   0.00000  Uiso   1.00
C98    C     0.01329   0.23691   0.40770   0.00000  Uiso   1.00
C99    C     0.05454   0.14898   0.43676   0.00000  Uiso   1.00
C100   C     0.14274   0.12643   0.43049   0.00000  Uiso   1.00
C101   C     0.28491   0.05621   0.43440   0.00000  Uiso   1.00
C102   C     0.91442   0.43342   0.41083   0.00000  Uiso   1.00
C103   C     0.87256   0.51074   0.44252   0.00000  Uiso   1.00
C104   C     0.87755   0.65365   0.43889   0.00000  Uiso   1.00
C105   C     0.86621   0.88855   0.44766   0.00000  Uiso   1.00
C106   C     0.00062   0.39227   0.34572   0.00000  Uiso   1.00
C107   C     0.92656   0.30041   0.32989   0.00000  Uiso   1.00
C108   C     0.90376   0.27826   0.28684   0.00000  Uiso   1.00
C109   C     0.83401   0.19058   0.27910   0.00000  Uiso   1.00
C110   C     0.05854   0.30008   0.37359   0.00000  Uiso   1.00
C111   C     0.14671   0.27766   0.36727   0.00000  Uiso   1.00
C112   C     0.18808   0.18972   0.39631   0.00000  Uiso   1.00
C113   C     0.95968   0.49660   0.37671   0.00000  Uiso   1.00
C114   C     0.96474   0.63942   0.37303   0.00000  Uiso   1.00
C115   C     0.92289   0.71693   0.40471   0.00000  Uiso   1.00
H116   H     0.88208   0.22677   0.43508   0.00000  Uiso   1.00
H117   H     0.77658   0.10069   0.38274   0.00000  Uiso   1.00
H118   H     0.01950   0.10012   0.46316   0.00000  Uiso   1.00
H119   H     0.83755   0.46181   0.46892   0.00000  Uiso   1.00
H120   H     0.67960   0.98873   0.30965   0.00000  Uiso   1.00
H121   H     0.19181   0.98756   0.47924   0.00000  Uiso   1.00
H122   H     0.80813   0.75026   0.49138   0.00000  Uiso   1.00
H123   H     0.03586   0.44145   0.31916   0.00000  Uiso   1.00
H124   H     0.93879   0.32716   0.26045   0.00000  Uiso   1.00
H125   H     0.18171   0.32658   0.34087   0.00000  Uiso   1.00
H126   H     0.99976   0.68827   0.34663   0.00000  Uiso   1.00
H127   H     0.81125   0.17253   0.21040   0.00000  Uiso   1.00
H128   H     0.32347   0.17136   0.37998   0.00000  Uiso   1.00
H129   H     0.93979   0.93406   0.39212   0.00000  Uiso   1.00
O130   O     0.67882   0.00153   0.22350   0.00000  Uiso   1.00
O131   O     0.35082   0.00001   0.44599   0.00000  Uiso   1.00
O132   O     0.84745   0.00066   0.46191   0.00000  Uiso   1.00
N133   N     0.72389   0.04770   0.29435   0.00000  Uiso   1.00
N134   N     0.20278   0.04658   0.45290   0.00000  Uiso   1.00
N135   N     0.84409   0.75965   0.46426   0.00000  Uiso   1.00
N136   N     0.79473   0.14660   0.24094   0.00000  Uiso   1.00
N137   N     0.27362   0.14548   0.39949   0.00000  Uiso   1.00
N138   N     0.91493   0.85855   0.41085   0.00000  Uiso   1.00
C139   C     0.58269   0.22404   0.90852   0.00000  Uiso   1.00
C140   C     0.61869   0.26276   0.86401   0.00000  Uiso   1.00
C141   C     0.68842   0.35043   0.85633   0.00000  Uiso   1.00
C142   C     0.71132   0.37272   0.81327   0.00000  Uiso   1.00
C143   C     0.77408   0.44250   0.74934   0.00000  Uiso   1.00
C144   C     0.48671   0.26309   0.90770   0.00000  Uiso   1.00
C145   C     0.44546   0.35102   0.93676   0.00000  Uiso   1.00
C146   C     0.35726   0.37357   0.93049   0.00000  Uiso   1.00
C147   C     0.21509   0.44379   0.93440   0.00000  Uiso   1.00
C148   C     0.58558   0.06658   0.91083   0.00000  Uiso   1.00
C149   C     0.62744   0.98926   0.94252   0.00000  Uiso   1.00
C150   C     0.62245   0.84635   0.93889   0.00000  Uiso   1.00
C151   C     0.63379   0.61145   0.94766   0.00000  Uiso   1.00
C152   C     0.49938   0.10773   0.84572   0.00000  Uiso   1.00
C153   C     0.57344   0.19959   0.82989   0.00000  Uiso   1.00
C154   C     0.59624   0.22174   0.78684   0.00000  Uiso   1.00
C155   C     0.66599   0.30942   0.77910   0.00000  Uiso   1.00
C156   C     0.44146   0.19992   0.87359   0.00000  Uiso   1.00
C157   C     0.35329   0.22234   0.86727   0.00000  Uiso   1.00
C158   C     0.31192   0.31028   0.89631   0.00000  Uiso   1.00
C159   C     0.54032   0.00340   0.87671   0.00000  Uiso   1.00
C160   C     0.53526   0.86058   0.87303   0.00000  Uiso   1.00
C161   C     0.57711   0.78307   0.90471   0.00000  Uiso   1.00
H162   H     0.61792   0.27323   0.93508   0.00000  Uiso   1.00
H163   H     0.72342   0.39931   0.88274   0.00000  Uiso   1.00
H164   H     0.48050   0.39988   0.96316   0.00000  Uiso   1.00
H165   H     0.66245   0.03819   0.96892   0.00000  Uiso   1.00
H166   H     0.82040   0.51127   0.80965   0.00000  Uiso   1.00
H167   H     0.30819   0.51244   0.97924   0.00000  Uiso   1.00
H168   H     0.69187   0.74974   0.99138   0.00000  Uiso   1.00
H169   H     0.46414   0.05855   0.81916   0.00000  Uiso   1.00
H170   H     0.56121   0.17284   0.76045   0.00000  Uiso   1.00
H171   H     0.31829   0.17342   0.84087   0.00000  Uiso   1.00
H172   H     0.50024   0.81173   0.84663   0.00000  Uiso   1.00
H173   H     0.68875   0.32747   0.71040   0.00000  Uiso   1.00
H174   H     0.17653   0.32864   0.87998   0.00000  Uiso   1.00
H175   H     0.56021   0.56594   0.89212   0.00000  Uiso   1.00
O176   O     0.82118   0.49847   0.72350   0.00000  Uiso   1.00
O177   O     0.14918   0.49999   0.94599   0.00000  Uiso   1.00
O178   O     0.65255   0.49934   0.96191   0.00000  Uiso   1.00
N179   N     0.77611   0.45230   0.79435   0.00000  Uiso   1.00
N180   N     0.29722   0.45342   0.95290   0.00000  Uiso   1.00
N181   N     0.65591   0.74035   0.96426   0.00000  Uiso   1.00
N182   N     0.70527   0.35340   0.74094   0.00000  Uiso   1.00
N183   N     0.22638   0.35452   0.89949   0.00000  Uiso   1.00
N184   N     0.58507   0.64145   0.91085   0.00000  Uiso   1.00
C185   C     0.91731   0.72404   0.90852   0.00000  Uiso   1.00
C186   C     0.88131   0.76276   0.86401   0.00000  Uiso   1.00
C187   C     0.81158   0.85043   0.85633   0.00000  Uiso   1.00
C188   C     0.78868   0.87272   0.81327   0.00000  Uiso   1.00
C189   C     0.72592   0.94250   0.74934   0.00000  Uiso   1.00
C190   C     0.01329   0.76309   0.90770   0.00000  Uiso   1.00
C191   C     0.05454   0.85102   0.93676   0.00000  Uiso   1.00
C192   C     0.14274   0.87357   0.93049   0.00000  Uiso   1.00
C193   C     0.28491   0.94379   0.93440   0.00000  Uiso   1.00
C194   C     0.91442   0.56658   0.91083   0.00000  Uiso   1.00
C195   C     0.87256   0.48926   0.94252   0.00000  Uiso   1.00
C196   C     0.87755   0.34635   0.93889   0.00000  Uiso   1.00
C197   C     0.86621   0.11145   0.94766   0.00000  Uiso   1.00
C198   C     0.00062   0.60773   0.84572   0.00000  Uiso   1.00
C199   C     0.92656   0.69959   0.82989   0.00000  Uiso   1.00
C200   C     0.90376   0.72174   0.78684   0.00000  Uiso   1.00
C201   C     0.83401   0.80942   0.77910   0.00000  Uiso   1.00
C202   C     0.05854   0.69992   0.87359   0.00000  Uiso   1.00
C203   C     0.14671   0.72234   0.86727   0.00000  Uiso   1.00
C204   C     0.18808   0.81028   0.89631   0.00000  Uiso   1.00
C205   C     0.95968   0.50340   0.87671   0.00000  Uiso   1.00
C206   C     0.96474   0.36058   0.87303   0.00000  Uiso   1.00
C207   C     0.92289   0.28307   0.90471   0.00000  Uiso   1.00
H208   H     0.88208   0.77323   0.93508   0.00000  Uiso   1.00
H209   H     0.77658   0.89931   0.88274   0.00000  Uiso   1.00
H210   H     0.01950   0.89988   0.96316   0.00000  Uiso   1.00
H211   H     0.83755   0.53819   0.96892   0.00000  Uiso   1.00
H212   H     0.67960   0.01127   0.80965   0.00000  Uiso   1.00
H213   H     0.19181   0.01244   0.97924   0.00000  Uiso   1.00
H214   H     0.80813   0.24974   0.99138   0.00000  Uiso   1.00
H215   H     0.03586   0.55855   0.81916   0.00000  Uiso   1.00
H216   H     0.93879   0.67284   0.76045   0.00000  Uiso   1.00
H217   H     0.18171   0.67342   0.84087   0.00000  Uiso   1.00
H218   H     0.99976   0.31173   0.84663   0.00000  Uiso   1.00
H219   H     0.81125   0.82747   0.71040   0.00000  Uiso   1.00
H220   H     0.32347   0.82864   0.87998   0.00000  Uiso   1.00
H221   H     0.93979   0.06594   0.89212   0.00000  Uiso   1.00
O222   O     0.67882   0.99847   0.72350   0.00000  Uiso   1.00
O223   O     0.35082   0.99999   0.94599   0.00000  Uiso   1.00
O224   O     0.84745   0.99934   0.96191   0.00000  Uiso   1.00
N225   N     0.72389   0.95230   0.79435   0.00000  Uiso   1.00
N226   N     0.20278   0.95342   0.95290   0.00000  Uiso   1.00
N227   N     0.84409   0.24035   0.96426   0.00000  Uiso   1.00
N228   N     0.79473   0.85340   0.74094   0.00000  Uiso   1.00
N229   N     0.27362   0.85452   0.89949   0.00000  Uiso   1.00
N230   N     0.91493   0.14145   0.91085   0.00000  Uiso   1.00
C231   C     0.58269   0.77596   0.40852   0.00000  Uiso   1.00
C232   C     0.61869   0.73724   0.36401   0.00000  Uiso   1.00
C233   C     0.68842   0.64957   0.35633   0.00000  Uiso   1.00
C234   C     0.71132   0.62728   0.31327   0.00000  Uiso   1.00
C235   C     0.77408   0.55750   0.24934   0.00000  Uiso   1.00
C236   C     0.48671   0.73691   0.40770   0.00000  Uiso   1.00
C237   C     0.44546   0.64898   0.43676   0.00000  Uiso   1.00
C238   C     0.35726   0.62643   0.43049   0.00000  Uiso   1.00
C239   C     0.21509   0.55621   0.43440   0.00000  Uiso   1.00
C240   C     0.58558   0.93342   0.41083   0.00000  Uiso   1.00
C241   C     0.62744   0.01074   0.44252   0.00000  Uiso   1.00
C242   C     0.62245   0.15365   0.43889   0.00000  Uiso   1.00
C243   C     0.63379   0.38855   0.44766   0.00000  Uiso   1.00
C244   C     0.49938   0.89227   0.34572   0.00000  Uiso   1.00
C245   C     0.57344   0.80041   0.32989   0.00000  Uiso   1.00
C246   C     0.59624   0.77826   0.28684   0.00000  Uiso   1.00
C247   C     0.66599   0.69058   0.27910   0.00000  Uiso   1.00
C248   C     0.44146   0.80008   0.37359   0.00000  Uiso   1.00
C249   C     0.35329   0.77766   0.36727   0.00000  Uiso   1.00
C250   C     0.31192   0.68972   0.39631   0.00000  Uiso   1.00
C251   C     0.54032   0.99660   0.37671   0.00000  Uiso   1.00
C252   C     0.53526   0.13942   0.37303   0.00000  Uiso   1.00
C253   C     0.57711   0.21693   0.40471   0.00000  Uiso   1.00
H254   H     0.61792   0.72677   0.43508   0.00000  Uiso   1.00
H255   H     0.72342   0.60069   0.38274   0.00000  Uiso   1.00
H256   H     0.48050   0.60012   0.46316   0.00000  Uiso   1.00
H257   H     0.66245   0.96181   0.46892   0.00000  Uiso   1.00
H258   H     0.82040   0.48873   0.30965   0.00000  Uiso   1.00
H259   H     0.30819   0.48756   0.47924   0.00000  Uiso   1.00
H260   H     0.69187   0.25026   0.49138   0.00000  Uiso   1.00
H261   H     0.46414   0.94145   0.31916   0.00000  Uiso   1.00
H262   H     0.56121   0.82716   0.26045   0.00000  Uiso   1.00
H263   H     0.31829   0.82658   0.34087   0.00000  Uiso   1.00
H264   H     0.50024   0.18827   0.34663   0.00000  Uiso   1.00
H265   H     0.68875   0.67253   0.21040   0.00000  Uiso   1.00
H266   H     0.17653   0.67136   0.37998   0.00000  Uiso   1.00
H267   H     0.56021   0.43406   0.39212   0.00000  Uiso   1.00
O268   O     0.82118   0.50153   0.22350   0.00000  Uiso   1.00
O269   O     0.14918   0.50001   0.44599   0.00000  Uiso   1.00
O270   O     0.65255   0.50066   0.46191   0.00000  Uiso   1.00
N271   N     0.77611   0.54770   0.29435   0.00000  Uiso   1.00
N272   N     0.29722   0.54658   0.45290   0.00000  Uiso   1.00
N273   N     0.65591   0.25965   0.46426   0.00000  Uiso   1.00
N274   N     0.70527   0.64660   0.24094   0.00000  Uiso   1.00
N275   N     0.22638   0.64548   0.39949   0.00000  Uiso   1.00
N276   N     0.58507   0.35855   0.41085   0.00000  Uiso   1.00
C277   C     0.08269   0.72404   0.59148   0.00000  Uiso   1.00
C278   C     0.11869   0.76276   0.63599   0.00000  Uiso   1.00
C279   C     0.18842   0.85043   0.64367   0.00000  Uiso   1.00
C280   C     0.21132   0.87272   0.68673   0.00000  Uiso   1.00
C281   C     0.27408   0.94250   0.75066   0.00000  Uiso   1.00
C282   C     0.98671   0.76309   0.59230   0.00000  Uiso   1.00
C283   C     0.94546   0.85102   0.56324   0.00000  Uiso   1.00
C284   C     0.85726   0.87357   0.56951   0.00000  Uiso   1.00
C285   C     0.71509   0.94379   0.56560   0.00000  Uiso   1.00
C286   C     0.08558   0.56658   0.58917   0.00000  Uiso   1.00
C287   C     0.12744   0.48926   0.55748   0.00000  Uiso   1.00
C288   C     0.12245   0.34635   0.56111   0.00000  Uiso   1.00
C289   C     0.13379   0.11145   0.55234   0.00000  Uiso   1.00
C290   C     0.99938   0.60773   0.65428   0.00000  Uiso   1.00
C291   C     0.07344   0.69959   0.67011   0.00000  Uiso   1.00
C292   C     0.09624   0.72174   0.71316   0.00000  Uiso   1.00
C293   C     0.16599   0.80942   0.72090   0.00000  Uiso   1.00
C294   C     0.94146   0.69992   0.62641   0.00000  Uiso   1.00
C295   C     0.85329   0.72234   0.63273   0.00000  Uiso   1.00
C296   C     0.81192   0.81028   0.60369   0.00000  Uiso   1.00
C297   C     0.04032   0.50340   0.62329   0.00000  Uiso   1.00
C298   C     0.03526   0.36058   0.62697   0.00000  Uiso   1.00
C299   C     0.07711   0.28307   0.59529   0.00000  Uiso   1.00
H300   H     0.11792   0.77323   0.56492   0.00000  Uiso   1.00
H301   H     0.22342   0.89931   0.61726   0.00000  Uiso   1.00
H302   H     0.98050   0.89988   0.53684   0.00000  Uiso   1.00
H303   H     0.16245   0.53819   0.53108   0.00000  Uiso   1.00
H304   H     0.32040   0.01127   0.69035   0.00000  Uiso   1.00
H305   H     0.80819   0.01244   0.52076   0.00000  Uiso   1.00
H306   H     0.19187   0.24974   0.50862   0.00000  Uiso   1.00
H307   H     0.96414   0.55855   0.68084   0.00000  Uiso   1.00
H308   H     0.06121   0.67284   0.73955   0.00000  Uiso   1.00
H309   H     0.81829   0.67342   0.65913   0.00000  Uiso   1.00
H310   H     0.00024   0.31173   0.65337   0.00000  Uiso   1.00
H311   H     0.18875   0.82747   0.78960   0.00000  Uiso   1.00
H312   H     0.67653   0.82864   0.62002   0.00000  Uiso   1.00
H313   H     0.06021   0.06594   0.60788   0.00000  Uiso   1.00
O314   O     0.32118   0.99847   0.77650   0.00000  Uiso   1.00
O315   O     0.64918   0.99999   0.55401   0.00000  Uiso   1.00
O316   O     0.15255   0.99934   0.53809   0.00000  Uiso   1.00
N317   N     0.27611   0.95230   0.70565   0.00000  Uiso   1.00
N318   N     0.79722   0.95342   0.54710   0.00000  Uiso   1.00
N319   N     0.15591   0.24035   0.53574   0.00000  Uiso   1.00
N320   N     0.20527   0.85340   0.75906   0.00000  Uiso   1.00
N321   N     0.72638   0.85452   0.60051   0.00000  Uiso   1.00
N322   N     0.08507   0.14145   0.58915   0.00000  Uiso   1.00
C323   C     0.41731   0.77596   0.09148   0.00000  Uiso   1.00
C324   C     0.38131   0.73724   0.13599   0.00000  Uiso   1.00
C325   C     0.31158   0.64957   0.14367   0.00000  Uiso   1.00
C326   C     0.28868   0.62728   0.18673   0.00000  Uiso   1.00
C327   C     0.22592   0.55750   0.25066   0.00000  Uiso   1.00
C328   C     0.51329   0.73691   0.09230   0.00000  Uiso   1.00
C329   C     0.55454   0.64898   0.06324   0.00000  Uiso   1.00
C330   C     0.64274   0.62643   0.06951   0.00000  Uiso   1.00
C331   C     0.78491   0.55621   0.06560   0.00000  Uiso   1.00
C332   C     0.41442   0.93342   0.08917   0.00000  Uiso   1.00
C333   C     0.37256   0.01074   0.05748   0.00000  Uiso   1.00
C334   C     0.37755   0.15365   0.06111   0.00000  Uiso   1.00
C335   C     0.36621   0.38855   0.05234   0.00000  Uiso   1.00
C336   C     0.50062   0.89227   0.15428   0.00000  Uiso   1.00
C337   C     0.42656   0.80041   0.17011   0.00000  Uiso   1.00
C338   C     0.40376   0.77826   0.21316   0.00000  Uiso   1.00
C339   C     0.33401   0.69058   0.22090   0.00000  Uiso   1.00
C340   C     0.55854   0.80008   0.12641   0.00000  Uiso   1.00
C341   C     0.64671   0.77766   0.13273   0.00000  Uiso   1.00
C342   C     0.68808   0.68972   0.10369   0.00000  Uiso   1.00
C343   C     0.45968   0.99660   0.12329   0.00000  Uiso   1.00
C344   C     0.46474   0.13942   0.12697   0.00000  Uiso   1.00
C345   C     0.42289   0.21693   0.09529   0.00000  Uiso   1.00
H346   H     0.38208   0.72677   0.06492   0.00000  Uiso   1.00
H347   H     0.27658   0.60069   0.11726   0.00000  Uiso   1.00
H348   H     0.51950   0.60012   0.03684   0.00000  Uiso   1.00
H349   H     0.33755   0.96181   0.03108   0.00000  Uiso   1.00
H350   H     0.17960   0.48873   0.19035   0.00000  Uiso   1.00
H351   H     0.69181   0.48756   0.02076   0.00000  Uiso   1.00
H352   H     0.30813   0.25026   0.00862   0.00000  Uiso   1.00
H353   H     0.53586   0.94145   0.18084   0.00000  Uiso   1.00
H354   H     0.43879   0.82716   0.23955   0.00000  Uiso   1.00
H355   H     0.68171   0.82658   0.15913   0.00000  Uiso   1.00
H356   H     0.49976   0.18827   0.15337   0.00000  Uiso   1.00
H357   H     0.31125   0.67253   0.28960   0.00000  Uiso   1.00
H358   H     0.82347   0.67136   0.12002   0.00000  Uiso   1.00
H359   H     0.43979   0.43406   0.10788   0.00000  Uiso   1.00
O360   O     0.17882   0.50153   0.27650   0.00000  Uiso   1.00
O361   O     0.85082   0.50001   0.05401   0.00000  Uiso   1.00
O362   O     0.34745   0.50066   0.03809   0.00000  Uiso   1.00
N363   N     0.22389   0.54770   0.20565   0.00000  Uiso   1.00
N364   N     0.70278   0.54658   0.04710   0.00000  Uiso   1.00
N365   N     0.34409   0.25965   0.03574   0.00000  Uiso   1.00
N366   N     0.29473   0.64660   0.25906   0.00000  Uiso   1.00
N367   N     0.77362   0.64548   0.10051   0.00000  Uiso   1.00
N368   N     0.41493   0.35855   0.08915   0.00000  Uiso   1.00
