data_job_01154
_audit_creation_date              2018-12-19
_audit_creation_method            'Materials Studio'
_symmetry_space_group_name_H-M    'P1'
_symmetry_Int_Tables_number       1
_symmetry_cell_setting            triclinic
loop_
_symmetry_equiv_pos_as_xyz
  x,y,z
_cell_length_a                    23.2839
_cell_length_b                    23.2839
_cell_length_c                    9.5671
_cell_angle_alpha                 90.0000
_cell_angle_beta                  90.0000
_cell_angle_gamma                 120.0000
loop_
_atom_site_label
_atom_site_type_symbol
_atom_site_fract_x
_atom_site_fract_y
_atom_site_fract_z
_atom_site_U_iso_or_equiv
_atom_site_adp_type
_atom_site_occupancy
C1     C     0.84664   0.26950   0.81350   0.00000  Uiso   1.00
C2     C     0.77202   0.23464   0.78826   0.00000  Uiso   1.00
C3     C     0.73704   0.18372   0.69347   0.00000  Uiso   1.00
C4     C     0.66902   0.15844   0.68599   0.00000  Uiso   1.00
C5     C     0.55800   0.10056   0.63392   0.00000  Uiso   1.00
C6     C     0.87229   0.34314   0.78953   0.00000  Uiso   1.00
C7     C     0.92163   0.38345   0.69582   0.00000  Uiso   1.00
C8     C     0.93802   0.44951   0.68943   0.00000  Uiso   1.00
C9     C     0.98272   0.56010   0.63941   0.00000  Uiso   1.00
C10    C     0.85544   0.26199   0.96912   0.00000  Uiso   1.00
C11    C     0.89063   0.23408   0.02642   0.00000  Uiso   1.00
C12    C     0.89285   0.23183   0.17124   0.00000  Uiso   1.00
C13    C     0.91139   0.21641   0.40006   0.00000  Uiso   1.00
C14    C     0.78805   0.31513   0.96881   0.00000  Uiso   1.00
C15    C     0.74020   0.25943   0.87262   0.00000  Uiso   1.00
C16    C     0.67221   0.23421   0.86530   0.00000  Uiso   1.00
C17    C     0.63713   0.18327   0.77051   0.00000  Uiso   1.00
C18    C     0.84047   0.36793   0.87389   0.00000  Uiso   1.00
C19    C     0.85680   0.43394   0.86765   0.00000  Uiso   1.00
C20    C     0.90614   0.47434   0.77394   0.00000  Uiso   1.00
C21    C     0.82362   0.28678   0.05349   0.00000  Uiso   1.00
C22    C     0.82580   0.28457   0.19825   0.00000  Uiso   1.00
C23    C     0.86097   0.25666   0.25575   0.00000  Uiso   1.00
H24    H     0.87142   0.25020   0.74782   0.00000  Uiso   1.00
H25    H     0.76168   0.16456   0.62819   0.00000  Uiso   1.00
H26    H     0.94625   0.36426   0.63056   0.00000  Uiso   1.00
H27    H     0.91525   0.21491   0.96110   0.00000  Uiso   1.00
H28    H     0.62599   0.08055   0.53272   0.00000  Uiso   1.00
H29    H     0.01518   0.50163   0.53775   0.00000  Uiso   1.00
H30    H     0.94981   0.18670   0.23477   0.00000  Uiso   1.00
H31    H     0.76327   0.33444   0.03449   0.00000  Uiso   1.00
H32    H     0.64760   0.25341   0.93059   0.00000  Uiso   1.00
H33    H     0.83217   0.45311   0.93295   0.00000  Uiso   1.00
H34    H     0.80116   0.30376   0.26350   0.00000  Uiso   1.00
H35    H     0.53340   0.15267   0.77815   0.00000  Uiso   1.00
H36    H     0.92259   0.57375   0.78318   0.00000  Uiso   1.00
H37    H     0.85721   0.25881   0.48020   0.00000  Uiso   1.00
O38    O     0.50556   0.06180   0.58188   0.00000  Uiso   1.00
O39    O     0.01616   0.61425   0.58850   0.00000  Uiso   1.00
O40    O     0.93040   0.20106   0.50297   0.00000  Uiso   1.00
N41    N     0.62007   0.10863   0.60476   0.00000  Uiso   1.00
N42    N     0.98393   0.50232   0.60945   0.00000  Uiso   1.00
N43    N     0.92283   0.20790   0.26110   0.00000  Uiso   1.00
N44    N     0.57025   0.14744   0.73683   0.00000  Uiso   1.00
N45    N     0.93411   0.54112   0.74151   0.00000  Uiso   1.00
N46    N     0.87301   0.24670   0.39317   0.00000  Uiso   1.00
C47    C     0.73050   0.57714   0.48017   0.00000  Uiso   1.00
C48    C     0.76536   0.53738   0.45493   0.00000  Uiso   1.00
C49    C     0.81628   0.55331   0.36013   0.00000  Uiso   1.00
C50    C     0.84156   0.51058   0.35266   0.00000  Uiso   1.00
C51    C     0.89944   0.45744   0.30059   0.00000  Uiso   1.00
C52    C     0.65686   0.52915   0.45620   0.00000  Uiso   1.00
C53    C     0.61655   0.53818   0.36248   0.00000  Uiso   1.00
C54    C     0.55049   0.48852   0.35610   0.00000  Uiso   1.00
C55    C     0.43990   0.42263   0.30608   0.00000  Uiso   1.00
C56    C     0.73801   0.59345   0.63579   0.00000  Uiso   1.00
C57    C     0.76592   0.65655   0.69308   0.00000  Uiso   1.00
C58    C     0.76817   0.66103   0.83791   0.00000  Uiso   1.00
C59    C     0.78359   0.69498   0.06673   0.00000  Uiso   1.00
C60    C     0.68487   0.47291   0.63548   0.00000  Uiso   1.00
C61    C     0.74057   0.48077   0.53929   0.00000  Uiso   1.00
C62    C     0.76579   0.43800   0.53196   0.00000  Uiso   1.00
C63    C     0.81673   0.45387   0.43717   0.00000  Uiso   1.00
C64    C     0.63207   0.47254   0.54055   0.00000  Uiso   1.00
C65    C     0.56606   0.42286   0.53432   0.00000  Uiso   1.00
C66    C     0.52566   0.43180   0.44061   0.00000  Uiso   1.00
C67    C     0.71322   0.53684   0.72015   0.00000  Uiso   1.00
C68    C     0.71543   0.54123   0.86491   0.00000  Uiso   1.00
C69    C     0.74334   0.60431   0.92242   0.00000  Uiso   1.00
H70    H     0.74980   0.62121   0.41449   0.00000  Uiso   1.00
H71    H     0.83544   0.59713   0.29486   0.00000  Uiso   1.00
H72    H     0.63574   0.58199   0.29723   0.00000  Uiso   1.00
H73    H     0.78509   0.70034   0.62777   0.00000  Uiso   1.00
H74    H     0.91945   0.54544   0.19939   0.00000  Uiso   1.00
H75    H     0.49837   0.51355   0.20441   0.00000  Uiso   1.00
H76    H     0.81330   0.76311   0.90144   0.00000  Uiso   1.00
H77    H     0.66556   0.42883   0.70116   0.00000  Uiso   1.00
H78    H     0.74659   0.39419   0.59726   0.00000  Uiso   1.00
H79    H     0.54689   0.37906   0.59962   0.00000  Uiso   1.00
H80    H     0.69624   0.49741   0.93016   0.00000  Uiso   1.00
H81    H     0.84733   0.38073   0.44482   0.00000  Uiso   1.00
H82    H     0.42625   0.34884   0.44985   0.00000  Uiso   1.00
H83    H     0.74119   0.59840   0.14687   0.00000  Uiso   1.00
O84    O     0.93820   0.44376   0.24855   0.00000  Uiso   1.00
O85    O     0.38575   0.40192   0.25516   0.00000  Uiso   1.00
O86    O     0.79894   0.72934   0.16963   0.00000  Uiso   1.00
N87    N     0.89137   0.51144   0.27143   0.00000  Uiso   1.00
N88    N     0.49768   0.48161   0.27611   0.00000  Uiso   1.00
N89    N     0.79210   0.71493   0.92777   0.00000  Uiso   1.00
N90    N     0.85256   0.42281   0.40350   0.00000  Uiso   1.00
N91    N     0.45888   0.39298   0.40818   0.00000  Uiso   1.00
N92    N     0.75330   0.62631   0.05984   0.00000  Uiso   1.00
C93    C     0.42286   0.15336   0.14683   0.00000  Uiso   1.00
C94    C     0.46262   0.22798   0.12160   0.00000  Uiso   1.00
C95    C     0.44669   0.26296   0.02680   0.00000  Uiso   1.00
C96    C     0.48942   0.33098   0.01932   0.00000  Uiso   1.00
C97    C     0.54256   0.44200   0.96726   0.00000  Uiso   1.00
C98    C     0.47085   0.12771   0.12287   0.00000  Uiso   1.00
C99    C     0.46182   0.07837   0.02915   0.00000  Uiso   1.00
C100   C     0.51148   0.06198   0.02277   0.00000  Uiso   1.00
C101   C     0.57737   0.01728   0.97274   0.00000  Uiso   1.00
C102   C     0.40655   0.14456   0.30246   0.00000  Uiso   1.00
C103   C     0.34345   0.10937   0.35975   0.00000  Uiso   1.00
C104   C     0.33897   0.10715   0.50457   0.00000  Uiso   1.00
C105   C     0.30502   0.08861   0.73339   0.00000  Uiso   1.00
C106   C     0.52709   0.21195   0.30214   0.00000  Uiso   1.00
C107   C     0.51923   0.25980   0.20595   0.00000  Uiso   1.00
C108   C     0.56200   0.32779   0.19863   0.00000  Uiso   1.00
C109   C     0.54613   0.36287   0.10384   0.00000  Uiso   1.00
C110   C     0.52746   0.15953   0.20722   0.00000  Uiso   1.00
C111   C     0.57714   0.14320   0.20098   0.00000  Uiso   1.00
C112   C     0.56820   0.09386   0.10727   0.00000  Uiso   1.00
C113   C     0.46316   0.17638   0.38682   0.00000  Uiso   1.00
C114   C     0.45877   0.17420   0.53158   0.00000  Uiso   1.00
C115   C     0.39569   0.13903   0.58908   0.00000  Uiso   1.00
H116   H     0.37879   0.12858   0.08116   0.00000  Uiso   1.00
H117   H     0.40287   0.23832   0.96152   0.00000  Uiso   1.00
H118   H     0.41801   0.05375   0.96389   0.00000  Uiso   1.00
H119   H     0.29966   0.08475   0.29444   0.00000  Uiso   1.00
H120   H     0.45456   0.37401   0.86606   0.00000  Uiso   1.00
H121   H     0.48645   0.98482   0.87108   0.00000  Uiso   1.00
H122   H     0.23689   0.05019   0.56810   0.00000  Uiso   1.00
H123   H     0.57117   0.23673   0.36782   0.00000  Uiso   1.00
H124   H     0.60581   0.35240   0.26392   0.00000  Uiso   1.00
H125   H     0.62094   0.16783   0.26628   0.00000  Uiso   1.00
H126   H     0.50259   0.19884   0.59683   0.00000  Uiso   1.00
H127   H     0.61927   0.46660   0.11149   0.00000  Uiso   1.00
H128   H     0.65116   0.07741   0.11652   0.00000  Uiso   1.00
H129   H     0.40160   0.14279   0.81354   0.00000  Uiso   1.00
O130   O     0.55624   0.49444   0.91522   0.00000  Uiso   1.00
O131   O     0.59808   0.98384   0.92183   0.00000  Uiso   1.00
O132   O     0.27066   0.06960   0.83630   0.00000  Uiso   1.00
N133   N     0.48856   0.37993   0.93810   0.00000  Uiso   1.00
N134   N     0.51839   0.01607   0.94278   0.00000  Uiso   1.00
N135   N     0.28507   0.07717   0.59444   0.00000  Uiso   1.00
N136   N     0.57719   0.42975   0.07016   0.00000  Uiso   1.00
N137   N     0.60702   0.06589   0.07485   0.00000  Uiso   1.00
N138   N     0.37369   0.12699   0.72650   0.00000  Uiso   1.00
C139   C     0.26950   0.84664   0.18650   0.00000  Uiso   1.00
C140   C     0.23464   0.77202   0.21174   0.00000  Uiso   1.00
C141   C     0.18372   0.73704   0.30653   0.00000  Uiso   1.00
C142   C     0.15844   0.66902   0.31401   0.00000  Uiso   1.00
C143   C     0.10056   0.55800   0.36608   0.00000  Uiso   1.00
C144   C     0.34314   0.87229   0.21047   0.00000  Uiso   1.00
C145   C     0.38345   0.92163   0.30418   0.00000  Uiso   1.00
C146   C     0.44951   0.93802   0.31057   0.00000  Uiso   1.00
C147   C     0.56010   0.98272   0.36059   0.00000  Uiso   1.00
C148   C     0.26199   0.85544   0.03088   0.00000  Uiso   1.00
C149   C     0.23408   0.89063   0.97358   0.00000  Uiso   1.00
C150   C     0.23183   0.89285   0.82876   0.00000  Uiso   1.00
C151   C     0.21641   0.91139   0.59994   0.00000  Uiso   1.00
C152   C     0.31513   0.78805   0.03119   0.00000  Uiso   1.00
C153   C     0.25943   0.74020   0.12738   0.00000  Uiso   1.00
C154   C     0.23421   0.67221   0.13470   0.00000  Uiso   1.00
C155   C     0.18327   0.63713   0.22949   0.00000  Uiso   1.00
C156   C     0.36793   0.84047   0.12611   0.00000  Uiso   1.00
C157   C     0.43394   0.85680   0.13235   0.00000  Uiso   1.00
C158   C     0.47434   0.90614   0.22606   0.00000  Uiso   1.00
C159   C     0.28678   0.82362   0.94651   0.00000  Uiso   1.00
C160   C     0.28457   0.82580   0.80175   0.00000  Uiso   1.00
C161   C     0.25666   0.86097   0.74425   0.00000  Uiso   1.00
H162   H     0.25020   0.87142   0.25218   0.00000  Uiso   1.00
H163   H     0.16456   0.76168   0.37181   0.00000  Uiso   1.00
H164   H     0.36426   0.94625   0.36944   0.00000  Uiso   1.00
H165   H     0.21491   0.91525   0.03890   0.00000  Uiso   1.00
H166   H     0.08055   0.62599   0.46728   0.00000  Uiso   1.00
H167   H     0.50163   0.01518   0.46225   0.00000  Uiso   1.00
H168   H     0.18670   0.94981   0.76523   0.00000  Uiso   1.00
H169   H     0.33444   0.76327   0.96551   0.00000  Uiso   1.00
H170   H     0.25341   0.64760   0.06941   0.00000  Uiso   1.00
H171   H     0.45311   0.83217   0.06705   0.00000  Uiso   1.00
H172   H     0.30376   0.80116   0.73650   0.00000  Uiso   1.00
H173   H     0.15267   0.53340   0.22185   0.00000  Uiso   1.00
H174   H     0.57375   0.92259   0.21682   0.00000  Uiso   1.00
H175   H     0.25881   0.85721   0.51980   0.00000  Uiso   1.00
O176   O     0.06180   0.50556   0.41812   0.00000  Uiso   1.00
O177   O     0.61425   0.01616   0.41150   0.00000  Uiso   1.00
O178   O     0.20106   0.93040   0.49703   0.00000  Uiso   1.00
N179   N     0.10863   0.62007   0.39524   0.00000  Uiso   1.00
N180   N     0.50232   0.98393   0.39055   0.00000  Uiso   1.00
N181   N     0.20790   0.92283   0.73890   0.00000  Uiso   1.00
N182   N     0.14744   0.57025   0.26317   0.00000  Uiso   1.00
N183   N     0.54112   0.93411   0.25849   0.00000  Uiso   1.00
N184   N     0.24670   0.87301   0.60683   0.00000  Uiso   1.00
C185   C     0.57714   0.73050   0.51983   0.00000  Uiso   1.00
C186   C     0.53738   0.76536   0.54507   0.00000  Uiso   1.00
C187   C     0.55331   0.81628   0.63987   0.00000  Uiso   1.00
C188   C     0.51058   0.84156   0.64734   0.00000  Uiso   1.00
C189   C     0.45744   0.89944   0.69941   0.00000  Uiso   1.00
C190   C     0.52915   0.65686   0.54380   0.00000  Uiso   1.00
C191   C     0.53818   0.61655   0.63752   0.00000  Uiso   1.00
C192   C     0.48852   0.55049   0.64390   0.00000  Uiso   1.00
C193   C     0.42263   0.43990   0.69392   0.00000  Uiso   1.00
C194   C     0.59345   0.73801   0.36421   0.00000  Uiso   1.00
C195   C     0.65655   0.76592   0.30692   0.00000  Uiso   1.00
C196   C     0.66103   0.76817   0.16209   0.00000  Uiso   1.00
C197   C     0.69498   0.78359   0.93327   0.00000  Uiso   1.00
C198   C     0.47291   0.68487   0.36452   0.00000  Uiso   1.00
C199   C     0.48077   0.74057   0.46071   0.00000  Uiso   1.00
C200   C     0.43800   0.76579   0.46804   0.00000  Uiso   1.00
C201   C     0.45387   0.81673   0.56283   0.00000  Uiso   1.00
C202   C     0.47254   0.63207   0.45945   0.00000  Uiso   1.00
C203   C     0.42286   0.56606   0.46568   0.00000  Uiso   1.00
C204   C     0.43180   0.52566   0.55939   0.00000  Uiso   1.00
C205   C     0.53684   0.71322   0.27985   0.00000  Uiso   1.00
C206   C     0.54123   0.71543   0.13509   0.00000  Uiso   1.00
C207   C     0.60431   0.74334   0.07758   0.00000  Uiso   1.00
H208   H     0.62121   0.74980   0.58551   0.00000  Uiso   1.00
H209   H     0.59713   0.83544   0.70514   0.00000  Uiso   1.00
H210   H     0.58199   0.63574   0.70277   0.00000  Uiso   1.00
H211   H     0.70034   0.78509   0.37223   0.00000  Uiso   1.00
H212   H     0.54544   0.91945   0.80061   0.00000  Uiso   1.00
H213   H     0.51355   0.49837   0.79559   0.00000  Uiso   1.00
H214   H     0.76311   0.81330   0.09856   0.00000  Uiso   1.00
H215   H     0.42883   0.66556   0.29884   0.00000  Uiso   1.00
H216   H     0.39419   0.74659   0.40274   0.00000  Uiso   1.00
H217   H     0.37906   0.54689   0.40038   0.00000  Uiso   1.00
H218   H     0.49741   0.69624   0.06984   0.00000  Uiso   1.00
H219   H     0.38073   0.84733   0.55518   0.00000  Uiso   1.00
H220   H     0.34884   0.42625   0.55015   0.00000  Uiso   1.00
H221   H     0.59840   0.74119   0.85313   0.00000  Uiso   1.00
O222   O     0.44376   0.93820   0.75145   0.00000  Uiso   1.00
O223   O     0.40192   0.38575   0.74484   0.00000  Uiso   1.00
O224   O     0.72934   0.79894   0.83037   0.00000  Uiso   1.00
N225   N     0.51144   0.89137   0.72857   0.00000  Uiso   1.00
N226   N     0.48161   0.49768   0.72389   0.00000  Uiso   1.00
N227   N     0.71493   0.79210   0.07223   0.00000  Uiso   1.00
N228   N     0.42281   0.85256   0.59650   0.00000  Uiso   1.00
N229   N     0.39298   0.45888   0.59182   0.00000  Uiso   1.00
N230   N     0.62631   0.75330   0.94016   0.00000  Uiso   1.00
C231   C     0.15336   0.42286   0.85317   0.00000  Uiso   1.00
C232   C     0.22798   0.46262   0.87840   0.00000  Uiso   1.00
C233   C     0.26296   0.44669   0.97320   0.00000  Uiso   1.00
C234   C     0.33098   0.48942   0.98068   0.00000  Uiso   1.00
C235   C     0.44200   0.54256   0.03274   0.00000  Uiso   1.00
C236   C     0.12771   0.47085   0.87713   0.00000  Uiso   1.00
C237   C     0.07837   0.46182   0.97085   0.00000  Uiso   1.00
C238   C     0.06198   0.51148   0.97723   0.00000  Uiso   1.00
C239   C     0.01728   0.57737   0.02726   0.00000  Uiso   1.00
C240   C     0.14456   0.40655   0.69754   0.00000  Uiso   1.00
C241   C     0.10937   0.34345   0.64025   0.00000  Uiso   1.00
C242   C     0.10715   0.33897   0.49543   0.00000  Uiso   1.00
C243   C     0.08861   0.30502   0.26661   0.00000  Uiso   1.00
C244   C     0.21195   0.52709   0.69786   0.00000  Uiso   1.00
C245   C     0.25980   0.51923   0.79405   0.00000  Uiso   1.00
C246   C     0.32779   0.56200   0.80137   0.00000  Uiso   1.00
C247   C     0.36287   0.54613   0.89616   0.00000  Uiso   1.00
C248   C     0.15953   0.52746   0.79278   0.00000  Uiso   1.00
C249   C     0.14320   0.57714   0.79902   0.00000  Uiso   1.00
C250   C     0.09386   0.56820   0.89273   0.00000  Uiso   1.00
C251   C     0.17638   0.46316   0.61318   0.00000  Uiso   1.00
C252   C     0.17420   0.45877   0.46842   0.00000  Uiso   1.00
C253   C     0.13903   0.39569   0.41092   0.00000  Uiso   1.00
H254   H     0.12858   0.37879   0.91884   0.00000  Uiso   1.00
H255   H     0.23832   0.40287   0.03848   0.00000  Uiso   1.00
H256   H     0.05375   0.41801   0.03611   0.00000  Uiso   1.00
H257   H     0.08475   0.29966   0.70556   0.00000  Uiso   1.00
H258   H     0.37401   0.45456   0.13394   0.00000  Uiso   1.00
H259   H     0.98482   0.48645   0.12892   0.00000  Uiso   1.00
H260   H     0.05019   0.23689   0.43190   0.00000  Uiso   1.00
H261   H     0.23673   0.57117   0.63218   0.00000  Uiso   1.00
H262   H     0.35240   0.60581   0.73608   0.00000  Uiso   1.00
H263   H     0.16783   0.62094   0.73372   0.00000  Uiso   1.00
H264   H     0.19884   0.50259   0.40317   0.00000  Uiso   1.00
H265   H     0.46660   0.61927   0.88851   0.00000  Uiso   1.00
H266   H     0.07741   0.65116   0.88348   0.00000  Uiso   1.00
H267   H     0.14279   0.40160   0.18646   0.00000  Uiso   1.00
O268   O     0.49444   0.55624   0.08478   0.00000  Uiso   1.00
O269   O     0.98384   0.59808   0.07817   0.00000  Uiso   1.00
O270   O     0.06960   0.27066   0.16370   0.00000  Uiso   1.00
N271   N     0.37993   0.48856   0.06190   0.00000  Uiso   1.00
N272   N     0.01607   0.51839   0.05722   0.00000  Uiso   1.00
N273   N     0.07717   0.28507   0.40556   0.00000  Uiso   1.00
N274   N     0.42975   0.57719   0.92984   0.00000  Uiso   1.00
N275   N     0.06589   0.60702   0.92515   0.00000  Uiso   1.00
N276   N     0.12699   0.37369   0.27350   0.00000  Uiso   1.00
