data_job_05768
_audit_creation_date              2018-12-19
_audit_creation_method            'Materials Studio'
_symmetry_space_group_name_H-M    'P1'
_symmetry_Int_Tables_number       1
_symmetry_cell_setting            triclinic
loop_
_symmetry_equiv_pos_as_xyz
  x,y,z
_cell_length_a                    23.0095
_cell_length_b                    23.0095
_cell_length_c                    11.3487
_cell_angle_alpha                 90.0000
_cell_angle_beta                  90.0000
_cell_angle_gamma                 120.0000
loop_
_atom_site_label
_atom_site_type_symbol
_atom_site_fract_x
_atom_site_fract_y
_atom_site_fract_z
_atom_site_U_iso_or_equiv
_atom_site_adp_type
_atom_site_occupancy
C1     C     0.80917   0.32957   0.42311   0.00000  Uiso   1.00
C2     C     0.74576   0.27548   0.36313   0.00000  Uiso   1.00
C3     C     0.68241   0.26848   0.37173   0.00000  Uiso   1.00
C4     C     0.63090   0.21571   0.31018   0.00000  Uiso   1.00
C5     C     0.53069   0.13841   0.22738   0.00000  Uiso   1.00
C6     C     0.83615   0.29250   0.49591   0.00000  Uiso   1.00
C7     C     0.84881   0.29984   0.61615   0.00000  Uiso   1.00
C8     C     0.87341   0.26140   0.66637   0.00000  Uiso   1.00
C9     C     0.91358   0.21057   0.78970   0.00000  Uiso   1.00
C10    C     0.86011   0.36504   0.32492   0.00000  Uiso   1.00
C11    C     0.89293   0.43337   0.30141   0.00000  Uiso   1.00
C12    C     0.93772   0.45601   0.20768   0.00000  Uiso   1.00
C13    C     0.01509   0.51780   0.06553   0.00000  Uiso   1.00
C14    C     0.83036   0.24829   0.29851   0.00000  Uiso   1.00
C15    C     0.75727   0.23133   0.29545   0.00000  Uiso   1.00
C16    C     0.70586   0.17855   0.23387   0.00000  Uiso   1.00
C17    C     0.64244   0.17149   0.24237   0.00000  Uiso   1.00
C18    C     0.84767   0.24835   0.42824   0.00000  Uiso   1.00
C19    C     0.87226   0.20991   0.47829   0.00000  Uiso   1.00
C20    C     0.88494   0.21718   0.59857   0.00000  Uiso   1.00
C21    C     0.87163   0.32089   0.25724   0.00000  Uiso   1.00
C22    C     0.91638   0.34344   0.16354   0.00000  Uiso   1.00
C23    C     0.94925   0.41178   0.13988   0.00000  Uiso   1.00
H24    H     0.80021   0.36395   0.47581   0.00000  Uiso   1.00
H25    H     0.67352   0.30266   0.42412   0.00000  Uiso   1.00
H26    H     0.83990   0.33401   0.66850   0.00000  Uiso   1.00
H27    H     0.88401   0.46752   0.35380   0.00000  Uiso   1.00
H28    H     0.53813   0.21522   0.33700   0.00000  Uiso   1.00
H29    H     0.88898   0.28135   0.85228   0.00000  Uiso   1.00
H30    H     0.98200   0.56288   0.18868   0.00000  Uiso   1.00
H31    H     0.83933   0.21392   0.24582   0.00000  Uiso   1.00
H32    H     0.71478   0.14440   0.18150   0.00000  Uiso   1.00
H33    H     0.88117   0.17575   0.42588   0.00000  Uiso   1.00
H34    H     0.92527   0.30926   0.11118   0.00000  Uiso   1.00
H35    H     0.57162   0.08677   0.14009   0.00000  Uiso   1.00
H36    H     0.92248   0.15290   0.65537   0.00000  Uiso   1.00
H37    H     0.01549   0.43443   0.99176   0.00000  Uiso   1.00
O38    O     0.47223   0.10796   0.20042   0.00000  Uiso   1.00
O39    O     0.93255   0.19472   0.87644   0.00000  Uiso   1.00
O40    O     0.05458   0.56408   0.00581   0.00000  Uiso   1.00
N41    N     0.56311   0.19454   0.29946   0.00000  Uiso   1.00
N42    N     0.89112   0.25636   0.78122   0.00000  Uiso   1.00
N43    N     0.97810   0.51957   0.16083   0.00000  Uiso   1.00
N44    N     0.58113   0.12542   0.19350   0.00000  Uiso   1.00
N45    N     0.90914   0.18724   0.67526   0.00000  Uiso   1.00
N46    N     0.99612   0.45045   0.05487   0.00000  Uiso   1.00
C47    C     0.67043   0.47959   0.08978   0.00000  Uiso   1.00
C48    C     0.72452   0.47028   0.02979   0.00000  Uiso   1.00
C49    C     0.73152   0.41392   0.03839   0.00000  Uiso   1.00
C50    C     0.78429   0.41519   0.97684   0.00000  Uiso   1.00
C51    C     0.86159   0.39228   0.89404   0.00000  Uiso   1.00
C52    C     0.70750   0.54365   0.16258   0.00000  Uiso   1.00
C53    C     0.70016   0.54897   0.28282   0.00000  Uiso   1.00
C54    C     0.73860   0.61200   0.33304   0.00000  Uiso   1.00
C55    C     0.78943   0.70301   0.45637   0.00000  Uiso   1.00
C56    C     0.63496   0.49507   0.99159   0.00000  Uiso   1.00
C57    C     0.56663   0.45956   0.96807   0.00000  Uiso   1.00
C58    C     0.54399   0.48170   0.87435   0.00000  Uiso   1.00
C59    C     0.48220   0.49728   0.73220   0.00000  Uiso   1.00
C60    C     0.75171   0.58207   0.96517   0.00000  Uiso   1.00
C61    C     0.76867   0.52595   0.96212   0.00000  Uiso   1.00
C62    C     0.82145   0.52730   0.90053   0.00000  Uiso   1.00
C63    C     0.82851   0.47095   0.90904   0.00000  Uiso   1.00
C64    C     0.75165   0.59931   0.09490   0.00000  Uiso   1.00
C65    C     0.79009   0.66235   0.14495   0.00000  Uiso   1.00
C66    C     0.78282   0.66777   0.26524   0.00000  Uiso   1.00
C67    C     0.67911   0.55073   0.92390   0.00000  Uiso   1.00
C68    C     0.65656   0.57294   0.83021   0.00000  Uiso   1.00
C69    C     0.58822   0.53747   0.80655   0.00000  Uiso   1.00
H70    H     0.63605   0.43626   0.14248   0.00000  Uiso   1.00
H71    H     0.69734   0.37086   0.09079   0.00000  Uiso   1.00
H72    H     0.66599   0.50589   0.33516   0.00000  Uiso   1.00
H73    H     0.53248   0.41649   0.02047   0.00000  Uiso   1.00
H74    H     0.78478   0.32290   0.00367   0.00000  Uiso   1.00
H75    H     0.71865   0.60763   0.51894   0.00000  Uiso   1.00
H76    H     0.43712   0.41912   0.85534   0.00000  Uiso   1.00
H77    H     0.78608   0.62541   0.91248   0.00000  Uiso   1.00
H78    H     0.85560   0.57038   0.84817   0.00000  Uiso   1.00
H79    H     0.82425   0.70542   0.09255   0.00000  Uiso   1.00
H80    H     0.69074   0.61602   0.77785   0.00000  Uiso   1.00
H81    H     0.91323   0.48485   0.80675   0.00000  Uiso   1.00
H82    H     0.84710   0.76958   0.32203   0.00000  Uiso   1.00
H83    H     0.56557   0.58106   0.65843   0.00000  Uiso   1.00
O84    O     0.89204   0.36428   0.86708   0.00000  Uiso   1.00
O85    O     0.80528   0.73783   0.54310   0.00000  Uiso   1.00
O86    O     0.43592   0.49050   0.67247   0.00000  Uiso   1.00
N87    N     0.80546   0.36856   0.96613   0.00000  Uiso   1.00
N88    N     0.74364   0.63476   0.44789   0.00000  Uiso   1.00
N89    N     0.48043   0.45853   0.82750   0.00000  Uiso   1.00
N90    N     0.87458   0.45570   0.86017   0.00000  Uiso   1.00
N91    N     0.81276   0.72191   0.34193   0.00000  Uiso   1.00
N92    N     0.54955   0.54567   0.72154   0.00000  Uiso   1.00
C93    C     0.52041   0.19083   0.75645   0.00000  Uiso   1.00
C94    C     0.52972   0.25424   0.69646   0.00000  Uiso   1.00
C95    C     0.58608   0.31759   0.70506   0.00000  Uiso   1.00
C96    C     0.58481   0.36910   0.64351   0.00000  Uiso   1.00
C97    C     0.60772   0.46931   0.56071   0.00000  Uiso   1.00
C98    C     0.45635   0.16385   0.82924   0.00000  Uiso   1.00
C99    C     0.45103   0.15119   0.94948   0.00000  Uiso   1.00
C100   C     0.38800   0.12659   0.99970   0.00000  Uiso   1.00
C101   C     0.29699   0.08642   0.12304   0.00000  Uiso   1.00
C102   C     0.50493   0.13989   0.65825   0.00000  Uiso   1.00
C103   C     0.54044   0.10707   0.63474   0.00000  Uiso   1.00
C104   C     0.51830   0.06228   0.54101   0.00000  Uiso   1.00
C105   C     0.50272   0.98491   0.39886   0.00000  Uiso   1.00
C106   C     0.41793   0.16964   0.63184   0.00000  Uiso   1.00
C107   C     0.47405   0.24273   0.62878   0.00000  Uiso   1.00
C108   C     0.47270   0.29414   0.56720   0.00000  Uiso   1.00
C109   C     0.52905   0.35756   0.57570   0.00000  Uiso   1.00
C110   C     0.40069   0.15233   0.76157   0.00000  Uiso   1.00
C111   C     0.33765   0.12774   0.81162   0.00000  Uiso   1.00
C112   C     0.33223   0.11506   0.93190   0.00000  Uiso   1.00
C113   C     0.44927   0.12837   0.59057   0.00000  Uiso   1.00
C114   C     0.42706   0.08362   0.49687   0.00000  Uiso   1.00
C115   C     0.46253   0.05075   0.47321   0.00000  Uiso   1.00
H116   H     0.56374   0.19979   0.80914   0.00000  Uiso   1.00
H117   H     0.62914   0.32648   0.75746   0.00000  Uiso   1.00
H118   H     0.49411   0.16010   0.00183   0.00000  Uiso   1.00
H119   H     0.58351   0.11599   0.68713   0.00000  Uiso   1.00
H120   H     0.67710   0.46187   0.67034   0.00000  Uiso   1.00
H121   H     0.39237   0.11102   0.18561   0.00000  Uiso   1.00
H122   H     0.58088   0.01800   0.52201   0.00000  Uiso   1.00
H123   H     0.37459   0.16067   0.57915   0.00000  Uiso   1.00
H124   H     0.42962   0.28522   0.51483   0.00000  Uiso   1.00
H125   H     0.29458   0.11883   0.75922   0.00000  Uiso   1.00
H126   H     0.38398   0.07473   0.44452   0.00000  Uiso   1.00
H127   H     0.51515   0.42838   0.47342   0.00000  Uiso   1.00
H128   H     0.23042   0.07752   0.98870   0.00000  Uiso   1.00
H129   H     0.41894   0.98451   0.32510   0.00000  Uiso   1.00
O130   O     0.63572   0.52777   0.53375   0.00000  Uiso   1.00
O131   O     0.26217   0.06745   0.20977   0.00000  Uiso   1.00
O132   O     0.50950   0.94542   0.33914   0.00000  Uiso   1.00
N133   N     0.63144   0.43689   0.63280   0.00000  Uiso   1.00
N134   N     0.36524   0.10888   0.11456   0.00000  Uiso   1.00
N135   N     0.54147   0.02190   0.49416   0.00000  Uiso   1.00
N136   N     0.54430   0.41887   0.52684   0.00000  Uiso   1.00
N137   N     0.27809   0.09086   0.00860   0.00000  Uiso   1.00
N138   N     0.45433   0.00388   0.38820   0.00000  Uiso   1.00
C139   C     0.32957   0.80917   0.57689   0.00000  Uiso   1.00
C140   C     0.27548   0.74576   0.63687   0.00000  Uiso   1.00
C141   C     0.26848   0.68241   0.62827   0.00000  Uiso   1.00
C142   C     0.21571   0.63090   0.68982   0.00000  Uiso   1.00
C143   C     0.13841   0.53069   0.77262   0.00000  Uiso   1.00
C144   C     0.29250   0.83615   0.50409   0.00000  Uiso   1.00
C145   C     0.29984   0.84881   0.38385   0.00000  Uiso   1.00
C146   C     0.26140   0.87341   0.33363   0.00000  Uiso   1.00
C147   C     0.21057   0.91358   0.21030   0.00000  Uiso   1.00
C148   C     0.36504   0.86011   0.67508   0.00000  Uiso   1.00
C149   C     0.43337   0.89293   0.69859   0.00000  Uiso   1.00
C150   C     0.45601   0.93772   0.79232   0.00000  Uiso   1.00
C151   C     0.51780   0.01509   0.93447   0.00000  Uiso   1.00
C152   C     0.24829   0.83036   0.70149   0.00000  Uiso   1.00
C153   C     0.23133   0.75727   0.70455   0.00000  Uiso   1.00
C154   C     0.17855   0.70586   0.76613   0.00000  Uiso   1.00
C155   C     0.17149   0.64244   0.75763   0.00000  Uiso   1.00
C156   C     0.24835   0.84767   0.57176   0.00000  Uiso   1.00
C157   C     0.20991   0.87226   0.52171   0.00000  Uiso   1.00
C158   C     0.21718   0.88494   0.40143   0.00000  Uiso   1.00
C159   C     0.32089   0.87163   0.74276   0.00000  Uiso   1.00
C160   C     0.34344   0.91638   0.83646   0.00000  Uiso   1.00
C161   C     0.41178   0.94925   0.86012   0.00000  Uiso   1.00
H162   H     0.36395   0.80021   0.52419   0.00000  Uiso   1.00
H163   H     0.30266   0.67352   0.57588   0.00000  Uiso   1.00
H164   H     0.33401   0.83990   0.33150   0.00000  Uiso   1.00
H165   H     0.46752   0.88401   0.64620   0.00000  Uiso   1.00
H166   H     0.21522   0.53813   0.66300   0.00000  Uiso   1.00
H167   H     0.28135   0.88898   0.14772   0.00000  Uiso   1.00
H168   H     0.56288   0.98200   0.81132   0.00000  Uiso   1.00
H169   H     0.21392   0.83933   0.75418   0.00000  Uiso   1.00
H170   H     0.14440   0.71478   0.81850   0.00000  Uiso   1.00
H171   H     0.17575   0.88117   0.57412   0.00000  Uiso   1.00
H172   H     0.30926   0.92527   0.88882   0.00000  Uiso   1.00
H173   H     0.08677   0.57162   0.85991   0.00000  Uiso   1.00
H174   H     0.15290   0.92248   0.34463   0.00000  Uiso   1.00
H175   H     0.43443   0.01549   0.00824   0.00000  Uiso   1.00
O176   O     0.10796   0.47223   0.79958   0.00000  Uiso   1.00
O177   O     0.19472   0.93255   0.12356   0.00000  Uiso   1.00
O178   O     0.56408   0.05458   0.99419   0.00000  Uiso   1.00
N179   N     0.19454   0.56311   0.70054   0.00000  Uiso   1.00
N180   N     0.25636   0.89112   0.21878   0.00000  Uiso   1.00
N181   N     0.51957   0.97810   0.83917   0.00000  Uiso   1.00
N182   N     0.12542   0.58113   0.80650   0.00000  Uiso   1.00
N183   N     0.18724   0.90914   0.32474   0.00000  Uiso   1.00
N184   N     0.45045   0.99612   0.94513   0.00000  Uiso   1.00
C185   C     0.47959   0.67043   0.91022   0.00000  Uiso   1.00
C186   C     0.47028   0.72452   0.97021   0.00000  Uiso   1.00
C187   C     0.41392   0.73152   0.96161   0.00000  Uiso   1.00
C188   C     0.41519   0.78429   0.02316   0.00000  Uiso   1.00
C189   C     0.39228   0.86159   0.10596   0.00000  Uiso   1.00
C190   C     0.54365   0.70750   0.83742   0.00000  Uiso   1.00
C191   C     0.54897   0.70016   0.71718   0.00000  Uiso   1.00
C192   C     0.61200   0.73860   0.66696   0.00000  Uiso   1.00
C193   C     0.70301   0.78943   0.54363   0.00000  Uiso   1.00
C194   C     0.49507   0.63496   0.00841   0.00000  Uiso   1.00
C195   C     0.45956   0.56663   0.03193   0.00000  Uiso   1.00
C196   C     0.48170   0.54399   0.12565   0.00000  Uiso   1.00
C197   C     0.49728   0.48220   0.26780   0.00000  Uiso   1.00
C198   C     0.58207   0.75171   0.03483   0.00000  Uiso   1.00
C199   C     0.52595   0.76867   0.03788   0.00000  Uiso   1.00
C200   C     0.52730   0.82145   0.09947   0.00000  Uiso   1.00
C201   C     0.47095   0.82851   0.09096   0.00000  Uiso   1.00
C202   C     0.59931   0.75165   0.90510   0.00000  Uiso   1.00
C203   C     0.66235   0.79009   0.85505   0.00000  Uiso   1.00
C204   C     0.66777   0.78282   0.73476   0.00000  Uiso   1.00
C205   C     0.55073   0.67911   0.07610   0.00000  Uiso   1.00
C206   C     0.57294   0.65656   0.16979   0.00000  Uiso   1.00
C207   C     0.53747   0.58822   0.19345   0.00000  Uiso   1.00
H208   H     0.43626   0.63605   0.85752   0.00000  Uiso   1.00
H209   H     0.37086   0.69734   0.90921   0.00000  Uiso   1.00
H210   H     0.50589   0.66599   0.66484   0.00000  Uiso   1.00
H211   H     0.41649   0.53248   0.97953   0.00000  Uiso   1.00
H212   H     0.32290   0.78478   0.99633   0.00000  Uiso   1.00
H213   H     0.60763   0.71865   0.48106   0.00000  Uiso   1.00
H214   H     0.41912   0.43712   0.14466   0.00000  Uiso   1.00
H215   H     0.62541   0.78608   0.08752   0.00000  Uiso   1.00
H216   H     0.57038   0.85560   0.15183   0.00000  Uiso   1.00
H217   H     0.70542   0.82425   0.90745   0.00000  Uiso   1.00
H218   H     0.61602   0.69074   0.22215   0.00000  Uiso   1.00
H219   H     0.48485   0.91323   0.19325   0.00000  Uiso   1.00
H220   H     0.76958   0.84710   0.67797   0.00000  Uiso   1.00
H221   H     0.58106   0.56557   0.34157   0.00000  Uiso   1.00
O222   O     0.36428   0.89204   0.13292   0.00000  Uiso   1.00
O223   O     0.73783   0.80528   0.45690   0.00000  Uiso   1.00
O224   O     0.49050   0.43592   0.32753   0.00000  Uiso   1.00
N225   N     0.36856   0.80546   0.03387   0.00000  Uiso   1.00
N226   N     0.63476   0.74364   0.55211   0.00000  Uiso   1.00
N227   N     0.45853   0.48043   0.17250   0.00000  Uiso   1.00
N228   N     0.45570   0.87458   0.13983   0.00000  Uiso   1.00
N229   N     0.72191   0.81276   0.65807   0.00000  Uiso   1.00
N230   N     0.54567   0.54955   0.27846   0.00000  Uiso   1.00
C231   C     0.19083   0.52041   0.24355   0.00000  Uiso   1.00
C232   C     0.25424   0.52972   0.30354   0.00000  Uiso   1.00
C233   C     0.31759   0.58608   0.29494   0.00000  Uiso   1.00
C234   C     0.36910   0.58481   0.35649   0.00000  Uiso   1.00
C235   C     0.46931   0.60772   0.43929   0.00000  Uiso   1.00
C236   C     0.16385   0.45635   0.17076   0.00000  Uiso   1.00
C237   C     0.15119   0.45103   0.05052   0.00000  Uiso   1.00
C238   C     0.12659   0.38800   0.00030   0.00000  Uiso   1.00
C239   C     0.08642   0.29699   0.87696   0.00000  Uiso   1.00
C240   C     0.13989   0.50493   0.34175   0.00000  Uiso   1.00
C241   C     0.10707   0.54044   0.36526   0.00000  Uiso   1.00
C242   C     0.06228   0.51830   0.45899   0.00000  Uiso   1.00
C243   C     0.98491   0.50272   0.60114   0.00000  Uiso   1.00
C244   C     0.16964   0.41793   0.36816   0.00000  Uiso   1.00
C245   C     0.24273   0.47405   0.37122   0.00000  Uiso   1.00
C246   C     0.29414   0.47270   0.43280   0.00000  Uiso   1.00
C247   C     0.35756   0.52905   0.42430   0.00000  Uiso   1.00
C248   C     0.15233   0.40069   0.23843   0.00000  Uiso   1.00
C249   C     0.12774   0.33765   0.18838   0.00000  Uiso   1.00
C250   C     0.11506   0.33223   0.06810   0.00000  Uiso   1.00
C251   C     0.12837   0.44927   0.40943   0.00000  Uiso   1.00
C252   C     0.08362   0.42706   0.50313   0.00000  Uiso   1.00
C253   C     0.05075   0.46253   0.52679   0.00000  Uiso   1.00
H254   H     0.19979   0.56374   0.19086   0.00000  Uiso   1.00
H255   H     0.32648   0.62914   0.24254   0.00000  Uiso   1.00
H256   H     0.16010   0.49411   0.99817   0.00000  Uiso   1.00
H257   H     0.11599   0.58351   0.31287   0.00000  Uiso   1.00
H258   H     0.46187   0.67710   0.32966   0.00000  Uiso   1.00
H259   H     0.11102   0.39237   0.81439   0.00000  Uiso   1.00
H260   H     0.01800   0.58088   0.47799   0.00000  Uiso   1.00
H261   H     0.16067   0.37459   0.42085   0.00000  Uiso   1.00
H262   H     0.28522   0.42962   0.48517   0.00000  Uiso   1.00
H263   H     0.11883   0.29458   0.24078   0.00000  Uiso   1.00
H264   H     0.07473   0.38398   0.55548   0.00000  Uiso   1.00
H265   H     0.42838   0.51515   0.52658   0.00000  Uiso   1.00
H266   H     0.07752   0.23042   0.01130   0.00000  Uiso   1.00
H267   H     0.98451   0.41894   0.67490   0.00000  Uiso   1.00
O268   O     0.52777   0.63572   0.46625   0.00000  Uiso   1.00
O269   O     0.06745   0.26217   0.79023   0.00000  Uiso   1.00
O270   O     0.94542   0.50950   0.66086   0.00000  Uiso   1.00
N271   N     0.43689   0.63144   0.36720   0.00000  Uiso   1.00
N272   N     0.10888   0.36524   0.88544   0.00000  Uiso   1.00
N273   N     0.02190   0.54147   0.50584   0.00000  Uiso   1.00
N274   N     0.41887   0.54430   0.47316   0.00000  Uiso   1.00
N275   N     0.09086   0.27809   0.99140   0.00000  Uiso   1.00
N276   N     0.00388   0.45433   0.61180   0.00000  Uiso   1.00
