data_job_04817
_audit_creation_date              2018-12-19
_audit_creation_method            'Materials Studio'
_symmetry_space_group_name_H-M    'P1'
_symmetry_Int_Tables_number       1
_symmetry_cell_setting            triclinic
loop_
_symmetry_equiv_pos_as_xyz
  x,y,z
_cell_length_a                    17.0857
_cell_length_b                    12.3661
_cell_length_c                    23.5319
_cell_angle_alpha                 90.0000
_cell_angle_beta                  90.0000
_cell_angle_gamma                 90.0000
loop_
_atom_site_label
_atom_site_type_symbol
_atom_site_fract_x
_atom_site_fract_y
_atom_site_fract_z
_atom_site_U_iso_or_equiv
_atom_site_adp_type
_atom_site_occupancy
C1     C     0.15974   0.01106   0.43187   0.00000  Uiso   1.00
C2     C     0.18846   0.08669   0.38513   0.00000  Uiso   1.00
C3     C     0.14981   0.17827   0.36578   0.00000  Uiso   1.00
C4     C     0.18577   0.23671   0.32270   0.00000  Uiso   1.00
C5     C     0.21942   0.35906   0.25361   0.00000  Uiso   1.00
C6     C     0.22484   0.00748   0.47617   0.00000  Uiso   1.00
C7     C     0.21676   0.03245   0.53337   0.00000  Uiso   1.00
C8     C     0.28334   0.02419   0.56692   0.00000  Uiso   1.00
C9     C     0.37345   0.02348   0.63919   0.00000  Uiso   1.00
C10    C     0.15679   0.89853   0.40546   0.00000  Uiso   1.00
C11    C     0.09152   0.83187   0.40322   0.00000  Uiso   1.00
C12    C     0.10082   0.73187   0.37726   0.00000  Uiso   1.00
C13    C     0.08529   0.56201   0.33974   0.00000  Uiso   1.00
C14    C     0.29233   0.95198   0.38976   0.00000  Uiso   1.00
C15    C     0.26048   0.05460   0.36225   0.00000  Uiso   1.00
C16    C     0.29650   0.11291   0.31918   0.00000  Uiso   1.00
C17    C     0.25791   0.20457   0.29978   0.00000  Uiso   1.00
C18    C     0.29685   0.97539   0.45330   0.00000  Uiso   1.00
C19    C     0.36345   0.96709   0.48677   0.00000  Uiso   1.00
C20    C     0.35548   0.99204   0.54401   0.00000  Uiso   1.00
C21    C     0.22881   0.86644   0.38258   0.00000  Uiso   1.00
C22    C     0.23821   0.76652   0.35662   0.00000  Uiso   1.00
C23    C     0.17296   0.69973   0.35434   0.00000  Uiso   1.00
H24    H     0.10368   0.03604   0.44969   0.00000  Uiso   1.00
H25    H     0.09408   0.20309   0.38350   0.00000  Uiso   1.00
H26    H     0.16102   0.05727   0.55106   0.00000  Uiso   1.00
H27    H     0.03580   0.85673   0.42093   0.00000  Uiso   1.00
H28    H     0.11522   0.37416   0.30005   0.00000  Uiso   1.00
H29    H     0.25636   0.06666   0.65336   0.00000  Uiso   1.00
H30    H     0.99230   0.64378   0.37896   0.00000  Uiso   1.00
H31    H     0.34840   0.92700   0.37195   0.00000  Uiso   1.00
H32    H     0.35223   0.08806   0.30149   0.00000  Uiso   1.00
H33    H     0.41917   0.94225   0.46905   0.00000  Uiso   1.00
H34    H     0.29395   0.74171   0.33892   0.00000  Uiso   1.00
H35    H     0.32474   0.28080   0.23349   0.00000  Uiso   1.00
H36    H     0.46588   0.97330   0.58680   0.00000  Uiso   1.00
H37    H     0.20182   0.55043   0.31240   0.00000  Uiso   1.00
O38    O     0.21810   0.43542   0.22184   0.00000  Uiso   1.00
O39    O     0.40326   0.03197   0.68537   0.00000  Uiso   1.00
O40    O     0.05683   0.47718   0.32536   0.00000  Uiso   1.00
N41    N     0.16400   0.33007   0.29404   0.00000  Uiso   1.00
N42    N     0.29596   0.04259   0.62437   0.00000  Uiso   1.00
N43    N     0.04909   0.64723   0.36784   0.00000  Uiso   1.00
N44    N     0.27674   0.27984   0.25823   0.00000  Uiso   1.00
N45    N     0.40870   0.99236   0.58855   0.00000  Uiso   1.00
N46    N     0.16183   0.59700   0.33202   0.00000  Uiso   1.00
C47    C     0.55733   0.52067   0.57647   0.00000  Uiso   1.00
C48    C     0.52883   0.59896   0.62207   0.00000  Uiso   1.00
C49    C     0.56735   0.69193   0.63963   0.00000  Uiso   1.00
C50    C     0.53164   0.75276   0.68190   0.00000  Uiso   1.00
C51    C     0.49828   0.87907   0.74906   0.00000  Uiso   1.00
C52    C     0.49178   0.51395   0.53263   0.00000  Uiso   1.00
C53    C     0.49917   0.53543   0.47499   0.00000  Uiso   1.00
C54    C     0.43227   0.52468   0.44197   0.00000  Uiso   1.00
C55    C     0.34140   0.51894   0.37027   0.00000  Uiso   1.00
C56    C     0.56095   0.40985   0.60476   0.00000  Uiso   1.00
C57    C     0.62649   0.34379   0.60776   0.00000  Uiso   1.00
C58    C     0.61782   0.24538   0.63547   0.00000  Uiso   1.00
C59    C     0.63435   0.07801   0.67576   0.00000  Uiso   1.00
C60    C     0.42540   0.46336   0.62032   0.00000  Uiso   1.00
C61    C     0.45717   0.56782   0.64588   0.00000  Uiso   1.00
C62    C     0.42139   0.62852   0.68814   0.00000  Uiso   1.00
C63    C     0.45986   0.72157   0.70577   0.00000  Uiso   1.00
C64    C     0.42013   0.48282   0.55644   0.00000  Uiso   1.00
C65    C     0.35320   0.47202   0.52350   0.00000  Uiso   1.00
C66    C     0.36048   0.49349   0.46583   0.00000  Uiso   1.00
C67    C     0.48930   0.37872   0.62858   0.00000  Uiso   1.00
C68    C     0.48052   0.28038   0.65628   0.00000  Uiso   1.00
C69    C     0.54603   0.21419   0.65932   0.00000  Uiso   1.00
H70    H     0.61311   0.54491   0.55793   0.00000  Uiso   1.00
H71    H     0.62280   0.71600   0.62119   0.00000  Uiso   1.00
H72    H     0.55463   0.55951   0.45657   0.00000  Uiso   1.00
H73    H     0.68193   0.36790   0.58933   0.00000  Uiso   1.00
H74    H     0.60194   0.89198   0.70181   0.00000  Uiso   1.00
H75    H     0.45819   0.56198   0.35471   0.00000  Uiso   1.00
H76    H     0.72663   0.15793   0.63465   0.00000  Uiso   1.00
H77    H     0.36961   0.43912   0.63886   0.00000  Uiso   1.00
H78    H     0.36594   0.60441   0.70656   0.00000  Uiso   1.00
H79    H     0.29776   0.44793   0.54195   0.00000  Uiso   1.00
H80    H     0.42506   0.25632   0.67470   0.00000  Uiso   1.00
H81    H     0.39345   0.80142   0.77110   0.00000  Uiso   1.00
H82    H     0.24971   0.47141   0.42400   0.00000  Uiso   1.00
H83    H     0.51814   0.06737   0.70394   0.00000  Uiso   1.00
O84    O     0.49966   0.95736   0.77952   0.00000  Uiso   1.00
O85    O     0.31108   0.52439   0.32413   0.00000  Uiso   1.00
O86    O     0.66326   0.99430   0.69141   0.00000  Uiso   1.00
N87    N     0.55338   0.84797   0.70883   0.00000  Uiso   1.00
N88    N     0.41898   0.53946   0.38432   0.00000  Uiso   1.00
N89    N     0.66994   0.16169   0.64602   0.00000  Uiso   1.00
N90    N     0.44120   0.79924   0.74612   0.00000  Uiso   1.00
N91    N     0.30680   0.49072   0.42160   0.00000  Uiso   1.00
N92    N     0.55776   0.11296   0.68331   0.00000  Uiso   1.00
C93    C     0.84026   0.98894   0.93187   0.00000  Uiso   1.00
C94    C     0.81154   0.91331   0.88513   0.00000  Uiso   1.00
C95    C     0.85019   0.82173   0.86578   0.00000  Uiso   1.00
C96    C     0.81423   0.76329   0.82270   0.00000  Uiso   1.00
C97    C     0.78058   0.64094   0.75361   0.00000  Uiso   1.00
C98    C     0.77516   0.99252   0.97617   0.00000  Uiso   1.00
C99    C     0.78324   0.96755   0.03337   0.00000  Uiso   1.00
C100   C     0.71666   0.97581   0.06692   0.00000  Uiso   1.00
C101   C     0.62655   0.97652   0.13919   0.00000  Uiso   1.00
C102   C     0.84321   0.10147   0.90546   0.00000  Uiso   1.00
C103   C     0.90848   0.16813   0.90322   0.00000  Uiso   1.00
C104   C     0.89918   0.26813   0.87726   0.00000  Uiso   1.00
C105   C     0.91471   0.43799   0.83974   0.00000  Uiso   1.00
C106   C     0.70767   0.04802   0.88976   0.00000  Uiso   1.00
C107   C     0.73952   0.94540   0.86225   0.00000  Uiso   1.00
C108   C     0.70350   0.88709   0.81918   0.00000  Uiso   1.00
C109   C     0.74209   0.79543   0.79978   0.00000  Uiso   1.00
C110   C     0.70315   0.02461   0.95330   0.00000  Uiso   1.00
C111   C     0.63655   0.03291   0.98677   0.00000  Uiso   1.00
C112   C     0.64452   0.00796   0.04401   0.00000  Uiso   1.00
C113   C     0.77119   0.13356   0.88258   0.00000  Uiso   1.00
C114   C     0.76179   0.23348   0.85662   0.00000  Uiso   1.00
C115   C     0.82704   0.30027   0.85434   0.00000  Uiso   1.00
H116   H     0.89632   0.96396   0.94969   0.00000  Uiso   1.00
H117   H     0.90592   0.79691   0.88350   0.00000  Uiso   1.00
H118   H     0.83898   0.94273   0.05106   0.00000  Uiso   1.00
H119   H     0.96420   0.14327   0.92093   0.00000  Uiso   1.00
H120   H     0.88478   0.62584   0.80005   0.00000  Uiso   1.00
H121   H     0.74364   0.93334   0.15336   0.00000  Uiso   1.00
H122   H     0.00770   0.35622   0.87896   0.00000  Uiso   1.00
H123   H     0.65160   0.07300   0.87195   0.00000  Uiso   1.00
H124   H     0.64777   0.91194   0.80149   0.00000  Uiso   1.00
H125   H     0.58083   0.05775   0.96905   0.00000  Uiso   1.00
H126   H     0.70605   0.25829   0.83892   0.00000  Uiso   1.00
H127   H     0.67526   0.71920   0.73349   0.00000  Uiso   1.00
H128   H     0.53412   0.02670   0.08680   0.00000  Uiso   1.00
H129   H     0.79818   0.44957   0.81240   0.00000  Uiso   1.00
O130   O     0.78190   0.56458   0.72184   0.00000  Uiso   1.00
O131   O     0.59674   0.96803   0.18537   0.00000  Uiso   1.00
O132   O     0.94317   0.52282   0.82536   0.00000  Uiso   1.00
N133   N     0.83600   0.66993   0.79404   0.00000  Uiso   1.00
N134   N     0.70404   0.95741   0.12437   0.00000  Uiso   1.00
N135   N     0.95091   0.35277   0.86784   0.00000  Uiso   1.00
N136   N     0.72326   0.72016   0.75823   0.00000  Uiso   1.00
N137   N     0.59130   0.00764   0.08855   0.00000  Uiso   1.00
N138   N     0.83817   0.40300   0.83202   0.00000  Uiso   1.00
C139   C     0.44267   0.47933   0.07647   0.00000  Uiso   1.00
C140   C     0.47117   0.40104   0.12207   0.00000  Uiso   1.00
C141   C     0.43265   0.30807   0.13963   0.00000  Uiso   1.00
C142   C     0.46836   0.24724   0.18190   0.00000  Uiso   1.00
C143   C     0.50172   0.12093   0.24906   0.00000  Uiso   1.00
C144   C     0.50822   0.48605   0.03263   0.00000  Uiso   1.00
C145   C     0.50083   0.46457   0.97499   0.00000  Uiso   1.00
C146   C     0.56773   0.47532   0.94197   0.00000  Uiso   1.00
C147   C     0.65860   0.48106   0.87027   0.00000  Uiso   1.00
C148   C     0.43905   0.59015   0.10476   0.00000  Uiso   1.00
C149   C     0.37351   0.65621   0.10776   0.00000  Uiso   1.00
C150   C     0.38218   0.75462   0.13547   0.00000  Uiso   1.00
C151   C     0.36565   0.92199   0.17576   0.00000  Uiso   1.00
C152   C     0.57460   0.53664   0.12032   0.00000  Uiso   1.00
C153   C     0.54283   0.43218   0.14588   0.00000  Uiso   1.00
C154   C     0.57861   0.37148   0.18814   0.00000  Uiso   1.00
C155   C     0.54014   0.27843   0.20577   0.00000  Uiso   1.00
C156   C     0.57987   0.51718   0.05644   0.00000  Uiso   1.00
C157   C     0.64680   0.52798   0.02350   0.00000  Uiso   1.00
C158   C     0.63952   0.50651   0.96583   0.00000  Uiso   1.00
C159   C     0.51070   0.62128   0.12858   0.00000  Uiso   1.00
C160   C     0.51948   0.71962   0.15628   0.00000  Uiso   1.00
C161   C     0.45397   0.78581   0.15932   0.00000  Uiso   1.00
H162   H     0.38689   0.45509   0.05793   0.00000  Uiso   1.00
H163   H     0.37720   0.28400   0.12119   0.00000  Uiso   1.00
H164   H     0.44537   0.44049   0.95657   0.00000  Uiso   1.00
H165   H     0.31807   0.63210   0.08933   0.00000  Uiso   1.00
H166   H     0.39806   0.10802   0.20181   0.00000  Uiso   1.00
H167   H     0.54181   0.43802   0.85471   0.00000  Uiso   1.00
H168   H     0.27337   0.84207   0.13465   0.00000  Uiso   1.00
H169   H     0.63039   0.56088   0.13886   0.00000  Uiso   1.00
H170   H     0.63406   0.39559   0.20656   0.00000  Uiso   1.00
H171   H     0.70224   0.55207   0.04195   0.00000  Uiso   1.00
H172   H     0.57494   0.74368   0.17470   0.00000  Uiso   1.00
H173   H     0.60655   0.19858   0.27110   0.00000  Uiso   1.00
H174   H     0.75029   0.52859   0.92400   0.00000  Uiso   1.00
H175   H     0.48186   0.93263   0.20394   0.00000  Uiso   1.00
O176   O     0.50034   0.04264   0.27952   0.00000  Uiso   1.00
O177   O     0.68892   0.47561   0.82413   0.00000  Uiso   1.00
O178   O     0.33674   0.00570   0.19141   0.00000  Uiso   1.00
N179   N     0.44662   0.15203   0.20883   0.00000  Uiso   1.00
N180   N     0.58102   0.46054   0.88432   0.00000  Uiso   1.00
N181   N     0.33006   0.83831   0.14602   0.00000  Uiso   1.00
N182   N     0.55880   0.20076   0.24612   0.00000  Uiso   1.00
N183   N     0.69320   0.50928   0.92160   0.00000  Uiso   1.00
N184   N     0.44224   0.88704   0.18331   0.00000  Uiso   1.00
C185   C     0.65974   0.98894   0.43187   0.00000  Uiso   1.00
C186   C     0.68846   0.91331   0.38513   0.00000  Uiso   1.00
C187   C     0.64981   0.82173   0.36578   0.00000  Uiso   1.00
C188   C     0.68577   0.76329   0.32270   0.00000  Uiso   1.00
C189   C     0.71942   0.64094   0.25361   0.00000  Uiso   1.00
C190   C     0.72484   0.99252   0.47617   0.00000  Uiso   1.00
C191   C     0.71676   0.96755   0.53337   0.00000  Uiso   1.00
C192   C     0.78334   0.97581   0.56692   0.00000  Uiso   1.00
C193   C     0.87345   0.97652   0.63919   0.00000  Uiso   1.00
C194   C     0.65679   0.10147   0.40546   0.00000  Uiso   1.00
C195   C     0.59152   0.16813   0.40322   0.00000  Uiso   1.00
C196   C     0.60082   0.26813   0.37726   0.00000  Uiso   1.00
C197   C     0.58529   0.43799   0.33974   0.00000  Uiso   1.00
C198   C     0.79233   0.04802   0.38976   0.00000  Uiso   1.00
C199   C     0.76048   0.94540   0.36225   0.00000  Uiso   1.00
C200   C     0.79650   0.88709   0.31918   0.00000  Uiso   1.00
C201   C     0.75791   0.79543   0.29978   0.00000  Uiso   1.00
C202   C     0.79685   0.02461   0.45330   0.00000  Uiso   1.00
C203   C     0.86345   0.03291   0.48677   0.00000  Uiso   1.00
C204   C     0.85548   0.00796   0.54401   0.00000  Uiso   1.00
C205   C     0.72881   0.13356   0.38258   0.00000  Uiso   1.00
C206   C     0.73821   0.23348   0.35662   0.00000  Uiso   1.00
C207   C     0.67296   0.30027   0.35434   0.00000  Uiso   1.00
H208   H     0.60368   0.96396   0.44969   0.00000  Uiso   1.00
H209   H     0.59408   0.79691   0.38350   0.00000  Uiso   1.00
H210   H     0.66102   0.94273   0.55106   0.00000  Uiso   1.00
H211   H     0.53580   0.14327   0.42093   0.00000  Uiso   1.00
H212   H     0.61522   0.62584   0.30005   0.00000  Uiso   1.00
H213   H     0.75636   0.93334   0.65336   0.00000  Uiso   1.00
H214   H     0.49230   0.35622   0.37896   0.00000  Uiso   1.00
H215   H     0.84840   0.07300   0.37195   0.00000  Uiso   1.00
H216   H     0.85223   0.91194   0.30149   0.00000  Uiso   1.00
H217   H     0.91917   0.05775   0.46905   0.00000  Uiso   1.00
H218   H     0.79395   0.25829   0.33892   0.00000  Uiso   1.00
H219   H     0.82474   0.71920   0.23349   0.00000  Uiso   1.00
H220   H     0.96588   0.02670   0.58680   0.00000  Uiso   1.00
H221   H     0.70182   0.44957   0.31240   0.00000  Uiso   1.00
O222   O     0.71810   0.56458   0.22184   0.00000  Uiso   1.00
O223   O     0.90326   0.96803   0.68537   0.00000  Uiso   1.00
O224   O     0.55683   0.52282   0.32536   0.00000  Uiso   1.00
N225   N     0.66400   0.66993   0.29404   0.00000  Uiso   1.00
N226   N     0.79596   0.95741   0.62437   0.00000  Uiso   1.00
N227   N     0.54909   0.35277   0.36784   0.00000  Uiso   1.00
N228   N     0.77674   0.72016   0.25823   0.00000  Uiso   1.00
N229   N     0.90870   0.00764   0.58855   0.00000  Uiso   1.00
N230   N     0.66183   0.40300   0.33202   0.00000  Uiso   1.00
C231   C     0.05733   0.47933   0.57647   0.00000  Uiso   1.00
C232   C     0.02883   0.40104   0.62207   0.00000  Uiso   1.00
C233   C     0.06735   0.30807   0.63963   0.00000  Uiso   1.00
C234   C     0.03164   0.24724   0.68190   0.00000  Uiso   1.00
C235   C     0.99828   0.12093   0.74906   0.00000  Uiso   1.00
C236   C     0.99178   0.48605   0.53263   0.00000  Uiso   1.00
C237   C     0.99917   0.46457   0.47499   0.00000  Uiso   1.00
C238   C     0.93227   0.47532   0.44197   0.00000  Uiso   1.00
C239   C     0.84140   0.48106   0.37027   0.00000  Uiso   1.00
C240   C     0.06095   0.59015   0.60476   0.00000  Uiso   1.00
C241   C     0.12649   0.65621   0.60776   0.00000  Uiso   1.00
C242   C     0.11782   0.75462   0.63547   0.00000  Uiso   1.00
C243   C     0.13435   0.92199   0.67576   0.00000  Uiso   1.00
C244   C     0.92540   0.53664   0.62032   0.00000  Uiso   1.00
C245   C     0.95717   0.43218   0.64588   0.00000  Uiso   1.00
C246   C     0.92139   0.37148   0.68814   0.00000  Uiso   1.00
C247   C     0.95986   0.27843   0.70577   0.00000  Uiso   1.00
C248   C     0.92013   0.51718   0.55644   0.00000  Uiso   1.00
C249   C     0.85320   0.52798   0.52350   0.00000  Uiso   1.00
C250   C     0.86048   0.50651   0.46583   0.00000  Uiso   1.00
C251   C     0.98930   0.62128   0.62858   0.00000  Uiso   1.00
C252   C     0.98052   0.71962   0.65628   0.00000  Uiso   1.00
C253   C     0.04603   0.78581   0.65932   0.00000  Uiso   1.00
H254   H     0.11311   0.45509   0.55793   0.00000  Uiso   1.00
H255   H     0.12280   0.28400   0.62119   0.00000  Uiso   1.00
H256   H     0.05463   0.44049   0.45657   0.00000  Uiso   1.00
H257   H     0.18193   0.63210   0.58933   0.00000  Uiso   1.00
H258   H     0.10194   0.10802   0.70181   0.00000  Uiso   1.00
H259   H     0.95819   0.43802   0.35471   0.00000  Uiso   1.00
H260   H     0.22663   0.84207   0.63465   0.00000  Uiso   1.00
H261   H     0.86961   0.56088   0.63886   0.00000  Uiso   1.00
H262   H     0.86594   0.39559   0.70656   0.00000  Uiso   1.00
H263   H     0.79776   0.55207   0.54195   0.00000  Uiso   1.00
H264   H     0.92506   0.74368   0.67470   0.00000  Uiso   1.00
H265   H     0.89345   0.19858   0.77110   0.00000  Uiso   1.00
H266   H     0.74971   0.52859   0.42400   0.00000  Uiso   1.00
H267   H     0.01814   0.93263   0.70394   0.00000  Uiso   1.00
O268   O     0.99966   0.04264   0.77952   0.00000  Uiso   1.00
O269   O     0.81108   0.47561   0.32413   0.00000  Uiso   1.00
O270   O     0.16326   0.00570   0.69141   0.00000  Uiso   1.00
N271   N     0.05338   0.15203   0.70883   0.00000  Uiso   1.00
N272   N     0.91898   0.46054   0.38432   0.00000  Uiso   1.00
N273   N     0.16994   0.83831   0.64602   0.00000  Uiso   1.00
N274   N     0.94120   0.20076   0.74612   0.00000  Uiso   1.00
N275   N     0.80680   0.50928   0.42160   0.00000  Uiso   1.00
N276   N     0.05776   0.88704   0.68331   0.00000  Uiso   1.00
C277   C     0.34026   0.01106   0.93187   0.00000  Uiso   1.00
C278   C     0.31154   0.08669   0.88513   0.00000  Uiso   1.00
C279   C     0.35019   0.17827   0.86578   0.00000  Uiso   1.00
C280   C     0.31423   0.23671   0.82270   0.00000  Uiso   1.00
C281   C     0.28058   0.35906   0.75361   0.00000  Uiso   1.00
C282   C     0.27516   0.00748   0.97617   0.00000  Uiso   1.00
C283   C     0.28324   0.03245   0.03337   0.00000  Uiso   1.00
C284   C     0.21666   0.02419   0.06692   0.00000  Uiso   1.00
C285   C     0.12655   0.02348   0.13919   0.00000  Uiso   1.00
C286   C     0.34321   0.89853   0.90546   0.00000  Uiso   1.00
C287   C     0.40848   0.83187   0.90322   0.00000  Uiso   1.00
C288   C     0.39918   0.73187   0.87726   0.00000  Uiso   1.00
C289   C     0.41471   0.56201   0.83974   0.00000  Uiso   1.00
C290   C     0.20767   0.95198   0.88976   0.00000  Uiso   1.00
C291   C     0.23952   0.05460   0.86225   0.00000  Uiso   1.00
C292   C     0.20350   0.11291   0.81918   0.00000  Uiso   1.00
C293   C     0.24209   0.20457   0.79978   0.00000  Uiso   1.00
C294   C     0.20315   0.97539   0.95330   0.00000  Uiso   1.00
C295   C     0.13655   0.96709   0.98677   0.00000  Uiso   1.00
C296   C     0.14452   0.99204   0.04401   0.00000  Uiso   1.00
C297   C     0.27119   0.86644   0.88258   0.00000  Uiso   1.00
C298   C     0.26179   0.76652   0.85662   0.00000  Uiso   1.00
C299   C     0.32704   0.69973   0.85434   0.00000  Uiso   1.00
H300   H     0.39632   0.03604   0.94969   0.00000  Uiso   1.00
H301   H     0.40592   0.20309   0.88350   0.00000  Uiso   1.00
H302   H     0.33898   0.05727   0.05106   0.00000  Uiso   1.00
H303   H     0.46420   0.85673   0.92093   0.00000  Uiso   1.00
H304   H     0.38478   0.37416   0.80005   0.00000  Uiso   1.00
H305   H     0.24364   0.06666   0.15336   0.00000  Uiso   1.00
H306   H     0.50770   0.64378   0.87896   0.00000  Uiso   1.00
H307   H     0.15160   0.92700   0.87195   0.00000  Uiso   1.00
H308   H     0.14777   0.08806   0.80149   0.00000  Uiso   1.00
H309   H     0.08083   0.94225   0.96905   0.00000  Uiso   1.00
H310   H     0.20605   0.74171   0.83892   0.00000  Uiso   1.00
H311   H     0.17526   0.28080   0.73349   0.00000  Uiso   1.00
H312   H     0.03412   0.97330   0.08680   0.00000  Uiso   1.00
H313   H     0.29818   0.55043   0.81240   0.00000  Uiso   1.00
O314   O     0.28190   0.43542   0.72184   0.00000  Uiso   1.00
O315   O     0.09674   0.03197   0.18537   0.00000  Uiso   1.00
O316   O     0.44317   0.47718   0.82536   0.00000  Uiso   1.00
N317   N     0.33600   0.33007   0.79404   0.00000  Uiso   1.00
N318   N     0.20404   0.04259   0.12437   0.00000  Uiso   1.00
N319   N     0.45091   0.64723   0.86784   0.00000  Uiso   1.00
N320   N     0.22326   0.27984   0.75823   0.00000  Uiso   1.00
N321   N     0.09130   0.99236   0.08855   0.00000  Uiso   1.00
N322   N     0.33817   0.59700   0.83202   0.00000  Uiso   1.00
C323   C     0.94267   0.52067   0.07647   0.00000  Uiso   1.00
C324   C     0.97117   0.59896   0.12207   0.00000  Uiso   1.00
C325   C     0.93265   0.69193   0.13963   0.00000  Uiso   1.00
C326   C     0.96836   0.75276   0.18190   0.00000  Uiso   1.00
C327   C     0.00172   0.87907   0.24906   0.00000  Uiso   1.00
C328   C     0.00822   0.51395   0.03263   0.00000  Uiso   1.00
C329   C     0.00083   0.53543   0.97499   0.00000  Uiso   1.00
C330   C     0.06773   0.52468   0.94197   0.00000  Uiso   1.00
C331   C     0.15860   0.51894   0.87027   0.00000  Uiso   1.00
C332   C     0.93905   0.40985   0.10476   0.00000  Uiso   1.00
C333   C     0.87351   0.34379   0.10776   0.00000  Uiso   1.00
C334   C     0.88218   0.24538   0.13547   0.00000  Uiso   1.00
C335   C     0.86565   0.07801   0.17576   0.00000  Uiso   1.00
C336   C     0.07460   0.46336   0.12032   0.00000  Uiso   1.00
C337   C     0.04283   0.56782   0.14588   0.00000  Uiso   1.00
C338   C     0.07861   0.62852   0.18814   0.00000  Uiso   1.00
C339   C     0.04014   0.72157   0.20577   0.00000  Uiso   1.00
C340   C     0.07987   0.48282   0.05644   0.00000  Uiso   1.00
C341   C     0.14680   0.47202   0.02350   0.00000  Uiso   1.00
C342   C     0.13952   0.49349   0.96583   0.00000  Uiso   1.00
C343   C     0.01070   0.37872   0.12858   0.00000  Uiso   1.00
C344   C     0.01948   0.28038   0.15628   0.00000  Uiso   1.00
C345   C     0.95397   0.21419   0.15932   0.00000  Uiso   1.00
H346   H     0.88689   0.54491   0.05793   0.00000  Uiso   1.00
H347   H     0.87720   0.71600   0.12119   0.00000  Uiso   1.00
H348   H     0.94537   0.55951   0.95657   0.00000  Uiso   1.00
H349   H     0.81807   0.36790   0.08933   0.00000  Uiso   1.00
H350   H     0.89806   0.89198   0.20181   0.00000  Uiso   1.00
H351   H     0.04181   0.56198   0.85471   0.00000  Uiso   1.00
H352   H     0.77337   0.15793   0.13465   0.00000  Uiso   1.00
H353   H     0.13039   0.43912   0.13886   0.00000  Uiso   1.00
H354   H     0.13406   0.60441   0.20656   0.00000  Uiso   1.00
H355   H     0.20224   0.44793   0.04195   0.00000  Uiso   1.00
H356   H     0.07494   0.25632   0.17470   0.00000  Uiso   1.00
H357   H     0.10655   0.80142   0.27110   0.00000  Uiso   1.00
H358   H     0.25029   0.47141   0.92400   0.00000  Uiso   1.00
H359   H     0.98186   0.06737   0.20394   0.00000  Uiso   1.00
O360   O     0.00034   0.95736   0.27952   0.00000  Uiso   1.00
O361   O     0.18892   0.52439   0.82413   0.00000  Uiso   1.00
O362   O     0.83674   0.99430   0.19141   0.00000  Uiso   1.00
N363   N     0.94662   0.84797   0.20883   0.00000  Uiso   1.00
N364   N     0.08102   0.53946   0.88432   0.00000  Uiso   1.00
N365   N     0.83006   0.16169   0.14602   0.00000  Uiso   1.00
N366   N     0.05880   0.79924   0.24612   0.00000  Uiso   1.00
N367   N     0.19320   0.49072   0.92160   0.00000  Uiso   1.00
N368   N     0.94224   0.11296   0.18331   0.00000  Uiso   1.00
