data_job_00112
_audit_creation_date              2018-12-19
_audit_creation_method            'Materials Studio'
_symmetry_space_group_name_H-M    'P1'
_symmetry_Int_Tables_number       1
_symmetry_cell_setting            triclinic
loop_
_symmetry_equiv_pos_as_xyz
  x,y,z
_cell_length_a                    29.7932
_cell_length_b                    10.8135
_cell_length_c                    13.0515
_cell_angle_alpha                 90.0000
_cell_angle_beta                  78.3477
_cell_angle_gamma                 90.0000
loop_
_atom_site_label
_atom_site_type_symbol
_atom_site_fract_x
_atom_site_fract_y
_atom_site_fract_z
_atom_site_U_iso_or_equiv
_atom_site_adp_type
_atom_site_occupancy
C1     C     0.41477   0.80536   0.91236   0.00000  Uiso   1.00
C2     C     0.39524   0.77356   0.81623   0.00000  Uiso   1.00
C3     C     0.41038   0.67903   0.74580   0.00000  Uiso   1.00
C4     C     0.38803   0.66499   0.66292   0.00000  Uiso   1.00
C5     C     0.36324   0.60383   0.51544   0.00000  Uiso   1.00
C6     C     0.42887   0.94099   0.90047   0.00000  Uiso   1.00
C7     C     0.47229   0.98722   0.90088   0.00000  Uiso   1.00
C8     C     0.47826   0.11412   0.88891   0.00000  Uiso   1.00
C9     C     0.50567   0.31290   0.87229   0.00000  Uiso   1.00
C10    C     0.37454   0.79964   0.00532   0.00000  Uiso   1.00
C11    C     0.37227   0.72705   0.09392   0.00000  Uiso   1.00
C12    C     0.33248   0.73497   0.17025   0.00000  Uiso   1.00
C13    C     0.27552   0.71429   0.31643   0.00000  Uiso   1.00
C14    C     0.34815   0.94852   0.89040   0.00000  Uiso   1.00
C15    C     0.35906   0.85133   0.80431   0.00000  Uiso   1.00
C16    C     0.33668   0.83742   0.72151   0.00000  Uiso   1.00
C17    C     0.35178   0.74288   0.65097   0.00000  Uiso   1.00
C18    C     0.39269   0.01875   0.88854   0.00000  Uiso   1.00
C19    C     0.39859   0.14561   0.87658   0.00000  Uiso   1.00
C20    C     0.44201   0.19202   0.87696   0.00000  Uiso   1.00
C21    C     0.33835   0.87740   0.99340   0.00000  Uiso   1.00
C22    C     0.29856   0.88544   0.06961   0.00000  Uiso   1.00
C23    C     0.29623   0.81288   0.15830   0.00000  Uiso   1.00
H24    H     0.44294   0.74482   0.92165   0.00000  Uiso   1.00
H25    H     0.43839   0.61888   0.75506   0.00000  Uiso   1.00
H26    H     0.50029   0.92702   0.91012   0.00000  Uiso   1.00
H27    H     0.40027   0.66689   0.10312   0.00000  Uiso   1.00
H28    H     0.41740   0.51356   0.56508   0.00000  Uiso   1.00
H29    H     0.54791   0.16330   0.89207   0.00000  Uiso   1.00
H30    H     0.33702   0.61477   0.29906   0.00000  Uiso   1.00
H31    H     0.31998   0.00907   0.88111   0.00000  Uiso   1.00
H32    H     0.30868   0.89761   0.71230   0.00000  Uiso   1.00
H33    H     0.37058   0.20576   0.86736   0.00000  Uiso   1.00
H34    H     0.27057   0.94563   0.06036   0.00000  Uiso   1.00
H35    H     0.31212   0.73980   0.53037   0.00000  Uiso   1.00
H36    H     0.44264   0.38954   0.85736   0.00000  Uiso   1.00
H37    H     0.23174   0.84101   0.26435   0.00000  Uiso   1.00
O38    O     0.35956   0.54862   0.43739   0.00000  Uiso   1.00
O39    O     0.53078   0.40105   0.86640   0.00000  Uiso   1.00
O40    O     0.25410   0.68139   0.40035   0.00000  Uiso   1.00
N41    N     0.39417   0.58209   0.58009   0.00000  Uiso   1.00
N42    N     0.51619   0.18955   0.88579   0.00000  Uiso   1.00
N43    N     0.31903   0.67675   0.26630   0.00000  Uiso   1.00
N44    N     0.33752   0.70382   0.56142   0.00000  Uiso   1.00
N45    N     0.45954   0.31129   0.86711   0.00000  Uiso   1.00
N46    N     0.26238   0.79848   0.24762   0.00000  Uiso   1.00
C47    C     0.91477   0.30536   0.91236   0.00000  Uiso   1.00
C48    C     0.89524   0.27356   0.81623   0.00000  Uiso   1.00
C49    C     0.91038   0.17903   0.74580   0.00000  Uiso   1.00
C50    C     0.88803   0.16499   0.66292   0.00000  Uiso   1.00
C51    C     0.86324   0.10383   0.51544   0.00000  Uiso   1.00
C52    C     0.92887   0.44099   0.90047   0.00000  Uiso   1.00
C53    C     0.97229   0.48722   0.90088   0.00000  Uiso   1.00
C54    C     0.97826   0.61412   0.88891   0.00000  Uiso   1.00
C55    C     0.00567   0.81290   0.87229   0.00000  Uiso   1.00
C56    C     0.87454   0.29964   0.00532   0.00000  Uiso   1.00
C57    C     0.87227   0.22705   0.09392   0.00000  Uiso   1.00
C58    C     0.83248   0.23497   0.17025   0.00000  Uiso   1.00
C59    C     0.77552   0.21429   0.31643   0.00000  Uiso   1.00
C60    C     0.84815   0.44852   0.89040   0.00000  Uiso   1.00
C61    C     0.85906   0.35133   0.80431   0.00000  Uiso   1.00
C62    C     0.83668   0.33742   0.72151   0.00000  Uiso   1.00
C63    C     0.85178   0.24288   0.65097   0.00000  Uiso   1.00
C64    C     0.89269   0.51875   0.88854   0.00000  Uiso   1.00
C65    C     0.89859   0.64561   0.87658   0.00000  Uiso   1.00
C66    C     0.94201   0.69202   0.87696   0.00000  Uiso   1.00
C67    C     0.83835   0.37740   0.99340   0.00000  Uiso   1.00
C68    C     0.79856   0.38544   0.06961   0.00000  Uiso   1.00
C69    C     0.79623   0.31288   0.15830   0.00000  Uiso   1.00
H70    H     0.94294   0.24482   0.92165   0.00000  Uiso   1.00
H71    H     0.93839   0.11888   0.75506   0.00000  Uiso   1.00
H72    H     0.00029   0.42702   0.91012   0.00000  Uiso   1.00
H73    H     0.90027   0.16689   0.10312   0.00000  Uiso   1.00
H74    H     0.91740   0.01356   0.56508   0.00000  Uiso   1.00
H75    H     0.04791   0.66330   0.89207   0.00000  Uiso   1.00
H76    H     0.83702   0.11477   0.29906   0.00000  Uiso   1.00
H77    H     0.81998   0.50907   0.88111   0.00000  Uiso   1.00
H78    H     0.80868   0.39761   0.71230   0.00000  Uiso   1.00
H79    H     0.87058   0.70576   0.86736   0.00000  Uiso   1.00
H80    H     0.77057   0.44563   0.06036   0.00000  Uiso   1.00
H81    H     0.81212   0.23980   0.53037   0.00000  Uiso   1.00
H82    H     0.94264   0.88954   0.85736   0.00000  Uiso   1.00
H83    H     0.73174   0.34101   0.26435   0.00000  Uiso   1.00
O84    O     0.85956   0.04862   0.43739   0.00000  Uiso   1.00
O85    O     0.03078   0.90105   0.86640   0.00000  Uiso   1.00
O86    O     0.75410   0.18139   0.40035   0.00000  Uiso   1.00
N87    N     0.89417   0.08209   0.58009   0.00000  Uiso   1.00
N88    N     0.01619   0.68955   0.88579   0.00000  Uiso   1.00
N89    N     0.81903   0.17675   0.26630   0.00000  Uiso   1.00
N90    N     0.83752   0.20382   0.56142   0.00000  Uiso   1.00
N91    N     0.95954   0.81129   0.86711   0.00000  Uiso   1.00
N92    N     0.76238   0.29848   0.24762   0.00000  Uiso   1.00
C93    C     0.58523   0.80536   0.58764   0.00000  Uiso   1.00
C94    C     0.60476   0.77356   0.68377   0.00000  Uiso   1.00
C95    C     0.58962   0.67903   0.75420   0.00000  Uiso   1.00
C96    C     0.61197   0.66499   0.83708   0.00000  Uiso   1.00
C97    C     0.63676   0.60383   0.98456   0.00000  Uiso   1.00
C98    C     0.57113   0.94099   0.59953   0.00000  Uiso   1.00
C99    C     0.52771   0.98722   0.59912   0.00000  Uiso   1.00
C100   C     0.52174   0.11412   0.61109   0.00000  Uiso   1.00
C101   C     0.49433   0.31290   0.62771   0.00000  Uiso   1.00
C102   C     0.62546   0.79964   0.49468   0.00000  Uiso   1.00
C103   C     0.62773   0.72705   0.40608   0.00000  Uiso   1.00
C104   C     0.66752   0.73497   0.32975   0.00000  Uiso   1.00
C105   C     0.72448   0.71429   0.18357   0.00000  Uiso   1.00
C106   C     0.65185   0.94852   0.60960   0.00000  Uiso   1.00
C107   C     0.64094   0.85133   0.69569   0.00000  Uiso   1.00
C108   C     0.66332   0.83742   0.77849   0.00000  Uiso   1.00
C109   C     0.64822   0.74288   0.84903   0.00000  Uiso   1.00
C110   C     0.60731   0.01875   0.61146   0.00000  Uiso   1.00
C111   C     0.60141   0.14561   0.62342   0.00000  Uiso   1.00
C112   C     0.55799   0.19202   0.62304   0.00000  Uiso   1.00
C113   C     0.66165   0.87740   0.50660   0.00000  Uiso   1.00
C114   C     0.70144   0.88544   0.43039   0.00000  Uiso   1.00
C115   C     0.70377   0.81288   0.34170   0.00000  Uiso   1.00
H116   H     0.55706   0.74482   0.57835   0.00000  Uiso   1.00
H117   H     0.56161   0.61888   0.74494   0.00000  Uiso   1.00
H118   H     0.49971   0.92702   0.58988   0.00000  Uiso   1.00
H119   H     0.59973   0.66689   0.39688   0.00000  Uiso   1.00
H120   H     0.58260   0.51356   0.93492   0.00000  Uiso   1.00
H121   H     0.45209   0.16330   0.60793   0.00000  Uiso   1.00
H122   H     0.66298   0.61477   0.20094   0.00000  Uiso   1.00
H123   H     0.68002   0.00907   0.61889   0.00000  Uiso   1.00
H124   H     0.69132   0.89761   0.78770   0.00000  Uiso   1.00
H125   H     0.62942   0.20576   0.63264   0.00000  Uiso   1.00
H126   H     0.72943   0.94563   0.43964   0.00000  Uiso   1.00
H127   H     0.68788   0.73980   0.96963   0.00000  Uiso   1.00
H128   H     0.55736   0.38954   0.64264   0.00000  Uiso   1.00
H129   H     0.76826   0.84101   0.23565   0.00000  Uiso   1.00
O130   O     0.64044   0.54862   0.06261   0.00000  Uiso   1.00
O131   O     0.46922   0.40105   0.63360   0.00000  Uiso   1.00
O132   O     0.74590   0.68139   0.09965   0.00000  Uiso   1.00
N133   N     0.60583   0.58209   0.91991   0.00000  Uiso   1.00
N134   N     0.48381   0.18955   0.61421   0.00000  Uiso   1.00
N135   N     0.68097   0.67675   0.23370   0.00000  Uiso   1.00
N136   N     0.66248   0.70382   0.93858   0.00000  Uiso   1.00
N137   N     0.54046   0.31129   0.63289   0.00000  Uiso   1.00
N138   N     0.73762   0.79848   0.25238   0.00000  Uiso   1.00
C139   C     0.08523   0.30536   0.58764   0.00000  Uiso   1.00
C140   C     0.10476   0.27356   0.68377   0.00000  Uiso   1.00
C141   C     0.08962   0.17903   0.75420   0.00000  Uiso   1.00
C142   C     0.11197   0.16499   0.83708   0.00000  Uiso   1.00
C143   C     0.13676   0.10383   0.98456   0.00000  Uiso   1.00
C144   C     0.07113   0.44099   0.59953   0.00000  Uiso   1.00
C145   C     0.02771   0.48722   0.59912   0.00000  Uiso   1.00
C146   C     0.02174   0.61412   0.61109   0.00000  Uiso   1.00
C147   C     0.99433   0.81290   0.62771   0.00000  Uiso   1.00
C148   C     0.12546   0.29964   0.49468   0.00000  Uiso   1.00
C149   C     0.12773   0.22705   0.40608   0.00000  Uiso   1.00
C150   C     0.16752   0.23497   0.32975   0.00000  Uiso   1.00
C151   C     0.22448   0.21429   0.18357   0.00000  Uiso   1.00
C152   C     0.15185   0.44852   0.60960   0.00000  Uiso   1.00
C153   C     0.14094   0.35133   0.69569   0.00000  Uiso   1.00
C154   C     0.16332   0.33742   0.77849   0.00000  Uiso   1.00
C155   C     0.14822   0.24288   0.84903   0.00000  Uiso   1.00
C156   C     0.10731   0.51875   0.61146   0.00000  Uiso   1.00
C157   C     0.10141   0.64561   0.62342   0.00000  Uiso   1.00
C158   C     0.05799   0.69202   0.62304   0.00000  Uiso   1.00
C159   C     0.16165   0.37740   0.50660   0.00000  Uiso   1.00
C160   C     0.20144   0.38544   0.43039   0.00000  Uiso   1.00
C161   C     0.20377   0.31288   0.34170   0.00000  Uiso   1.00
H162   H     0.05706   0.24482   0.57835   0.00000  Uiso   1.00
H163   H     0.06161   0.11888   0.74494   0.00000  Uiso   1.00
H164   H     0.99971   0.42702   0.58988   0.00000  Uiso   1.00
H165   H     0.09973   0.16689   0.39688   0.00000  Uiso   1.00
H166   H     0.08260   0.01356   0.93492   0.00000  Uiso   1.00
H167   H     0.95209   0.66330   0.60793   0.00000  Uiso   1.00
H168   H     0.16298   0.11477   0.20094   0.00000  Uiso   1.00
H169   H     0.18002   0.50907   0.61889   0.00000  Uiso   1.00
H170   H     0.19132   0.39761   0.78770   0.00000  Uiso   1.00
H171   H     0.12942   0.70576   0.63264   0.00000  Uiso   1.00
H172   H     0.22943   0.44563   0.43964   0.00000  Uiso   1.00
H173   H     0.18788   0.23980   0.96963   0.00000  Uiso   1.00
H174   H     0.05736   0.88954   0.64264   0.00000  Uiso   1.00
H175   H     0.26826   0.34101   0.23565   0.00000  Uiso   1.00
O176   O     0.14044   0.04862   0.06261   0.00000  Uiso   1.00
O177   O     0.96922   0.90105   0.63360   0.00000  Uiso   1.00
O178   O     0.24590   0.18139   0.09965   0.00000  Uiso   1.00
N179   N     0.10583   0.08209   0.91991   0.00000  Uiso   1.00
N180   N     0.98381   0.68955   0.61421   0.00000  Uiso   1.00
N181   N     0.18097   0.17675   0.23370   0.00000  Uiso   1.00
N182   N     0.16248   0.20382   0.93858   0.00000  Uiso   1.00
N183   N     0.04046   0.81129   0.63289   0.00000  Uiso   1.00
N184   N     0.23762   0.29848   0.25238   0.00000  Uiso   1.00
C185   C     0.58523   0.19464   0.08764   0.00000  Uiso   1.00
C186   C     0.60476   0.22644   0.18377   0.00000  Uiso   1.00
C187   C     0.58962   0.32097   0.25420   0.00000  Uiso   1.00
C188   C     0.61197   0.33501   0.33708   0.00000  Uiso   1.00
C189   C     0.63676   0.39617   0.48456   0.00000  Uiso   1.00
C190   C     0.57113   0.05901   0.09953   0.00000  Uiso   1.00
C191   C     0.52771   0.01278   0.09912   0.00000  Uiso   1.00
C192   C     0.52174   0.88588   0.11109   0.00000  Uiso   1.00
C193   C     0.49433   0.68710   0.12771   0.00000  Uiso   1.00
C194   C     0.62546   0.20036   0.99468   0.00000  Uiso   1.00
C195   C     0.62773   0.27295   0.90608   0.00000  Uiso   1.00
C196   C     0.66752   0.26503   0.82975   0.00000  Uiso   1.00
C197   C     0.72448   0.28571   0.68357   0.00000  Uiso   1.00
C198   C     0.65185   0.05148   0.10960   0.00000  Uiso   1.00
C199   C     0.64094   0.14867   0.19569   0.00000  Uiso   1.00
C200   C     0.66332   0.16258   0.27849   0.00000  Uiso   1.00
C201   C     0.64822   0.25712   0.34903   0.00000  Uiso   1.00
C202   C     0.60731   0.98125   0.11146   0.00000  Uiso   1.00
C203   C     0.60141   0.85439   0.12342   0.00000  Uiso   1.00
C204   C     0.55799   0.80798   0.12304   0.00000  Uiso   1.00
C205   C     0.66165   0.12260   0.00660   0.00000  Uiso   1.00
C206   C     0.70144   0.11456   0.93039   0.00000  Uiso   1.00
C207   C     0.70377   0.18712   0.84170   0.00000  Uiso   1.00
H208   H     0.55706   0.25518   0.07835   0.00000  Uiso   1.00
H209   H     0.56161   0.38112   0.24494   0.00000  Uiso   1.00
H210   H     0.49971   0.07298   0.08988   0.00000  Uiso   1.00
H211   H     0.59973   0.33311   0.89688   0.00000  Uiso   1.00
H212   H     0.58260   0.48644   0.43492   0.00000  Uiso   1.00
H213   H     0.45209   0.83670   0.10793   0.00000  Uiso   1.00
H214   H     0.66298   0.38523   0.70094   0.00000  Uiso   1.00
H215   H     0.68002   0.99093   0.11889   0.00000  Uiso   1.00
H216   H     0.69132   0.10239   0.28770   0.00000  Uiso   1.00
H217   H     0.62942   0.79424   0.13264   0.00000  Uiso   1.00
H218   H     0.72943   0.05437   0.93964   0.00000  Uiso   1.00
H219   H     0.68788   0.26020   0.46963   0.00000  Uiso   1.00
H220   H     0.55736   0.61046   0.14264   0.00000  Uiso   1.00
H221   H     0.76826   0.15899   0.73565   0.00000  Uiso   1.00
O222   O     0.64044   0.45138   0.56261   0.00000  Uiso   1.00
O223   O     0.46922   0.59895   0.13360   0.00000  Uiso   1.00
O224   O     0.74590   0.31861   0.59965   0.00000  Uiso   1.00
N225   N     0.60583   0.41791   0.41991   0.00000  Uiso   1.00
N226   N     0.48381   0.81045   0.11421   0.00000  Uiso   1.00
N227   N     0.68097   0.32325   0.73370   0.00000  Uiso   1.00
N228   N     0.66248   0.29618   0.43858   0.00000  Uiso   1.00
N229   N     0.54046   0.68871   0.13289   0.00000  Uiso   1.00
N230   N     0.73762   0.20152   0.75238   0.00000  Uiso   1.00
C231   C     0.08523   0.69464   0.08764   0.00000  Uiso   1.00
C232   C     0.10476   0.72644   0.18377   0.00000  Uiso   1.00
C233   C     0.08962   0.82097   0.25420   0.00000  Uiso   1.00
C234   C     0.11197   0.83501   0.33708   0.00000  Uiso   1.00
C235   C     0.13676   0.89617   0.48456   0.00000  Uiso   1.00
C236   C     0.07113   0.55901   0.09953   0.00000  Uiso   1.00
C237   C     0.02771   0.51278   0.09912   0.00000  Uiso   1.00
C238   C     0.02174   0.38588   0.11109   0.00000  Uiso   1.00
C239   C     0.99433   0.18710   0.12771   0.00000  Uiso   1.00
C240   C     0.12546   0.70036   0.99468   0.00000  Uiso   1.00
C241   C     0.12773   0.77295   0.90608   0.00000  Uiso   1.00
C242   C     0.16752   0.76503   0.82975   0.00000  Uiso   1.00
C243   C     0.22448   0.78571   0.68357   0.00000  Uiso   1.00
C244   C     0.15185   0.55148   0.10960   0.00000  Uiso   1.00
C245   C     0.14094   0.64867   0.19569   0.00000  Uiso   1.00
C246   C     0.16332   0.66258   0.27849   0.00000  Uiso   1.00
C247   C     0.14822   0.75712   0.34903   0.00000  Uiso   1.00
C248   C     0.10731   0.48125   0.11146   0.00000  Uiso   1.00
C249   C     0.10141   0.35439   0.12342   0.00000  Uiso   1.00
C250   C     0.05799   0.30798   0.12304   0.00000  Uiso   1.00
C251   C     0.16165   0.62260   0.00660   0.00000  Uiso   1.00
C252   C     0.20144   0.61456   0.93039   0.00000  Uiso   1.00
C253   C     0.20377   0.68712   0.84170   0.00000  Uiso   1.00
H254   H     0.05706   0.75518   0.07835   0.00000  Uiso   1.00
H255   H     0.06161   0.88112   0.24494   0.00000  Uiso   1.00
H256   H     0.99971   0.57298   0.08988   0.00000  Uiso   1.00
H257   H     0.09973   0.83311   0.89688   0.00000  Uiso   1.00
H258   H     0.08260   0.98644   0.43492   0.00000  Uiso   1.00
H259   H     0.95209   0.33670   0.10793   0.00000  Uiso   1.00
H260   H     0.16298   0.88523   0.70094   0.00000  Uiso   1.00
H261   H     0.18002   0.49093   0.11889   0.00000  Uiso   1.00
H262   H     0.19132   0.60239   0.28770   0.00000  Uiso   1.00
H263   H     0.12942   0.29424   0.13264   0.00000  Uiso   1.00
H264   H     0.22943   0.55437   0.93964   0.00000  Uiso   1.00
H265   H     0.18788   0.76020   0.46963   0.00000  Uiso   1.00
H266   H     0.05736   0.11046   0.14264   0.00000  Uiso   1.00
H267   H     0.26826   0.65899   0.73565   0.00000  Uiso   1.00
O268   O     0.14044   0.95138   0.56261   0.00000  Uiso   1.00
O269   O     0.96922   0.09895   0.13360   0.00000  Uiso   1.00
O270   O     0.24590   0.81861   0.59965   0.00000  Uiso   1.00
N271   N     0.10583   0.91791   0.41991   0.00000  Uiso   1.00
N272   N     0.98381   0.31045   0.11421   0.00000  Uiso   1.00
N273   N     0.18097   0.82325   0.73370   0.00000  Uiso   1.00
N274   N     0.16248   0.79618   0.43858   0.00000  Uiso   1.00
N275   N     0.04046   0.18871   0.13289   0.00000  Uiso   1.00
N276   N     0.23762   0.70152   0.75238   0.00000  Uiso   1.00
C277   C     0.41477   0.19464   0.41236   0.00000  Uiso   1.00
C278   C     0.39524   0.22644   0.31623   0.00000  Uiso   1.00
C279   C     0.41038   0.32097   0.24580   0.00000  Uiso   1.00
C280   C     0.38803   0.33501   0.16292   0.00000  Uiso   1.00
C281   C     0.36324   0.39617   0.01544   0.00000  Uiso   1.00
C282   C     0.42887   0.05901   0.40047   0.00000  Uiso   1.00
C283   C     0.47229   0.01278   0.40088   0.00000  Uiso   1.00
C284   C     0.47826   0.88588   0.38891   0.00000  Uiso   1.00
C285   C     0.50567   0.68710   0.37229   0.00000  Uiso   1.00
C286   C     0.37454   0.20036   0.50532   0.00000  Uiso   1.00
C287   C     0.37227   0.27295   0.59392   0.00000  Uiso   1.00
C288   C     0.33248   0.26503   0.67025   0.00000  Uiso   1.00
C289   C     0.27552   0.28571   0.81643   0.00000  Uiso   1.00
C290   C     0.34815   0.05148   0.39040   0.00000  Uiso   1.00
C291   C     0.35906   0.14867   0.30431   0.00000  Uiso   1.00
C292   C     0.33668   0.16258   0.22151   0.00000  Uiso   1.00
C293   C     0.35178   0.25712   0.15097   0.00000  Uiso   1.00
C294   C     0.39269   0.98125   0.38854   0.00000  Uiso   1.00
C295   C     0.39859   0.85439   0.37658   0.00000  Uiso   1.00
C296   C     0.44201   0.80798   0.37696   0.00000  Uiso   1.00
C297   C     0.33835   0.12260   0.49340   0.00000  Uiso   1.00
C298   C     0.29856   0.11456   0.56961   0.00000  Uiso   1.00
C299   C     0.29623   0.18712   0.65830   0.00000  Uiso   1.00
H300   H     0.44294   0.25518   0.42165   0.00000  Uiso   1.00
H301   H     0.43839   0.38112   0.25506   0.00000  Uiso   1.00
H302   H     0.50029   0.07298   0.41012   0.00000  Uiso   1.00
H303   H     0.40027   0.33311   0.60312   0.00000  Uiso   1.00
H304   H     0.41740   0.48644   0.06508   0.00000  Uiso   1.00
H305   H     0.54791   0.83670   0.39207   0.00000  Uiso   1.00
H306   H     0.33702   0.38523   0.79906   0.00000  Uiso   1.00
H307   H     0.31998   0.99093   0.38111   0.00000  Uiso   1.00
H308   H     0.30868   0.10239   0.21230   0.00000  Uiso   1.00
H309   H     0.37058   0.79424   0.36736   0.00000  Uiso   1.00
H310   H     0.27057   0.05437   0.56036   0.00000  Uiso   1.00
H311   H     0.31212   0.26020   0.03037   0.00000  Uiso   1.00
H312   H     0.44264   0.61046   0.35736   0.00000  Uiso   1.00
H313   H     0.23174   0.15899   0.76435   0.00000  Uiso   1.00
O314   O     0.35956   0.45138   0.93739   0.00000  Uiso   1.00
O315   O     0.53078   0.59895   0.36640   0.00000  Uiso   1.00
O316   O     0.25410   0.31861   0.90035   0.00000  Uiso   1.00
N317   N     0.39417   0.41791   0.08009   0.00000  Uiso   1.00
N318   N     0.51619   0.81045   0.38579   0.00000  Uiso   1.00
N319   N     0.31903   0.32325   0.76630   0.00000  Uiso   1.00
N320   N     0.33752   0.29618   0.06142   0.00000  Uiso   1.00
N321   N     0.45954   0.68871   0.36711   0.00000  Uiso   1.00
N322   N     0.26238   0.20152   0.74762   0.00000  Uiso   1.00
C323   C     0.91477   0.69464   0.41236   0.00000  Uiso   1.00
C324   C     0.89524   0.72644   0.31623   0.00000  Uiso   1.00
C325   C     0.91038   0.82097   0.24580   0.00000  Uiso   1.00
C326   C     0.88803   0.83501   0.16292   0.00000  Uiso   1.00
C327   C     0.86324   0.89617   0.01544   0.00000  Uiso   1.00
C328   C     0.92887   0.55901   0.40047   0.00000  Uiso   1.00
C329   C     0.97229   0.51278   0.40088   0.00000  Uiso   1.00
C330   C     0.97826   0.38588   0.38891   0.00000  Uiso   1.00
C331   C     0.00567   0.18710   0.37229   0.00000  Uiso   1.00
C332   C     0.87454   0.70036   0.50532   0.00000  Uiso   1.00
C333   C     0.87227   0.77295   0.59392   0.00000  Uiso   1.00
C334   C     0.83248   0.76503   0.67025   0.00000  Uiso   1.00
C335   C     0.77552   0.78571   0.81643   0.00000  Uiso   1.00
C336   C     0.84815   0.55148   0.39040   0.00000  Uiso   1.00
C337   C     0.85906   0.64867   0.30431   0.00000  Uiso   1.00
C338   C     0.83668   0.66258   0.22151   0.00000  Uiso   1.00
C339   C     0.85178   0.75712   0.15097   0.00000  Uiso   1.00
C340   C     0.89269   0.48125   0.38854   0.00000  Uiso   1.00
C341   C     0.89859   0.35439   0.37658   0.00000  Uiso   1.00
C342   C     0.94201   0.30798   0.37696   0.00000  Uiso   1.00
C343   C     0.83835   0.62260   0.49340   0.00000  Uiso   1.00
C344   C     0.79856   0.61456   0.56961   0.00000  Uiso   1.00
C345   C     0.79623   0.68712   0.65830   0.00000  Uiso   1.00
H346   H     0.94294   0.75518   0.42165   0.00000  Uiso   1.00
H347   H     0.93839   0.88112   0.25506   0.00000  Uiso   1.00
H348   H     0.00029   0.57298   0.41012   0.00000  Uiso   1.00
H349   H     0.90027   0.83311   0.60312   0.00000  Uiso   1.00
H350   H     0.91740   0.98644   0.06508   0.00000  Uiso   1.00
H351   H     0.04791   0.33670   0.39207   0.00000  Uiso   1.00
H352   H     0.83702   0.88523   0.79906   0.00000  Uiso   1.00
H353   H     0.81998   0.49093   0.38111   0.00000  Uiso   1.00
H354   H     0.80868   0.60239   0.21230   0.00000  Uiso   1.00
H355   H     0.87058   0.29424   0.36736   0.00000  Uiso   1.00
H356   H     0.77057   0.55437   0.56036   0.00000  Uiso   1.00
H357   H     0.81212   0.76020   0.03037   0.00000  Uiso   1.00
H358   H     0.94264   0.11046   0.35736   0.00000  Uiso   1.00
H359   H     0.73174   0.65899   0.76435   0.00000  Uiso   1.00
O360   O     0.85956   0.95138   0.93739   0.00000  Uiso   1.00
O361   O     0.03078   0.09895   0.36640   0.00000  Uiso   1.00
O362   O     0.75410   0.81861   0.90035   0.00000  Uiso   1.00
N363   N     0.89417   0.91791   0.08009   0.00000  Uiso   1.00
N364   N     0.01619   0.31045   0.38579   0.00000  Uiso   1.00
N365   N     0.81903   0.82325   0.76630   0.00000  Uiso   1.00
N366   N     0.83752   0.79618   0.06142   0.00000  Uiso   1.00
N367   N     0.95954   0.18871   0.36711   0.00000  Uiso   1.00
N368   N     0.76238   0.70152   0.74762   0.00000  Uiso   1.00
