data_job_00956
_audit_creation_date              2018-12-19
_audit_creation_method            'Materials Studio'
_symmetry_space_group_name_H-M    'P1'
_symmetry_Int_Tables_number       1
_symmetry_cell_setting            triclinic
loop_
_symmetry_equiv_pos_as_xyz
  x,y,z
_cell_length_a                    12.2980
_cell_length_b                    23.9083
_cell_length_c                    9.5420
_cell_angle_alpha                 90.0000
_cell_angle_beta                  78.7899
_cell_angle_gamma                 90.0000
loop_
_atom_site_label
_atom_site_type_symbol
_atom_site_fract_x
_atom_site_fract_y
_atom_site_fract_z
_atom_site_U_iso_or_equiv
_atom_site_adp_type
_atom_site_occupancy
C1     C     0.62782   0.18794   0.07255   0.00000  Uiso   1.00
C2     C     0.72876   0.19122   0.14311   0.00000  Uiso   1.00
C3     C     0.79398   0.23824   0.14850   0.00000  Uiso   1.00
C4     C     0.88266   0.23271   0.21798   0.00000  Uiso   1.00
C5     C     0.03600   0.24552   0.31807   0.00000  Uiso   1.00
C6     C     0.65106   0.14043   0.96422   0.00000  Uiso   1.00
C7     C     0.65094   0.14475   0.81921   0.00000  Uiso   1.00
C8     C     0.67420   0.09645   0.73812   0.00000  Uiso   1.00
C9     C     0.70683   0.03040   0.56050   0.00000  Uiso   1.00
C10    C     0.53208   0.16812   0.18832   0.00000  Uiso   1.00
C11    C     0.43190   0.19571   0.23170   0.00000  Uiso   1.00
C12    C     0.35497   0.17072   0.33926   0.00000  Uiso   1.00
C13    C     0.20287   0.14766   0.50958   0.00000  Uiso   1.00
C14    C     0.66932   0.09449   0.18638   0.00000  Uiso   1.00
C15    C     0.75130   0.14046   0.20493   0.00000  Uiso   1.00
C16    C     0.83990   0.13485   0.27444   0.00000  Uiso   1.00
C17    C     0.90524   0.18186   0.27993   0.00000  Uiso   1.00
C18    C     0.67361   0.08967   0.02604   0.00000  Uiso   1.00
C19    C     0.69686   0.04136   0.94515   0.00000  Uiso   1.00
C20    C     0.69678   0.04560   0.80005   0.00000  Uiso   1.00
C21    C     0.55462   0.11736   0.25015   0.00000  Uiso   1.00
C22    C     0.47783   0.09232   0.35765   0.00000  Uiso   1.00
C23    C     0.37756   0.11987   0.40120   0.00000  Uiso   1.00
H24    H     0.61027   0.22745   0.02441   0.00000  Uiso   1.00
H25    H     0.77651   0.27752   0.10062   0.00000  Uiso   1.00
H26    H     0.63348   0.18403   0.77139   0.00000  Uiso   1.00
H27    H     0.41449   0.23499   0.18383   0.00000  Uiso   1.00
H28    H     0.97079   0.31063   0.21234   0.00000  Uiso   1.00
H29    H     0.66917   0.11351   0.51816   0.00000  Uiso   1.00
H30    H     0.20737   0.22096   0.38785   0.00000  Uiso   1.00
H31    H     0.68687   0.05497   0.23452   0.00000  Uiso   1.00
H32    H     0.85732   0.09557   0.32228   0.00000  Uiso   1.00
H33    H     0.71430   0.00208   0.99304   0.00000  Uiso   1.00
H34    H     0.49530   0.05304   0.40547   0.00000  Uiso   1.00
H35    H     0.03639   0.16295   0.39224   0.00000  Uiso   1.00
H36    H     0.73476   0.96583   0.69805   0.00000  Uiso   1.00
H37    H     0.27296   0.07329   0.56775   0.00000  Uiso   1.00
O38    O     0.11436   0.26661   0.35618   0.00000  Uiso   1.00
O39    O     0.71861   0.00799   0.44544   0.00000  Uiso   1.00
O40    O     0.11276   0.14897   0.58647   0.00000  Uiso   1.00
N41    N     0.96282   0.27031   0.24266   0.00000  Uiso   1.00
N42    N     0.68084   0.08601   0.59363   0.00000  Uiso   1.00
N43    N     0.24909   0.18646   0.40670   0.00000  Uiso   1.00
N44    N     0.99812   0.19084   0.33947   0.00000  Uiso   1.00
N45    N     0.71614   0.00655   0.69044   0.00000  Uiso   1.00
N46    N     0.28438   0.10700   0.50350   0.00000  Uiso   1.00
C47    C     0.37218   0.68794   0.42745   0.00000  Uiso   1.00
C48    C     0.27124   0.69122   0.35689   0.00000  Uiso   1.00
C49    C     0.20602   0.73824   0.35150   0.00000  Uiso   1.00
C50    C     0.11734   0.73271   0.28202   0.00000  Uiso   1.00
C51    C     0.96400   0.74552   0.18193   0.00000  Uiso   1.00
C52    C     0.34894   0.64043   0.53578   0.00000  Uiso   1.00
C53    C     0.34906   0.64475   0.68079   0.00000  Uiso   1.00
C54    C     0.32580   0.59645   0.76188   0.00000  Uiso   1.00
C55    C     0.29317   0.53040   0.93950   0.00000  Uiso   1.00
C56    C     0.46792   0.66812   0.31168   0.00000  Uiso   1.00
C57    C     0.56810   0.69571   0.26830   0.00000  Uiso   1.00
C58    C     0.64503   0.67072   0.16074   0.00000  Uiso   1.00
C59    C     0.79713   0.64766   0.99042   0.00000  Uiso   1.00
C60    C     0.33068   0.59449   0.31362   0.00000  Uiso   1.00
C61    C     0.24870   0.64046   0.29507   0.00000  Uiso   1.00
C62    C     0.16010   0.63485   0.22556   0.00000  Uiso   1.00
C63    C     0.09476   0.68186   0.22007   0.00000  Uiso   1.00
C64    C     0.32639   0.58967   0.47396   0.00000  Uiso   1.00
C65    C     0.30314   0.54136   0.55485   0.00000  Uiso   1.00
C66    C     0.30322   0.54560   0.69995   0.00000  Uiso   1.00
C67    C     0.44538   0.61736   0.24985   0.00000  Uiso   1.00
C68    C     0.52217   0.59232   0.14235   0.00000  Uiso   1.00
C69    C     0.62244   0.61987   0.09880   0.00000  Uiso   1.00
H70    H     0.38973   0.72745   0.47559   0.00000  Uiso   1.00
H71    H     0.22349   0.77752   0.39938   0.00000  Uiso   1.00
H72    H     0.36652   0.68403   0.72861   0.00000  Uiso   1.00
H73    H     0.58551   0.73499   0.31617   0.00000  Uiso   1.00
H74    H     0.02921   0.81063   0.28766   0.00000  Uiso   1.00
H75    H     0.33083   0.61351   0.98184   0.00000  Uiso   1.00
H76    H     0.79263   0.72096   0.11215   0.00000  Uiso   1.00
H77    H     0.31313   0.55497   0.26548   0.00000  Uiso   1.00
H78    H     0.14268   0.59557   0.17772   0.00000  Uiso   1.00
H79    H     0.28570   0.50208   0.50696   0.00000  Uiso   1.00
H80    H     0.50470   0.55304   0.09453   0.00000  Uiso   1.00
H81    H     0.96361   0.66295   0.10776   0.00000  Uiso   1.00
H82    H     0.26524   0.46583   0.80195   0.00000  Uiso   1.00
H83    H     0.72704   0.57329   0.93225   0.00000  Uiso   1.00
O84    O     0.88564   0.76661   0.14382   0.00000  Uiso   1.00
O85    O     0.28139   0.50799   0.05456   0.00000  Uiso   1.00
O86    O     0.88724   0.64897   0.91353   0.00000  Uiso   1.00
N87    N     0.03718   0.77031   0.25734   0.00000  Uiso   1.00
N88    N     0.31916   0.58601   0.90637   0.00000  Uiso   1.00
N89    N     0.75091   0.68646   0.09330   0.00000  Uiso   1.00
N90    N     0.00188   0.69084   0.16053   0.00000  Uiso   1.00
N91    N     0.28386   0.50655   0.80956   0.00000  Uiso   1.00
N92    N     0.71562   0.60700   0.99650   0.00000  Uiso   1.00
C93    C     0.37218   0.81206   0.92745   0.00000  Uiso   1.00
C94    C     0.27124   0.80878   0.85689   0.00000  Uiso   1.00
C95    C     0.20602   0.76176   0.85150   0.00000  Uiso   1.00
C96    C     0.11734   0.76729   0.78202   0.00000  Uiso   1.00
C97    C     0.96400   0.75448   0.68193   0.00000  Uiso   1.00
C98    C     0.34894   0.85957   0.03578   0.00000  Uiso   1.00
C99    C     0.34906   0.85525   0.18079   0.00000  Uiso   1.00
C100   C     0.32580   0.90355   0.26188   0.00000  Uiso   1.00
C101   C     0.29317   0.96960   0.43950   0.00000  Uiso   1.00
C102   C     0.46792   0.83188   0.81168   0.00000  Uiso   1.00
C103   C     0.56810   0.80429   0.76830   0.00000  Uiso   1.00
C104   C     0.64503   0.82928   0.66074   0.00000  Uiso   1.00
C105   C     0.79713   0.85234   0.49042   0.00000  Uiso   1.00
C106   C     0.33068   0.90551   0.81362   0.00000  Uiso   1.00
C107   C     0.24870   0.85954   0.79507   0.00000  Uiso   1.00
C108   C     0.16010   0.86515   0.72556   0.00000  Uiso   1.00
C109   C     0.09476   0.81814   0.72007   0.00000  Uiso   1.00
C110   C     0.32639   0.91033   0.97396   0.00000  Uiso   1.00
C111   C     0.30314   0.95864   0.05485   0.00000  Uiso   1.00
C112   C     0.30322   0.95440   0.19995   0.00000  Uiso   1.00
C113   C     0.44538   0.88264   0.74985   0.00000  Uiso   1.00
C114   C     0.52217   0.90768   0.64235   0.00000  Uiso   1.00
C115   C     0.62244   0.88013   0.59880   0.00000  Uiso   1.00
H116   H     0.38973   0.77255   0.97559   0.00000  Uiso   1.00
H117   H     0.22349   0.72248   0.89938   0.00000  Uiso   1.00
H118   H     0.36652   0.81597   0.22861   0.00000  Uiso   1.00
H119   H     0.58551   0.76501   0.81617   0.00000  Uiso   1.00
H120   H     0.02921   0.68937   0.78766   0.00000  Uiso   1.00
H121   H     0.33083   0.88649   0.48184   0.00000  Uiso   1.00
H122   H     0.79263   0.77904   0.61215   0.00000  Uiso   1.00
H123   H     0.31313   0.94503   0.76548   0.00000  Uiso   1.00
H124   H     0.14268   0.90443   0.67772   0.00000  Uiso   1.00
H125   H     0.28570   0.99792   0.00696   0.00000  Uiso   1.00
H126   H     0.50470   0.94696   0.59453   0.00000  Uiso   1.00
H127   H     0.96361   0.83705   0.60776   0.00000  Uiso   1.00
H128   H     0.26524   0.03417   0.30195   0.00000  Uiso   1.00
H129   H     0.72704   0.92671   0.43225   0.00000  Uiso   1.00
O130   O     0.88564   0.73339   0.64382   0.00000  Uiso   1.00
O131   O     0.28139   0.99201   0.55456   0.00000  Uiso   1.00
O132   O     0.88724   0.85103   0.41353   0.00000  Uiso   1.00
N133   N     0.03718   0.72969   0.75734   0.00000  Uiso   1.00
N134   N     0.31916   0.91399   0.40637   0.00000  Uiso   1.00
N135   N     0.75091   0.81354   0.59330   0.00000  Uiso   1.00
N136   N     0.00188   0.80916   0.66053   0.00000  Uiso   1.00
N137   N     0.28386   0.99345   0.30956   0.00000  Uiso   1.00
N138   N     0.71562   0.89300   0.49650   0.00000  Uiso   1.00
C139   C     0.62782   0.31206   0.57255   0.00000  Uiso   1.00
C140   C     0.72876   0.30878   0.64311   0.00000  Uiso   1.00
C141   C     0.79398   0.26176   0.64850   0.00000  Uiso   1.00
C142   C     0.88266   0.26729   0.71798   0.00000  Uiso   1.00
C143   C     0.03600   0.25448   0.81807   0.00000  Uiso   1.00
C144   C     0.65106   0.35957   0.46422   0.00000  Uiso   1.00
C145   C     0.65094   0.35525   0.31921   0.00000  Uiso   1.00
C146   C     0.67420   0.40355   0.23812   0.00000  Uiso   1.00
C147   C     0.70683   0.46960   0.06050   0.00000  Uiso   1.00
C148   C     0.53208   0.33188   0.68832   0.00000  Uiso   1.00
C149   C     0.43190   0.30429   0.73170   0.00000  Uiso   1.00
C150   C     0.35497   0.32928   0.83926   0.00000  Uiso   1.00
C151   C     0.20287   0.35234   0.00958   0.00000  Uiso   1.00
C152   C     0.66932   0.40551   0.68638   0.00000  Uiso   1.00
C153   C     0.75130   0.35954   0.70493   0.00000  Uiso   1.00
C154   C     0.83990   0.36515   0.77444   0.00000  Uiso   1.00
C155   C     0.90524   0.31814   0.77993   0.00000  Uiso   1.00
C156   C     0.67361   0.41033   0.52604   0.00000  Uiso   1.00
C157   C     0.69686   0.45864   0.44515   0.00000  Uiso   1.00
C158   C     0.69678   0.45440   0.30005   0.00000  Uiso   1.00
C159   C     0.55462   0.38264   0.75015   0.00000  Uiso   1.00
C160   C     0.47783   0.40768   0.85765   0.00000  Uiso   1.00
C161   C     0.37756   0.38013   0.90120   0.00000  Uiso   1.00
H162   H     0.61027   0.27255   0.52441   0.00000  Uiso   1.00
H163   H     0.77651   0.22248   0.60062   0.00000  Uiso   1.00
H164   H     0.63348   0.31597   0.27139   0.00000  Uiso   1.00
H165   H     0.41449   0.26501   0.68383   0.00000  Uiso   1.00
H166   H     0.97079   0.18937   0.71234   0.00000  Uiso   1.00
H167   H     0.66917   0.38649   0.01816   0.00000  Uiso   1.00
H168   H     0.20737   0.27904   0.88785   0.00000  Uiso   1.00
H169   H     0.68687   0.44503   0.73452   0.00000  Uiso   1.00
H170   H     0.85732   0.40443   0.82228   0.00000  Uiso   1.00
H171   H     0.71430   0.49792   0.49304   0.00000  Uiso   1.00
H172   H     0.49530   0.44696   0.90547   0.00000  Uiso   1.00
H173   H     0.03639   0.33705   0.89224   0.00000  Uiso   1.00
H174   H     0.73476   0.53417   0.19805   0.00000  Uiso   1.00
H175   H     0.27296   0.42671   0.06775   0.00000  Uiso   1.00
O176   O     0.11436   0.23339   0.85618   0.00000  Uiso   1.00
O177   O     0.71861   0.49201   0.94544   0.00000  Uiso   1.00
O178   O     0.11276   0.35103   0.08647   0.00000  Uiso   1.00
N179   N     0.96282   0.22969   0.74266   0.00000  Uiso   1.00
N180   N     0.68084   0.41399   0.09363   0.00000  Uiso   1.00
N181   N     0.24909   0.31354   0.90670   0.00000  Uiso   1.00
N182   N     0.99812   0.30916   0.83947   0.00000  Uiso   1.00
N183   N     0.71614   0.49345   0.19044   0.00000  Uiso   1.00
N184   N     0.28438   0.39300   0.00350   0.00000  Uiso   1.00
