data_job_02836
_audit_creation_date              2018-12-19
_audit_creation_method            'Materials Studio'
_symmetry_space_group_name_H-M    'P1'
_symmetry_Int_Tables_number       1
_symmetry_cell_setting            triclinic
loop_
_symmetry_equiv_pos_as_xyz
  x,y,z
_cell_length_a                    23.4021
_cell_length_b                    11.2743
_cell_length_c                    22.1245
_cell_angle_alpha                 90.0000
_cell_angle_beta                  90.0000
_cell_angle_gamma                 90.0000
loop_
_atom_site_label
_atom_site_type_symbol
_atom_site_fract_x
_atom_site_fract_y
_atom_site_fract_z
_atom_site_U_iso_or_equiv
_atom_site_adp_type
_atom_site_occupancy
C1     C     0.88524   0.33166   0.41664   0.00000  Uiso   1.00
C2     C     0.88574   0.23452   0.46461   0.00000  Uiso   1.00
C3     C     0.87765   0.25128   0.52616   0.00000  Uiso   1.00
C4     C     0.87965   0.15105   0.56256   0.00000  Uiso   1.00
C5     C     0.87892   0.01739   0.64073   0.00000  Uiso   1.00
C6     C     0.83988   0.29539   0.37074   0.00000  Uiso   1.00
C7     C     0.79323   0.36333   0.35337   0.00000  Uiso   1.00
C8     C     0.75663   0.31434   0.31075   0.00000  Uiso   1.00
C9     C     0.68472   0.27521   0.24316   0.00000  Uiso   1.00
C10    C     0.94240   0.32266   0.38387   0.00000  Uiso   1.00
C11    C     0.98195   0.41353   0.37752   0.00000  Uiso   1.00
C12    C     0.03166   0.38750   0.34594   0.00000  Uiso   1.00
C13    C     0.11893   0.39071   0.29875   0.00000  Uiso   1.00
C14    C     0.90319   0.12386   0.37184   0.00000  Uiso   1.00
C15    C     0.89549   0.12166   0.44027   0.00000  Uiso   1.00
C16    C     0.89751   0.02138   0.47658   0.00000  Uiso   1.00
C17    C     0.88942   0.03798   0.53818   0.00000  Uiso   1.00
C18    C     0.84963   0.18253   0.34641   0.00000  Uiso   1.00
C19    C     0.81309   0.13343   0.30380   0.00000  Uiso   1.00
C20    C     0.76640   0.20127   0.28637   0.00000  Uiso   1.00
C21    C     0.95215   0.20979   0.35954   0.00000  Uiso   1.00
C22    C     0.00181   0.18362   0.32795   0.00000  Uiso   1.00
C23    C     0.04143   0.27443   0.32156   0.00000  Uiso   1.00
H24    H     0.87764   0.41953   0.43559   0.00000  Uiso   1.00
H25    H     0.87010   0.33864   0.54497   0.00000  Uiso   1.00
H26    H     0.78570   0.45067   0.37221   0.00000  Uiso   1.00
H27    H     0.97439   0.50086   0.39636   0.00000  Uiso   1.00
H28    H     0.86601   0.19918   0.65551   0.00000  Uiso   1.00
H29    H     0.68806   0.43543   0.29121   0.00000  Uiso   1.00
H30    H     0.08595   0.54126   0.34214   0.00000  Uiso   1.00
H31    H     0.91078   0.03599   0.35289   0.00000  Uiso   1.00
H32    H     0.90506   0.93405   0.45774   0.00000  Uiso   1.00
H33    H     0.82065   0.04609   0.28497   0.00000  Uiso   1.00
H34    H     0.00934   0.09627   0.30913   0.00000  Uiso   1.00
H35    H     0.89438   0.87080   0.58471   0.00000  Uiso   1.00
H36    H     0.71643   0.10705   0.22040   0.00000  Uiso   1.00
H37    H     0.11432   0.21288   0.27134   0.00000  Uiso   1.00
O38    O     0.87581   0.97485   0.69057   0.00000  Uiso   1.00
O39    O     0.64235   0.28481   0.21262   0.00000  Uiso   1.00
O40    O     0.16437   0.42365   0.27944   0.00000  Uiso   1.00
N41    N     0.87348   0.13589   0.62446   0.00000  Uiso   1.00
N42    N     0.70711   0.35676   0.28387   0.00000  Uiso   1.00
N43    N     0.07909   0.45571   0.33147   0.00000  Uiso   1.00
N44    N     0.88875   0.95919   0.58636   0.00000  Uiso   1.00
N45    N     0.72237   0.18006   0.24577   0.00000  Uiso   1.00
N46    N     0.09436   0.27901   0.29337   0.00000  Uiso   1.00
C47    C     0.61476   0.66834   0.41664   0.00000  Uiso   1.00
C48    C     0.61426   0.76548   0.46461   0.00000  Uiso   1.00
C49    C     0.62235   0.74872   0.52616   0.00000  Uiso   1.00
C50    C     0.62035   0.84895   0.56256   0.00000  Uiso   1.00
C51    C     0.62108   0.98261   0.64073   0.00000  Uiso   1.00
C52    C     0.66012   0.70461   0.37074   0.00000  Uiso   1.00
C53    C     0.70677   0.63667   0.35337   0.00000  Uiso   1.00
C54    C     0.74337   0.68566   0.31075   0.00000  Uiso   1.00
C55    C     0.81528   0.72479   0.24316   0.00000  Uiso   1.00
C56    C     0.55760   0.67734   0.38387   0.00000  Uiso   1.00
C57    C     0.51805   0.58647   0.37752   0.00000  Uiso   1.00
C58    C     0.46834   0.61250   0.34594   0.00000  Uiso   1.00
C59    C     0.38107   0.60929   0.29875   0.00000  Uiso   1.00
C60    C     0.59681   0.87614   0.37184   0.00000  Uiso   1.00
C61    C     0.60451   0.87834   0.44027   0.00000  Uiso   1.00
C62    C     0.60249   0.97862   0.47658   0.00000  Uiso   1.00
C63    C     0.61058   0.96202   0.53818   0.00000  Uiso   1.00
C64    C     0.65037   0.81747   0.34641   0.00000  Uiso   1.00
C65    C     0.68691   0.86657   0.30380   0.00000  Uiso   1.00
C66    C     0.73360   0.79873   0.28637   0.00000  Uiso   1.00
C67    C     0.54785   0.79021   0.35954   0.00000  Uiso   1.00
C68    C     0.49819   0.81638   0.32795   0.00000  Uiso   1.00
C69    C     0.45857   0.72557   0.32156   0.00000  Uiso   1.00
H70    H     0.62236   0.58047   0.43559   0.00000  Uiso   1.00
H71    H     0.62990   0.66136   0.54497   0.00000  Uiso   1.00
H72    H     0.71430   0.54933   0.37221   0.00000  Uiso   1.00
H73    H     0.52561   0.49914   0.39636   0.00000  Uiso   1.00
H74    H     0.63399   0.80082   0.65551   0.00000  Uiso   1.00
H75    H     0.81194   0.56457   0.29121   0.00000  Uiso   1.00
H76    H     0.41405   0.45874   0.34214   0.00000  Uiso   1.00
H77    H     0.58922   0.96401   0.35289   0.00000  Uiso   1.00
H78    H     0.59494   0.06595   0.45774   0.00000  Uiso   1.00
H79    H     0.67935   0.95391   0.28497   0.00000  Uiso   1.00
H80    H     0.49066   0.90373   0.30913   0.00000  Uiso   1.00
H81    H     0.60562   0.12920   0.58471   0.00000  Uiso   1.00
H82    H     0.78357   0.89295   0.22040   0.00000  Uiso   1.00
H83    H     0.38568   0.78712   0.27134   0.00000  Uiso   1.00
O84    O     0.62419   0.02515   0.69057   0.00000  Uiso   1.00
O85    O     0.85765   0.71519   0.21262   0.00000  Uiso   1.00
O86    O     0.33563   0.57635   0.27944   0.00000  Uiso   1.00
N87    N     0.62652   0.86411   0.62446   0.00000  Uiso   1.00
N88    N     0.79289   0.64324   0.28387   0.00000  Uiso   1.00
N89    N     0.42091   0.54429   0.33147   0.00000  Uiso   1.00
N90    N     0.61125   0.04081   0.58636   0.00000  Uiso   1.00
N91    N     0.77763   0.81994   0.24577   0.00000  Uiso   1.00
N92    N     0.40564   0.72099   0.29337   0.00000  Uiso   1.00
C93    C     0.11476   0.33166   0.08336   0.00000  Uiso   1.00
C94    C     0.11426   0.23452   0.03539   0.00000  Uiso   1.00
C95    C     0.12235   0.25128   0.97384   0.00000  Uiso   1.00
C96    C     0.12035   0.15105   0.93744   0.00000  Uiso   1.00
C97    C     0.12108   0.01739   0.85927   0.00000  Uiso   1.00
C98    C     0.16012   0.29539   0.12926   0.00000  Uiso   1.00
C99    C     0.20677   0.36333   0.14663   0.00000  Uiso   1.00
C100   C     0.24337   0.31434   0.18925   0.00000  Uiso   1.00
C101   C     0.31528   0.27521   0.25684   0.00000  Uiso   1.00
C102   C     0.05760   0.32266   0.11613   0.00000  Uiso   1.00
C103   C     0.01805   0.41353   0.12248   0.00000  Uiso   1.00
C104   C     0.96834   0.38750   0.15406   0.00000  Uiso   1.00
C105   C     0.88107   0.39071   0.20125   0.00000  Uiso   1.00
C106   C     0.09681   0.12386   0.12816   0.00000  Uiso   1.00
C107   C     0.10451   0.12166   0.05973   0.00000  Uiso   1.00
C108   C     0.10249   0.02138   0.02342   0.00000  Uiso   1.00
C109   C     0.11058   0.03798   0.96182   0.00000  Uiso   1.00
C110   C     0.15037   0.18253   0.15359   0.00000  Uiso   1.00
C111   C     0.18691   0.13343   0.19620   0.00000  Uiso   1.00
C112   C     0.23360   0.20127   0.21363   0.00000  Uiso   1.00
C113   C     0.04785   0.20979   0.14046   0.00000  Uiso   1.00
C114   C     0.99819   0.18362   0.17205   0.00000  Uiso   1.00
C115   C     0.95857   0.27443   0.17844   0.00000  Uiso   1.00
H116   H     0.12236   0.41953   0.06441   0.00000  Uiso   1.00
H117   H     0.12990   0.33864   0.95503   0.00000  Uiso   1.00
H118   H     0.21430   0.45067   0.12779   0.00000  Uiso   1.00
H119   H     0.02561   0.50086   0.10364   0.00000  Uiso   1.00
H120   H     0.13399   0.19918   0.84449   0.00000  Uiso   1.00
H121   H     0.31194   0.43543   0.20879   0.00000  Uiso   1.00
H122   H     0.91405   0.54126   0.15786   0.00000  Uiso   1.00
H123   H     0.08922   0.03599   0.14711   0.00000  Uiso   1.00
H124   H     0.09494   0.93405   0.04226   0.00000  Uiso   1.00
H125   H     0.17935   0.04609   0.21503   0.00000  Uiso   1.00
H126   H     0.99066   0.09627   0.19087   0.00000  Uiso   1.00
H127   H     0.10562   0.87080   0.91529   0.00000  Uiso   1.00
H128   H     0.28357   0.10705   0.27960   0.00000  Uiso   1.00
H129   H     0.88568   0.21288   0.22866   0.00000  Uiso   1.00
O130   O     0.12419   0.97485   0.80943   0.00000  Uiso   1.00
O131   O     0.35765   0.28481   0.28738   0.00000  Uiso   1.00
O132   O     0.83563   0.42365   0.22056   0.00000  Uiso   1.00
N133   N     0.12652   0.13589   0.87554   0.00000  Uiso   1.00
N134   N     0.29289   0.35676   0.21613   0.00000  Uiso   1.00
N135   N     0.92091   0.45571   0.16853   0.00000  Uiso   1.00
N136   N     0.11125   0.95919   0.91364   0.00000  Uiso   1.00
N137   N     0.27763   0.18006   0.25423   0.00000  Uiso   1.00
N138   N     0.90564   0.27901   0.20663   0.00000  Uiso   1.00
C139   C     0.38524   0.66834   0.08336   0.00000  Uiso   1.00
C140   C     0.38574   0.76548   0.03539   0.00000  Uiso   1.00
C141   C     0.37765   0.74872   0.97384   0.00000  Uiso   1.00
C142   C     0.37965   0.84895   0.93744   0.00000  Uiso   1.00
C143   C     0.37892   0.98261   0.85927   0.00000  Uiso   1.00
C144   C     0.33988   0.70461   0.12926   0.00000  Uiso   1.00
C145   C     0.29323   0.63667   0.14663   0.00000  Uiso   1.00
C146   C     0.25663   0.68566   0.18925   0.00000  Uiso   1.00
C147   C     0.18472   0.72479   0.25684   0.00000  Uiso   1.00
C148   C     0.44240   0.67734   0.11613   0.00000  Uiso   1.00
C149   C     0.48195   0.58647   0.12248   0.00000  Uiso   1.00
C150   C     0.53166   0.61250   0.15406   0.00000  Uiso   1.00
C151   C     0.61893   0.60929   0.20125   0.00000  Uiso   1.00
C152   C     0.40319   0.87614   0.12816   0.00000  Uiso   1.00
C153   C     0.39549   0.87834   0.05973   0.00000  Uiso   1.00
C154   C     0.39751   0.97862   0.02342   0.00000  Uiso   1.00
C155   C     0.38942   0.96202   0.96182   0.00000  Uiso   1.00
C156   C     0.34963   0.81747   0.15359   0.00000  Uiso   1.00
C157   C     0.31309   0.86657   0.19620   0.00000  Uiso   1.00
C158   C     0.26640   0.79873   0.21363   0.00000  Uiso   1.00
C159   C     0.45215   0.79021   0.14046   0.00000  Uiso   1.00
C160   C     0.50181   0.81638   0.17205   0.00000  Uiso   1.00
C161   C     0.54143   0.72557   0.17844   0.00000  Uiso   1.00
H162   H     0.37764   0.58047   0.06441   0.00000  Uiso   1.00
H163   H     0.37010   0.66136   0.95503   0.00000  Uiso   1.00
H164   H     0.28570   0.54933   0.12779   0.00000  Uiso   1.00
H165   H     0.47439   0.49914   0.10364   0.00000  Uiso   1.00
H166   H     0.36601   0.80082   0.84449   0.00000  Uiso   1.00
H167   H     0.18806   0.56457   0.20879   0.00000  Uiso   1.00
H168   H     0.58595   0.45874   0.15786   0.00000  Uiso   1.00
H169   H     0.41078   0.96401   0.14711   0.00000  Uiso   1.00
H170   H     0.40506   0.06595   0.04226   0.00000  Uiso   1.00
H171   H     0.32065   0.95391   0.21503   0.00000  Uiso   1.00
H172   H     0.50934   0.90373   0.19087   0.00000  Uiso   1.00
H173   H     0.39438   0.12920   0.91529   0.00000  Uiso   1.00
H174   H     0.21643   0.89295   0.27960   0.00000  Uiso   1.00
H175   H     0.61432   0.78712   0.22866   0.00000  Uiso   1.00
O176   O     0.37581   0.02515   0.80943   0.00000  Uiso   1.00
O177   O     0.14235   0.71519   0.28738   0.00000  Uiso   1.00
O178   O     0.66437   0.57635   0.22056   0.00000  Uiso   1.00
N179   N     0.37348   0.86411   0.87554   0.00000  Uiso   1.00
N180   N     0.20711   0.64324   0.21613   0.00000  Uiso   1.00
N181   N     0.57909   0.54429   0.16853   0.00000  Uiso   1.00
N182   N     0.38875   0.04081   0.91364   0.00000  Uiso   1.00
N183   N     0.22237   0.81994   0.25423   0.00000  Uiso   1.00
N184   N     0.59436   0.72099   0.20663   0.00000  Uiso   1.00
C185   C     0.11476   0.66834   0.58336   0.00000  Uiso   1.00
C186   C     0.11426   0.76548   0.53539   0.00000  Uiso   1.00
C187   C     0.12235   0.74872   0.47384   0.00000  Uiso   1.00
C188   C     0.12035   0.84895   0.43744   0.00000  Uiso   1.00
C189   C     0.12108   0.98261   0.35927   0.00000  Uiso   1.00
C190   C     0.16012   0.70461   0.62926   0.00000  Uiso   1.00
C191   C     0.20677   0.63667   0.64663   0.00000  Uiso   1.00
C192   C     0.24337   0.68566   0.68925   0.00000  Uiso   1.00
C193   C     0.31528   0.72479   0.75684   0.00000  Uiso   1.00
C194   C     0.05760   0.67734   0.61613   0.00000  Uiso   1.00
C195   C     0.01805   0.58647   0.62248   0.00000  Uiso   1.00
C196   C     0.96834   0.61250   0.65406   0.00000  Uiso   1.00
C197   C     0.88107   0.60929   0.70125   0.00000  Uiso   1.00
C198   C     0.09681   0.87614   0.62816   0.00000  Uiso   1.00
C199   C     0.10451   0.87834   0.55973   0.00000  Uiso   1.00
C200   C     0.10249   0.97862   0.52342   0.00000  Uiso   1.00
C201   C     0.11058   0.96202   0.46182   0.00000  Uiso   1.00
C202   C     0.15037   0.81747   0.65359   0.00000  Uiso   1.00
C203   C     0.18691   0.86657   0.69620   0.00000  Uiso   1.00
C204   C     0.23360   0.79873   0.71363   0.00000  Uiso   1.00
C205   C     0.04785   0.79021   0.64046   0.00000  Uiso   1.00
C206   C     0.99819   0.81638   0.67205   0.00000  Uiso   1.00
C207   C     0.95857   0.72557   0.67844   0.00000  Uiso   1.00
H208   H     0.12236   0.58047   0.56441   0.00000  Uiso   1.00
H209   H     0.12990   0.66136   0.45503   0.00000  Uiso   1.00
H210   H     0.21430   0.54933   0.62779   0.00000  Uiso   1.00
H211   H     0.02561   0.49914   0.60364   0.00000  Uiso   1.00
H212   H     0.13399   0.80082   0.34449   0.00000  Uiso   1.00
H213   H     0.31194   0.56457   0.70879   0.00000  Uiso   1.00
H214   H     0.91405   0.45874   0.65786   0.00000  Uiso   1.00
H215   H     0.08922   0.96401   0.64711   0.00000  Uiso   1.00
H216   H     0.09494   0.06595   0.54226   0.00000  Uiso   1.00
H217   H     0.17935   0.95391   0.71503   0.00000  Uiso   1.00
H218   H     0.99066   0.90373   0.69087   0.00000  Uiso   1.00
H219   H     0.10562   0.12920   0.41529   0.00000  Uiso   1.00
H220   H     0.28357   0.89295   0.77960   0.00000  Uiso   1.00
H221   H     0.88568   0.78712   0.72866   0.00000  Uiso   1.00
O222   O     0.12419   0.02515   0.30943   0.00000  Uiso   1.00
O223   O     0.35765   0.71519   0.78738   0.00000  Uiso   1.00
O224   O     0.83563   0.57635   0.72056   0.00000  Uiso   1.00
N225   N     0.12652   0.86411   0.37554   0.00000  Uiso   1.00
N226   N     0.29289   0.64324   0.71613   0.00000  Uiso   1.00
N227   N     0.92091   0.54429   0.66853   0.00000  Uiso   1.00
N228   N     0.11125   0.04081   0.41364   0.00000  Uiso   1.00
N229   N     0.27763   0.81994   0.75423   0.00000  Uiso   1.00
N230   N     0.90564   0.72099   0.70663   0.00000  Uiso   1.00
C231   C     0.38524   0.33166   0.58336   0.00000  Uiso   1.00
C232   C     0.38574   0.23452   0.53539   0.00000  Uiso   1.00
C233   C     0.37765   0.25128   0.47384   0.00000  Uiso   1.00
C234   C     0.37965   0.15105   0.43744   0.00000  Uiso   1.00
C235   C     0.37892   0.01739   0.35927   0.00000  Uiso   1.00
C236   C     0.33988   0.29539   0.62926   0.00000  Uiso   1.00
C237   C     0.29323   0.36333   0.64663   0.00000  Uiso   1.00
C238   C     0.25663   0.31434   0.68925   0.00000  Uiso   1.00
C239   C     0.18472   0.27521   0.75684   0.00000  Uiso   1.00
C240   C     0.44240   0.32266   0.61613   0.00000  Uiso   1.00
C241   C     0.48195   0.41353   0.62248   0.00000  Uiso   1.00
C242   C     0.53166   0.38750   0.65406   0.00000  Uiso   1.00
C243   C     0.61893   0.39071   0.70125   0.00000  Uiso   1.00
C244   C     0.40319   0.12386   0.62816   0.00000  Uiso   1.00
C245   C     0.39549   0.12166   0.55973   0.00000  Uiso   1.00
C246   C     0.39751   0.02138   0.52342   0.00000  Uiso   1.00
C247   C     0.38942   0.03798   0.46182   0.00000  Uiso   1.00
C248   C     0.34963   0.18253   0.65359   0.00000  Uiso   1.00
C249   C     0.31309   0.13343   0.69620   0.00000  Uiso   1.00
C250   C     0.26640   0.20127   0.71363   0.00000  Uiso   1.00
C251   C     0.45215   0.20979   0.64046   0.00000  Uiso   1.00
C252   C     0.50181   0.18362   0.67205   0.00000  Uiso   1.00
C253   C     0.54143   0.27443   0.67844   0.00000  Uiso   1.00
H254   H     0.37764   0.41953   0.56441   0.00000  Uiso   1.00
H255   H     0.37010   0.33864   0.45503   0.00000  Uiso   1.00
H256   H     0.28570   0.45067   0.62779   0.00000  Uiso   1.00
H257   H     0.47439   0.50086   0.60364   0.00000  Uiso   1.00
H258   H     0.36601   0.19918   0.34449   0.00000  Uiso   1.00
H259   H     0.18806   0.43543   0.70879   0.00000  Uiso   1.00
H260   H     0.58595   0.54126   0.65786   0.00000  Uiso   1.00
H261   H     0.41078   0.03599   0.64711   0.00000  Uiso   1.00
H262   H     0.40506   0.93405   0.54226   0.00000  Uiso   1.00
H263   H     0.32065   0.04609   0.71503   0.00000  Uiso   1.00
H264   H     0.50934   0.09627   0.69087   0.00000  Uiso   1.00
H265   H     0.39438   0.87080   0.41529   0.00000  Uiso   1.00
H266   H     0.21643   0.10705   0.77960   0.00000  Uiso   1.00
H267   H     0.61432   0.21288   0.72866   0.00000  Uiso   1.00
O268   O     0.37581   0.97485   0.30943   0.00000  Uiso   1.00
O269   O     0.14235   0.28481   0.78738   0.00000  Uiso   1.00
O270   O     0.66437   0.42365   0.72056   0.00000  Uiso   1.00
N271   N     0.37348   0.13589   0.37554   0.00000  Uiso   1.00
N272   N     0.20711   0.35676   0.71613   0.00000  Uiso   1.00
N273   N     0.57909   0.45571   0.66853   0.00000  Uiso   1.00
N274   N     0.38875   0.95919   0.41364   0.00000  Uiso   1.00
N275   N     0.22237   0.18006   0.75423   0.00000  Uiso   1.00
N276   N     0.59436   0.27901   0.70663   0.00000  Uiso   1.00
C277   C     0.88524   0.66834   0.91664   0.00000  Uiso   1.00
C278   C     0.88574   0.76548   0.96461   0.00000  Uiso   1.00
C279   C     0.87765   0.74872   0.02616   0.00000  Uiso   1.00
C280   C     0.87965   0.84895   0.06256   0.00000  Uiso   1.00
C281   C     0.87892   0.98261   0.14073   0.00000  Uiso   1.00
C282   C     0.83988   0.70461   0.87074   0.00000  Uiso   1.00
C283   C     0.79323   0.63667   0.85337   0.00000  Uiso   1.00
C284   C     0.75663   0.68566   0.81075   0.00000  Uiso   1.00
C285   C     0.68472   0.72479   0.74316   0.00000  Uiso   1.00
C286   C     0.94240   0.67734   0.88387   0.00000  Uiso   1.00
C287   C     0.98195   0.58647   0.87752   0.00000  Uiso   1.00
C288   C     0.03166   0.61250   0.84594   0.00000  Uiso   1.00
C289   C     0.11893   0.60929   0.79875   0.00000  Uiso   1.00
C290   C     0.90319   0.87614   0.87184   0.00000  Uiso   1.00
C291   C     0.89549   0.87834   0.94027   0.00000  Uiso   1.00
C292   C     0.89751   0.97862   0.97658   0.00000  Uiso   1.00
C293   C     0.88942   0.96202   0.03818   0.00000  Uiso   1.00
C294   C     0.84963   0.81747   0.84641   0.00000  Uiso   1.00
C295   C     0.81309   0.86657   0.80380   0.00000  Uiso   1.00
C296   C     0.76640   0.79873   0.78637   0.00000  Uiso   1.00
C297   C     0.95215   0.79021   0.85954   0.00000  Uiso   1.00
C298   C     0.00181   0.81638   0.82795   0.00000  Uiso   1.00
C299   C     0.04143   0.72557   0.82156   0.00000  Uiso   1.00
H300   H     0.87764   0.58047   0.93559   0.00000  Uiso   1.00
H301   H     0.87010   0.66136   0.04497   0.00000  Uiso   1.00
H302   H     0.78570   0.54933   0.87221   0.00000  Uiso   1.00
H303   H     0.97439   0.49914   0.89636   0.00000  Uiso   1.00
H304   H     0.86601   0.80082   0.15551   0.00000  Uiso   1.00
H305   H     0.68806   0.56457   0.79121   0.00000  Uiso   1.00
H306   H     0.08595   0.45874   0.84214   0.00000  Uiso   1.00
H307   H     0.91078   0.96401   0.85289   0.00000  Uiso   1.00
H308   H     0.90506   0.06595   0.95774   0.00000  Uiso   1.00
H309   H     0.82065   0.95391   0.78497   0.00000  Uiso   1.00
H310   H     0.00934   0.90373   0.80913   0.00000  Uiso   1.00
H311   H     0.89438   0.12920   0.08471   0.00000  Uiso   1.00
H312   H     0.71643   0.89295   0.72040   0.00000  Uiso   1.00
H313   H     0.11432   0.78712   0.77134   0.00000  Uiso   1.00
O314   O     0.87581   0.02515   0.19057   0.00000  Uiso   1.00
O315   O     0.64235   0.71519   0.71262   0.00000  Uiso   1.00
O316   O     0.16437   0.57635   0.77944   0.00000  Uiso   1.00
N317   N     0.87348   0.86411   0.12446   0.00000  Uiso   1.00
N318   N     0.70711   0.64324   0.78387   0.00000  Uiso   1.00
N319   N     0.07909   0.54429   0.83147   0.00000  Uiso   1.00
N320   N     0.88875   0.04081   0.08636   0.00000  Uiso   1.00
N321   N     0.72237   0.81994   0.74577   0.00000  Uiso   1.00
N322   N     0.09436   0.72099   0.79337   0.00000  Uiso   1.00
C323   C     0.61476   0.33166   0.91664   0.00000  Uiso   1.00
C324   C     0.61426   0.23452   0.96461   0.00000  Uiso   1.00
C325   C     0.62235   0.25128   0.02616   0.00000  Uiso   1.00
C326   C     0.62035   0.15105   0.06256   0.00000  Uiso   1.00
C327   C     0.62108   0.01739   0.14073   0.00000  Uiso   1.00
C328   C     0.66012   0.29539   0.87074   0.00000  Uiso   1.00
C329   C     0.70677   0.36333   0.85337   0.00000  Uiso   1.00
C330   C     0.74337   0.31434   0.81075   0.00000  Uiso   1.00
C331   C     0.81528   0.27521   0.74316   0.00000  Uiso   1.00
C332   C     0.55760   0.32266   0.88387   0.00000  Uiso   1.00
C333   C     0.51805   0.41353   0.87752   0.00000  Uiso   1.00
C334   C     0.46834   0.38750   0.84594   0.00000  Uiso   1.00
C335   C     0.38107   0.39071   0.79875   0.00000  Uiso   1.00
C336   C     0.59681   0.12386   0.87184   0.00000  Uiso   1.00
C337   C     0.60451   0.12166   0.94027   0.00000  Uiso   1.00
C338   C     0.60249   0.02138   0.97658   0.00000  Uiso   1.00
C339   C     0.61058   0.03798   0.03818   0.00000  Uiso   1.00
C340   C     0.65037   0.18253   0.84641   0.00000  Uiso   1.00
C341   C     0.68691   0.13343   0.80380   0.00000  Uiso   1.00
C342   C     0.73360   0.20127   0.78637   0.00000  Uiso   1.00
C343   C     0.54785   0.20979   0.85954   0.00000  Uiso   1.00
C344   C     0.49819   0.18362   0.82795   0.00000  Uiso   1.00
C345   C     0.45857   0.27443   0.82156   0.00000  Uiso   1.00
H346   H     0.62236   0.41953   0.93559   0.00000  Uiso   1.00
H347   H     0.62990   0.33864   0.04497   0.00000  Uiso   1.00
H348   H     0.71430   0.45067   0.87221   0.00000  Uiso   1.00
H349   H     0.52561   0.50086   0.89636   0.00000  Uiso   1.00
H350   H     0.63399   0.19918   0.15551   0.00000  Uiso   1.00
H351   H     0.81194   0.43543   0.79121   0.00000  Uiso   1.00
H352   H     0.41405   0.54126   0.84214   0.00000  Uiso   1.00
H353   H     0.58922   0.03599   0.85289   0.00000  Uiso   1.00
H354   H     0.59494   0.93405   0.95774   0.00000  Uiso   1.00
H355   H     0.67935   0.04609   0.78497   0.00000  Uiso   1.00
H356   H     0.49066   0.09627   0.80913   0.00000  Uiso   1.00
H357   H     0.60562   0.87080   0.08471   0.00000  Uiso   1.00
H358   H     0.78357   0.10705   0.72040   0.00000  Uiso   1.00
H359   H     0.38568   0.21288   0.77134   0.00000  Uiso   1.00
O360   O     0.62419   0.97485   0.19057   0.00000  Uiso   1.00
O361   O     0.85765   0.28481   0.71262   0.00000  Uiso   1.00
O362   O     0.33563   0.42365   0.77944   0.00000  Uiso   1.00
N363   N     0.62652   0.13589   0.12446   0.00000  Uiso   1.00
N364   N     0.79289   0.35676   0.78387   0.00000  Uiso   1.00
N365   N     0.42091   0.45571   0.83147   0.00000  Uiso   1.00
N366   N     0.61125   0.95919   0.08636   0.00000  Uiso   1.00
N367   N     0.77763   0.18006   0.74577   0.00000  Uiso   1.00
N368   N     0.40564   0.27901   0.79337   0.00000  Uiso   1.00
