data_job_04056
_audit_creation_date              2018-12-19
_audit_creation_method            'Materials Studio'
_symmetry_space_group_name_H-M    'P1'
_symmetry_Int_Tables_number       1
_symmetry_cell_setting            triclinic
loop_
_symmetry_equiv_pos_as_xyz
  x,y,z
_cell_length_a                    32.1698
_cell_length_b                    13.6835
_cell_length_c                    12.6335
_cell_angle_alpha                 90.0000
_cell_angle_beta                  90.0000
_cell_angle_gamma                 90.0000
loop_
_atom_site_label
_atom_site_type_symbol
_atom_site_fract_x
_atom_site_fract_y
_atom_site_fract_z
_atom_site_U_iso_or_equiv
_atom_site_adp_type
_atom_site_occupancy
C1     C     0.59951   0.86689   0.61475   0.00000  Uiso   1.00
C2     C     0.58913   0.91531   0.50930   0.00000  Uiso   1.00
C3     C     0.55534   0.89300   0.44543   0.00000  Uiso   1.00
C4     C     0.55130   0.94556   0.35199   0.00000  Uiso   1.00
C5     C     0.53082   0.00972   0.19255   0.00000  Uiso   1.00
C6     C     0.64358   0.82717   0.60339   0.00000  Uiso   1.00
C7     C     0.65557   0.73076   0.61864   0.00000  Uiso   1.00
C8     C     0.69737   0.70914   0.60442   0.00000  Uiso   1.00
C9     C     0.76142   0.63648   0.59112   0.00000  Uiso   1.00
C10    C     0.60209   0.94933   0.69569   0.00000  Uiso   1.00
C11    C     0.57921   0.95563   0.78857   0.00000  Uiso   1.00
C12    C     0.58609   0.03685   0.85208   0.00000  Uiso   1.00
C13    C     0.58573   0.15387   0.98210   0.00000  Uiso   1.00
C14    C     0.65242   0.99991   0.56240   0.00000  Uiso   1.00
C15    C     0.61787   0.98755   0.48087   0.00000  Uiso   1.00
C16    C     0.61388   0.04017   0.38751   0.00000  Uiso   1.00
C17    C     0.58009   0.01795   0.32351   0.00000  Uiso   1.00
C18    C     0.67232   0.89942   0.57495   0.00000  Uiso   1.00
C19    C     0.71411   0.87794   0.56072   0.00000  Uiso   1.00
C20    C     0.72616   0.78152   0.57593   0.00000  Uiso   1.00
C21    C     0.63083   0.02159   0.66726   0.00000  Uiso   1.00
C22    C     0.63775   0.10281   0.73064   0.00000  Uiso   1.00
C23    C     0.61488   0.10923   0.82359   0.00000  Uiso   1.00
H24    H     0.57714   0.81063   0.63689   0.00000  Uiso   1.00
H25    H     0.53311   0.83707   0.46745   0.00000  Uiso   1.00
H26    H     0.63332   0.67487   0.64065   0.00000  Uiso   1.00
H27    H     0.55698   0.89971   0.81055   0.00000  Uiso   1.00
H28    H     0.49697   0.89822   0.26704   0.00000  Uiso   1.00
H29    H     0.70828   0.55622   0.63227   0.00000  Uiso   1.00
H30    H     0.54729   0.03032   0.99054   0.00000  Uiso   1.00
H31    H     0.67480   0.05616   0.54027   0.00000  Uiso   1.00
H32    H     0.63612   0.09608   0.36552   0.00000  Uiso   1.00
H33    H     0.73634   0.93387   0.53872   0.00000  Uiso   1.00
H34    H     0.65999   0.15871   0.70862   0.00000  Uiso   1.00
H35    H     0.58059   0.10844   0.18431   0.00000  Uiso   1.00
H36    H     0.79189   0.76643   0.54954   0.00000  Uiso   1.00
H37    H     0.63090   0.24054   0.90780   0.00000  Uiso   1.00
O38    O     0.51158   0.02514   0.11245   0.00000  Uiso   1.00
O39    O     0.78881   0.57644   0.59163   0.00000  Uiso   1.00
O40    O     0.57759   0.19846   0.06167   0.00000  Uiso   1.00
N41    N     0.52195   0.94223   0.27156   0.00000  Uiso   1.00
N42    N     0.71951   0.62247   0.61301   0.00000  Uiso   1.00
N43    N     0.56901   0.06571   0.94798   0.00000  Uiso   1.00
N44    N     0.56694   0.05535   0.22705   0.00000  Uiso   1.00
N45    N     0.76450   0.73559   0.56849   0.00000  Uiso   1.00
N46    N     0.61400   0.17883   0.90346   0.00000  Uiso   1.00
C47    C     0.90049   0.13311   0.61475   0.00000  Uiso   1.00
C48    C     0.91087   0.08469   0.50930   0.00000  Uiso   1.00
C49    C     0.94466   0.10700   0.44543   0.00000  Uiso   1.00
C50    C     0.94870   0.05444   0.35199   0.00000  Uiso   1.00
C51    C     0.96918   0.99028   0.19255   0.00000  Uiso   1.00
C52    C     0.85642   0.17283   0.60339   0.00000  Uiso   1.00
C53    C     0.84443   0.26924   0.61864   0.00000  Uiso   1.00
C54    C     0.80263   0.29086   0.60442   0.00000  Uiso   1.00
C55    C     0.73858   0.36352   0.59112   0.00000  Uiso   1.00
C56    C     0.89791   0.05067   0.69569   0.00000  Uiso   1.00
C57    C     0.92079   0.04437   0.78857   0.00000  Uiso   1.00
C58    C     0.91391   0.96315   0.85208   0.00000  Uiso   1.00
C59    C     0.91427   0.84613   0.98210   0.00000  Uiso   1.00
C60    C     0.84758   0.00009   0.56240   0.00000  Uiso   1.00
C61    C     0.88213   0.01245   0.48087   0.00000  Uiso   1.00
C62    C     0.88612   0.95983   0.38751   0.00000  Uiso   1.00
C63    C     0.91991   0.98205   0.32351   0.00000  Uiso   1.00
C64    C     0.82768   0.10058   0.57495   0.00000  Uiso   1.00
C65    C     0.78589   0.12206   0.56072   0.00000  Uiso   1.00
C66    C     0.77384   0.21848   0.57593   0.00000  Uiso   1.00
C67    C     0.86917   0.97841   0.66726   0.00000  Uiso   1.00
C68    C     0.86225   0.89719   0.73064   0.00000  Uiso   1.00
C69    C     0.88512   0.89077   0.82359   0.00000  Uiso   1.00
H70    H     0.92286   0.18937   0.63689   0.00000  Uiso   1.00
H71    H     0.96689   0.16293   0.46745   0.00000  Uiso   1.00
H72    H     0.86668   0.32513   0.64065   0.00000  Uiso   1.00
H73    H     0.94302   0.10029   0.81055   0.00000  Uiso   1.00
H74    H     0.00303   0.10178   0.26704   0.00000  Uiso   1.00
H75    H     0.79172   0.44378   0.63227   0.00000  Uiso   1.00
H76    H     0.95271   0.96968   0.99054   0.00000  Uiso   1.00
H77    H     0.82520   0.94384   0.54027   0.00000  Uiso   1.00
H78    H     0.86388   0.90392   0.36552   0.00000  Uiso   1.00
H79    H     0.76366   0.06613   0.53872   0.00000  Uiso   1.00
H80    H     0.84001   0.84129   0.70862   0.00000  Uiso   1.00
H81    H     0.91941   0.89156   0.18431   0.00000  Uiso   1.00
H82    H     0.70811   0.23357   0.54954   0.00000  Uiso   1.00
H83    H     0.86910   0.75946   0.90780   0.00000  Uiso   1.00
O84    O     0.98842   0.97486   0.11245   0.00000  Uiso   1.00
O85    O     0.71119   0.42356   0.59163   0.00000  Uiso   1.00
O86    O     0.92241   0.80154   0.06167   0.00000  Uiso   1.00
N87    N     0.97805   0.05777   0.27156   0.00000  Uiso   1.00
N88    N     0.78049   0.37753   0.61301   0.00000  Uiso   1.00
N89    N     0.93099   0.93429   0.94798   0.00000  Uiso   1.00
N90    N     0.93306   0.94465   0.22705   0.00000  Uiso   1.00
N91    N     0.73550   0.26441   0.56849   0.00000  Uiso   1.00
N92    N     0.88600   0.82117   0.90346   0.00000  Uiso   1.00
C93    C     0.90049   0.36689   0.88525   0.00000  Uiso   1.00
C94    C     0.91087   0.41531   0.99070   0.00000  Uiso   1.00
C95    C     0.94466   0.39300   0.05457   0.00000  Uiso   1.00
C96    C     0.94870   0.44556   0.14801   0.00000  Uiso   1.00
C97    C     0.96918   0.50972   0.30745   0.00000  Uiso   1.00
C98    C     0.85642   0.32717   0.89661   0.00000  Uiso   1.00
C99    C     0.84443   0.23076   0.88136   0.00000  Uiso   1.00
C100   C     0.80263   0.20914   0.89558   0.00000  Uiso   1.00
C101   C     0.73858   0.13648   0.90888   0.00000  Uiso   1.00
C102   C     0.89791   0.44933   0.80431   0.00000  Uiso   1.00
C103   C     0.92079   0.45563   0.71143   0.00000  Uiso   1.00
C104   C     0.91391   0.53685   0.64792   0.00000  Uiso   1.00
C105   C     0.91427   0.65387   0.51790   0.00000  Uiso   1.00
C106   C     0.84758   0.49991   0.93760   0.00000  Uiso   1.00
C107   C     0.88213   0.48755   0.01913   0.00000  Uiso   1.00
C108   C     0.88612   0.54017   0.11249   0.00000  Uiso   1.00
C109   C     0.91991   0.51795   0.17649   0.00000  Uiso   1.00
C110   C     0.82768   0.39942   0.92505   0.00000  Uiso   1.00
C111   C     0.78589   0.37794   0.93928   0.00000  Uiso   1.00
C112   C     0.77384   0.28152   0.92407   0.00000  Uiso   1.00
C113   C     0.86917   0.52159   0.83274   0.00000  Uiso   1.00
C114   C     0.86225   0.60281   0.76936   0.00000  Uiso   1.00
C115   C     0.88512   0.60923   0.67641   0.00000  Uiso   1.00
H116   H     0.92286   0.31063   0.86311   0.00000  Uiso   1.00
H117   H     0.96689   0.33707   0.03255   0.00000  Uiso   1.00
H118   H     0.86668   0.17487   0.85935   0.00000  Uiso   1.00
H119   H     0.94302   0.39971   0.68945   0.00000  Uiso   1.00
H120   H     0.00303   0.39822   0.23296   0.00000  Uiso   1.00
H121   H     0.79172   0.05622   0.86773   0.00000  Uiso   1.00
H122   H     0.95271   0.53032   0.50946   0.00000  Uiso   1.00
H123   H     0.82520   0.55616   0.95973   0.00000  Uiso   1.00
H124   H     0.86388   0.59608   0.13448   0.00000  Uiso   1.00
H125   H     0.76366   0.43387   0.96128   0.00000  Uiso   1.00
H126   H     0.84001   0.65871   0.79138   0.00000  Uiso   1.00
H127   H     0.91941   0.60844   0.31569   0.00000  Uiso   1.00
H128   H     0.70811   0.26643   0.95046   0.00000  Uiso   1.00
H129   H     0.86910   0.74054   0.59220   0.00000  Uiso   1.00
O130   O     0.98842   0.52514   0.38755   0.00000  Uiso   1.00
O131   O     0.71119   0.07644   0.90837   0.00000  Uiso   1.00
O132   O     0.92241   0.69846   0.43833   0.00000  Uiso   1.00
N133   N     0.97805   0.44223   0.22844   0.00000  Uiso   1.00
N134   N     0.78049   0.12247   0.88699   0.00000  Uiso   1.00
N135   N     0.93099   0.56571   0.55202   0.00000  Uiso   1.00
N136   N     0.93306   0.55535   0.27295   0.00000  Uiso   1.00
N137   N     0.73550   0.23559   0.93151   0.00000  Uiso   1.00
N138   N     0.88600   0.67883   0.59654   0.00000  Uiso   1.00
C139   C     0.59951   0.63311   0.88525   0.00000  Uiso   1.00
C140   C     0.58913   0.58469   0.99070   0.00000  Uiso   1.00
C141   C     0.55534   0.60700   0.05457   0.00000  Uiso   1.00
C142   C     0.55130   0.55444   0.14801   0.00000  Uiso   1.00
C143   C     0.53082   0.49028   0.30745   0.00000  Uiso   1.00
C144   C     0.64358   0.67283   0.89661   0.00000  Uiso   1.00
C145   C     0.65557   0.76924   0.88136   0.00000  Uiso   1.00
C146   C     0.69737   0.79086   0.89558   0.00000  Uiso   1.00
C147   C     0.76142   0.86352   0.90888   0.00000  Uiso   1.00
C148   C     0.60209   0.55067   0.80431   0.00000  Uiso   1.00
C149   C     0.57921   0.54437   0.71143   0.00000  Uiso   1.00
C150   C     0.58609   0.46315   0.64792   0.00000  Uiso   1.00
C151   C     0.58573   0.34613   0.51790   0.00000  Uiso   1.00
C152   C     0.65242   0.50009   0.93760   0.00000  Uiso   1.00
C153   C     0.61787   0.51245   0.01913   0.00000  Uiso   1.00
C154   C     0.61388   0.45983   0.11249   0.00000  Uiso   1.00
C155   C     0.58009   0.48205   0.17649   0.00000  Uiso   1.00
C156   C     0.67232   0.60058   0.92505   0.00000  Uiso   1.00
C157   C     0.71411   0.62206   0.93928   0.00000  Uiso   1.00
C158   C     0.72616   0.71848   0.92407   0.00000  Uiso   1.00
C159   C     0.63083   0.47841   0.83274   0.00000  Uiso   1.00
C160   C     0.63775   0.39719   0.76936   0.00000  Uiso   1.00
C161   C     0.61488   0.39077   0.67641   0.00000  Uiso   1.00
H162   H     0.57714   0.68937   0.86311   0.00000  Uiso   1.00
H163   H     0.53311   0.66293   0.03255   0.00000  Uiso   1.00
H164   H     0.63332   0.82513   0.85935   0.00000  Uiso   1.00
H165   H     0.55698   0.60029   0.68945   0.00000  Uiso   1.00
H166   H     0.49697   0.60178   0.23296   0.00000  Uiso   1.00
H167   H     0.70828   0.94378   0.86773   0.00000  Uiso   1.00
H168   H     0.54729   0.46968   0.50946   0.00000  Uiso   1.00
H169   H     0.67480   0.44384   0.95973   0.00000  Uiso   1.00
H170   H     0.63612   0.40392   0.13448   0.00000  Uiso   1.00
H171   H     0.73634   0.56613   0.96128   0.00000  Uiso   1.00
H172   H     0.65999   0.34129   0.79138   0.00000  Uiso   1.00
H173   H     0.58059   0.39156   0.31569   0.00000  Uiso   1.00
H174   H     0.79189   0.73357   0.95046   0.00000  Uiso   1.00
H175   H     0.63090   0.25946   0.59220   0.00000  Uiso   1.00
O176   O     0.51158   0.47486   0.38755   0.00000  Uiso   1.00
O177   O     0.78881   0.92356   0.90837   0.00000  Uiso   1.00
O178   O     0.57759   0.30154   0.43833   0.00000  Uiso   1.00
N179   N     0.52195   0.55777   0.22844   0.00000  Uiso   1.00
N180   N     0.71951   0.87753   0.88699   0.00000  Uiso   1.00
N181   N     0.56901   0.43429   0.55202   0.00000  Uiso   1.00
N182   N     0.56694   0.44465   0.27295   0.00000  Uiso   1.00
N183   N     0.76450   0.76441   0.93151   0.00000  Uiso   1.00
N184   N     0.61400   0.32117   0.59654   0.00000  Uiso   1.00
C185   C     0.40049   0.13311   0.38525   0.00000  Uiso   1.00
C186   C     0.41087   0.08469   0.49070   0.00000  Uiso   1.00
C187   C     0.44466   0.10700   0.55457   0.00000  Uiso   1.00
C188   C     0.44870   0.05444   0.64801   0.00000  Uiso   1.00
C189   C     0.46918   0.99028   0.80745   0.00000  Uiso   1.00
C190   C     0.35642   0.17283   0.39661   0.00000  Uiso   1.00
C191   C     0.34443   0.26924   0.38136   0.00000  Uiso   1.00
C192   C     0.30263   0.29086   0.39558   0.00000  Uiso   1.00
C193   C     0.23858   0.36352   0.40888   0.00000  Uiso   1.00
C194   C     0.39791   0.05067   0.30431   0.00000  Uiso   1.00
C195   C     0.42079   0.04437   0.21143   0.00000  Uiso   1.00
C196   C     0.41391   0.96315   0.14792   0.00000  Uiso   1.00
C197   C     0.41427   0.84613   0.01790   0.00000  Uiso   1.00
C198   C     0.34758   0.00009   0.43760   0.00000  Uiso   1.00
C199   C     0.38213   0.01245   0.51913   0.00000  Uiso   1.00
C200   C     0.38612   0.95983   0.61249   0.00000  Uiso   1.00
C201   C     0.41991   0.98205   0.67649   0.00000  Uiso   1.00
C202   C     0.32768   0.10058   0.42505   0.00000  Uiso   1.00
C203   C     0.28589   0.12206   0.43928   0.00000  Uiso   1.00
C204   C     0.27384   0.21848   0.42407   0.00000  Uiso   1.00
C205   C     0.36917   0.97841   0.33274   0.00000  Uiso   1.00
C206   C     0.36225   0.89719   0.26936   0.00000  Uiso   1.00
C207   C     0.38512   0.89077   0.17641   0.00000  Uiso   1.00
H208   H     0.42286   0.18937   0.36311   0.00000  Uiso   1.00
H209   H     0.46689   0.16293   0.53255   0.00000  Uiso   1.00
H210   H     0.36668   0.32513   0.35935   0.00000  Uiso   1.00
H211   H     0.44302   0.10029   0.18945   0.00000  Uiso   1.00
H212   H     0.50303   0.10178   0.73296   0.00000  Uiso   1.00
H213   H     0.29172   0.44378   0.36773   0.00000  Uiso   1.00
H214   H     0.45271   0.96968   0.00946   0.00000  Uiso   1.00
H215   H     0.32520   0.94384   0.45973   0.00000  Uiso   1.00
H216   H     0.36388   0.90392   0.63448   0.00000  Uiso   1.00
H217   H     0.26366   0.06613   0.46128   0.00000  Uiso   1.00
H218   H     0.34001   0.84129   0.29138   0.00000  Uiso   1.00
H219   H     0.41941   0.89156   0.81569   0.00000  Uiso   1.00
H220   H     0.20811   0.23357   0.45046   0.00000  Uiso   1.00
H221   H     0.36910   0.75946   0.09220   0.00000  Uiso   1.00
O222   O     0.48842   0.97486   0.88755   0.00000  Uiso   1.00
O223   O     0.21119   0.42356   0.40837   0.00000  Uiso   1.00
O224   O     0.42241   0.80154   0.93833   0.00000  Uiso   1.00
N225   N     0.47805   0.05777   0.72844   0.00000  Uiso   1.00
N226   N     0.28049   0.37753   0.38699   0.00000  Uiso   1.00
N227   N     0.43099   0.93429   0.05202   0.00000  Uiso   1.00
N228   N     0.43306   0.94465   0.77295   0.00000  Uiso   1.00
N229   N     0.23550   0.26441   0.43151   0.00000  Uiso   1.00
N230   N     0.38600   0.82117   0.09654   0.00000  Uiso   1.00
C231   C     0.09951   0.86689   0.38525   0.00000  Uiso   1.00
C232   C     0.08913   0.91531   0.49070   0.00000  Uiso   1.00
C233   C     0.05534   0.89300   0.55457   0.00000  Uiso   1.00
C234   C     0.05130   0.94556   0.64801   0.00000  Uiso   1.00
C235   C     0.03082   0.00972   0.80745   0.00000  Uiso   1.00
C236   C     0.14358   0.82717   0.39661   0.00000  Uiso   1.00
C237   C     0.15557   0.73076   0.38136   0.00000  Uiso   1.00
C238   C     0.19737   0.70914   0.39558   0.00000  Uiso   1.00
C239   C     0.26142   0.63648   0.40888   0.00000  Uiso   1.00
C240   C     0.10209   0.94933   0.30431   0.00000  Uiso   1.00
C241   C     0.07921   0.95563   0.21143   0.00000  Uiso   1.00
C242   C     0.08609   0.03685   0.14792   0.00000  Uiso   1.00
C243   C     0.08573   0.15387   0.01790   0.00000  Uiso   1.00
C244   C     0.15242   0.99991   0.43760   0.00000  Uiso   1.00
C245   C     0.11787   0.98755   0.51913   0.00000  Uiso   1.00
C246   C     0.11388   0.04017   0.61249   0.00000  Uiso   1.00
C247   C     0.08009   0.01795   0.67649   0.00000  Uiso   1.00
C248   C     0.17232   0.89942   0.42505   0.00000  Uiso   1.00
C249   C     0.21411   0.87794   0.43928   0.00000  Uiso   1.00
C250   C     0.22616   0.78152   0.42407   0.00000  Uiso   1.00
C251   C     0.13083   0.02159   0.33274   0.00000  Uiso   1.00
C252   C     0.13775   0.10281   0.26936   0.00000  Uiso   1.00
C253   C     0.11488   0.10923   0.17641   0.00000  Uiso   1.00
H254   H     0.07714   0.81063   0.36311   0.00000  Uiso   1.00
H255   H     0.03311   0.83707   0.53255   0.00000  Uiso   1.00
H256   H     0.13332   0.67487   0.35935   0.00000  Uiso   1.00
H257   H     0.05698   0.89971   0.18945   0.00000  Uiso   1.00
H258   H     0.99697   0.89822   0.73296   0.00000  Uiso   1.00
H259   H     0.20828   0.55622   0.36773   0.00000  Uiso   1.00
H260   H     0.04729   0.03032   0.00946   0.00000  Uiso   1.00
H261   H     0.17480   0.05616   0.45973   0.00000  Uiso   1.00
H262   H     0.13612   0.09608   0.63448   0.00000  Uiso   1.00
H263   H     0.23634   0.93387   0.46128   0.00000  Uiso   1.00
H264   H     0.15999   0.15871   0.29138   0.00000  Uiso   1.00
H265   H     0.08059   0.10844   0.81569   0.00000  Uiso   1.00
H266   H     0.29189   0.76643   0.45046   0.00000  Uiso   1.00
H267   H     0.13090   0.24054   0.09220   0.00000  Uiso   1.00
O268   O     0.01158   0.02514   0.88755   0.00000  Uiso   1.00
O269   O     0.28881   0.57644   0.40837   0.00000  Uiso   1.00
O270   O     0.07759   0.19846   0.93833   0.00000  Uiso   1.00
N271   N     0.02195   0.94223   0.72844   0.00000  Uiso   1.00
N272   N     0.21951   0.62247   0.38699   0.00000  Uiso   1.00
N273   N     0.06901   0.06571   0.05202   0.00000  Uiso   1.00
N274   N     0.06694   0.05535   0.77295   0.00000  Uiso   1.00
N275   N     0.26450   0.73559   0.43151   0.00000  Uiso   1.00
N276   N     0.11400   0.17883   0.09654   0.00000  Uiso   1.00
C277   C     0.09951   0.63311   0.11475   0.00000  Uiso   1.00
C278   C     0.08913   0.58469   0.00930   0.00000  Uiso   1.00
C279   C     0.05534   0.60700   0.94543   0.00000  Uiso   1.00
C280   C     0.05130   0.55444   0.85199   0.00000  Uiso   1.00
C281   C     0.03082   0.49028   0.69255   0.00000  Uiso   1.00
C282   C     0.14358   0.67283   0.10339   0.00000  Uiso   1.00
C283   C     0.15557   0.76924   0.11864   0.00000  Uiso   1.00
C284   C     0.19737   0.79086   0.10442   0.00000  Uiso   1.00
C285   C     0.26142   0.86352   0.09112   0.00000  Uiso   1.00
C286   C     0.10209   0.55067   0.19569   0.00000  Uiso   1.00
C287   C     0.07921   0.54437   0.28857   0.00000  Uiso   1.00
C288   C     0.08609   0.46315   0.35208   0.00000  Uiso   1.00
C289   C     0.08573   0.34613   0.48210   0.00000  Uiso   1.00
C290   C     0.15242   0.50009   0.06240   0.00000  Uiso   1.00
C291   C     0.11787   0.51245   0.98087   0.00000  Uiso   1.00
C292   C     0.11388   0.45983   0.88751   0.00000  Uiso   1.00
C293   C     0.08009   0.48205   0.82351   0.00000  Uiso   1.00
C294   C     0.17232   0.60058   0.07495   0.00000  Uiso   1.00
C295   C     0.21411   0.62206   0.06072   0.00000  Uiso   1.00
C296   C     0.22616   0.71848   0.07593   0.00000  Uiso   1.00
C297   C     0.13083   0.47841   0.16726   0.00000  Uiso   1.00
C298   C     0.13775   0.39719   0.23064   0.00000  Uiso   1.00
C299   C     0.11488   0.39077   0.32359   0.00000  Uiso   1.00
H300   H     0.07714   0.68937   0.13689   0.00000  Uiso   1.00
H301   H     0.03311   0.66293   0.96745   0.00000  Uiso   1.00
H302   H     0.13332   0.82513   0.14065   0.00000  Uiso   1.00
H303   H     0.05698   0.60029   0.31055   0.00000  Uiso   1.00
H304   H     0.99697   0.60178   0.76704   0.00000  Uiso   1.00
H305   H     0.20828   0.94378   0.13227   0.00000  Uiso   1.00
H306   H     0.04729   0.46968   0.49054   0.00000  Uiso   1.00
H307   H     0.17480   0.44384   0.04027   0.00000  Uiso   1.00
H308   H     0.13612   0.40392   0.86552   0.00000  Uiso   1.00
H309   H     0.23634   0.56613   0.03872   0.00000  Uiso   1.00
H310   H     0.15999   0.34129   0.20862   0.00000  Uiso   1.00
H311   H     0.08059   0.39156   0.68431   0.00000  Uiso   1.00
H312   H     0.29189   0.73357   0.04954   0.00000  Uiso   1.00
H313   H     0.13090   0.25946   0.40780   0.00000  Uiso   1.00
O314   O     0.01158   0.47486   0.61245   0.00000  Uiso   1.00
O315   O     0.28881   0.92356   0.09163   0.00000  Uiso   1.00
O316   O     0.07759   0.30154   0.56167   0.00000  Uiso   1.00
N317   N     0.02195   0.55777   0.77156   0.00000  Uiso   1.00
N318   N     0.21951   0.87753   0.11301   0.00000  Uiso   1.00
N319   N     0.06901   0.43429   0.44798   0.00000  Uiso   1.00
N320   N     0.06694   0.44465   0.72705   0.00000  Uiso   1.00
N321   N     0.26450   0.76441   0.06849   0.00000  Uiso   1.00
N322   N     0.11400   0.32117   0.40346   0.00000  Uiso   1.00
C323   C     0.40049   0.36689   0.11475   0.00000  Uiso   1.00
C324   C     0.41087   0.41531   0.00930   0.00000  Uiso   1.00
C325   C     0.44466   0.39300   0.94543   0.00000  Uiso   1.00
C326   C     0.44870   0.44556   0.85199   0.00000  Uiso   1.00
C327   C     0.46918   0.50972   0.69255   0.00000  Uiso   1.00
C328   C     0.35642   0.32717   0.10339   0.00000  Uiso   1.00
C329   C     0.34443   0.23076   0.11864   0.00000  Uiso   1.00
C330   C     0.30263   0.20914   0.10442   0.00000  Uiso   1.00
C331   C     0.23858   0.13648   0.09112   0.00000  Uiso   1.00
C332   C     0.39791   0.44933   0.19569   0.00000  Uiso   1.00
C333   C     0.42079   0.45563   0.28857   0.00000  Uiso   1.00
C334   C     0.41391   0.53685   0.35208   0.00000  Uiso   1.00
C335   C     0.41427   0.65387   0.48210   0.00000  Uiso   1.00
C336   C     0.34758   0.49991   0.06240   0.00000  Uiso   1.00
C337   C     0.38213   0.48755   0.98087   0.00000  Uiso   1.00
C338   C     0.38612   0.54017   0.88751   0.00000  Uiso   1.00
C339   C     0.41991   0.51795   0.82351   0.00000  Uiso   1.00
C340   C     0.32768   0.39942   0.07495   0.00000  Uiso   1.00
C341   C     0.28589   0.37794   0.06072   0.00000  Uiso   1.00
C342   C     0.27384   0.28152   0.07593   0.00000  Uiso   1.00
C343   C     0.36917   0.52159   0.16726   0.00000  Uiso   1.00
C344   C     0.36225   0.60281   0.23064   0.00000  Uiso   1.00
C345   C     0.38512   0.60923   0.32359   0.00000  Uiso   1.00
H346   H     0.42286   0.31063   0.13689   0.00000  Uiso   1.00
H347   H     0.46689   0.33707   0.96745   0.00000  Uiso   1.00
H348   H     0.36668   0.17487   0.14065   0.00000  Uiso   1.00
H349   H     0.44302   0.39971   0.31055   0.00000  Uiso   1.00
H350   H     0.50303   0.39822   0.76704   0.00000  Uiso   1.00
H351   H     0.29172   0.05622   0.13227   0.00000  Uiso   1.00
H352   H     0.45271   0.53032   0.49054   0.00000  Uiso   1.00
H353   H     0.32520   0.55616   0.04027   0.00000  Uiso   1.00
H354   H     0.36388   0.59608   0.86552   0.00000  Uiso   1.00
H355   H     0.26366   0.43387   0.03872   0.00000  Uiso   1.00
H356   H     0.34001   0.65871   0.20862   0.00000  Uiso   1.00
H357   H     0.41941   0.60844   0.68431   0.00000  Uiso   1.00
H358   H     0.20811   0.26643   0.04954   0.00000  Uiso   1.00
H359   H     0.36910   0.74054   0.40780   0.00000  Uiso   1.00
O360   O     0.48842   0.52514   0.61245   0.00000  Uiso   1.00
O361   O     0.21119   0.07644   0.09163   0.00000  Uiso   1.00
O362   O     0.42241   0.69846   0.56167   0.00000  Uiso   1.00
N363   N     0.47805   0.44223   0.77156   0.00000  Uiso   1.00
N364   N     0.28049   0.12247   0.11301   0.00000  Uiso   1.00
N365   N     0.43099   0.56571   0.44798   0.00000  Uiso   1.00
N366   N     0.43306   0.55535   0.72705   0.00000  Uiso   1.00
N367   N     0.23550   0.23559   0.06849   0.00000  Uiso   1.00
N368   N     0.38600   0.67883   0.40346   0.00000  Uiso   1.00
