data_job_05299
_audit_creation_date              2018-12-19
_audit_creation_method            'Materials Studio'
_symmetry_space_group_name_H-M    'P1'
_symmetry_Int_Tables_number       1
_symmetry_cell_setting            triclinic
loop_
_symmetry_equiv_pos_as_xyz
  x,y,z
_cell_length_a                    26.6906
_cell_length_b                    11.9810
_cell_length_c                    18.1802
_cell_angle_alpha                 90.0000
_cell_angle_beta                  90.0000
_cell_angle_gamma                 90.0000
loop_
_atom_site_label
_atom_site_type_symbol
_atom_site_fract_x
_atom_site_fract_y
_atom_site_fract_z
_atom_site_U_iso_or_equiv
_atom_site_adp_type
_atom_site_occupancy
C1     C     0.05537   0.73019   0.46109   0.00000  Uiso   1.00
C2     C     0.09547   0.63953   0.46069   0.00000  Uiso   1.00
C3     C     0.09034   0.53301   0.48971   0.00000  Uiso   1.00
C4     C     0.13138   0.46237   0.48388   0.00000  Uiso   1.00
C5     C     0.18688   0.31632   0.48841   0.00000  Uiso   1.00
C6     C     0.07889   0.83079   0.49914   0.00000  Uiso   1.00
C7     C     0.05982   0.88509   0.56048   0.00000  Uiso   1.00
C8     C     0.08691   0.97547   0.58701   0.00000  Uiso   1.00
C9     C     0.11665   0.12642   0.65120   0.00000  Uiso   1.00
C10    C     0.04794   0.76409   0.38098   0.00000  Uiso   1.00
C11    C     0.00285   0.76234   0.34298   0.00000  Uiso   1.00
C12    C     0.00388   0.79658   0.27004   0.00000  Uiso   1.00
C13    C     0.98558   0.84396   0.15077   0.00000  Uiso   1.00
C14    C     0.13737   0.79415   0.39911   0.00000  Uiso   1.00
C15    C     0.14001   0.67427   0.42703   0.00000  Uiso   1.00
C16    C     0.18107   0.60377   0.42115   0.00000  Uiso   1.00
C17    C     0.17601   0.49717   0.45016   0.00000  Uiso   1.00
C18    C     0.12343   0.86553   0.46548   0.00000  Uiso   1.00
C19    C     0.15055   0.95586   0.49192   0.00000  Uiso   1.00
C20    C     0.13153   0.01027   0.55329   0.00000  Uiso   1.00
C21    C     0.09249   0.79883   0.34732   0.00000  Uiso   1.00
C22    C     0.09359   0.83309   0.27442   0.00000  Uiso   1.00
C23    C     0.04851   0.83139   0.23632   0.00000  Uiso   1.00
H24    H     0.02069   0.70315   0.48730   0.00000  Uiso   1.00
H25    H     0.05586   0.50616   0.51577   0.00000  Uiso   1.00
H26    H     0.02535   0.85819   0.58652   0.00000  Uiso   1.00
H27    H     0.96839   0.73545   0.36905   0.00000  Uiso   1.00
H28    H     0.11451   0.30309   0.53251   0.00000  Uiso   1.00
H29    H     0.05016   0.04540   0.68167   0.00000  Uiso   1.00
H30    H     0.93005   0.78657   0.22311   0.00000  Uiso   1.00
H31    H     0.17205   0.82120   0.37291   0.00000  Uiso   1.00
H32    H     0.21554   0.63068   0.39509   0.00000  Uiso   1.00
H33    H     0.18502   0.98272   0.46585   0.00000  Uiso   1.00
H34    H     0.12806   0.85997   0.24839   0.00000  Uiso   1.00
H35    H     0.24411   0.40416   0.43457   0.00000  Uiso   1.00
H36    H     0.17976   0.14648   0.58374   0.00000  Uiso   1.00
H37    H     0.05965   0.88764   0.12517   0.00000  Uiso   1.00
O38    O     0.20519   0.22618   0.50022   0.00000  Uiso   1.00
O39    O     0.12076   0.20007   0.69591   0.00000  Uiso   1.00
O40    O     0.96318   0.86049   0.09429   0.00000  Uiso   1.00
N41    N     0.13904   0.35302   0.50640   0.00000  Uiso   1.00
N42    N     0.07888   0.04702   0.64587   0.00000  Uiso   1.00
N43    N     0.96659   0.80506   0.21715   0.00000  Uiso   1.00
N44    N     0.20878   0.40740   0.45370   0.00000  Uiso   1.00
N45    N     0.14862   0.10141   0.59317   0.00000  Uiso   1.00
N46    N     0.03632   0.85945   0.16445   0.00000  Uiso   1.00
C47    C     0.55551   0.23153   0.55051   0.00000  Uiso   1.00
C48    C     0.59555   0.14073   0.55035   0.00000  Uiso   1.00
C49    C     0.59044   0.03460   0.57999   0.00000  Uiso   1.00
C50    C     0.63142   0.96375   0.57429   0.00000  Uiso   1.00
C51    C     0.68684   0.81759   0.57927   0.00000  Uiso   1.00
C52    C     0.57922   0.33253   0.58785   0.00000  Uiso   1.00
C53    C     0.56037   0.38767   0.64902   0.00000  Uiso   1.00
C54    C     0.58759   0.47828   0.67487   0.00000  Uiso   1.00
C55    C     0.61762   0.62994   0.73804   0.00000  Uiso   1.00
C56    C     0.54787   0.26444   0.47027   0.00000  Uiso   1.00
C57    C     0.50267   0.26235   0.43257   0.00000  Uiso   1.00
C58    C     0.50351   0.29567   0.35943   0.00000  Uiso   1.00
C59    C     0.48488   0.34160   0.24003   0.00000  Uiso   1.00
C60    C     0.63738   0.29443   0.48766   0.00000  Uiso   1.00
C61    C     0.64002   0.17490   0.51621   0.00000  Uiso   1.00
C62    C     0.68102   0.10419   0.51046   0.00000  Uiso   1.00
C63    C     0.67597   0.99797   0.54009   0.00000  Uiso   1.00
C64    C     0.62368   0.36670   0.55372   0.00000  Uiso   1.00
C65    C     0.65094   0.45726   0.57949   0.00000  Uiso   1.00
C66    C     0.63214   0.51252   0.64068   0.00000  Uiso   1.00
C67    C     0.59234   0.29860   0.43613   0.00000  Uiso   1.00
C68    C     0.59325   0.33194   0.36304   0.00000  Uiso   1.00
C69    C     0.54805   0.32990   0.32523   0.00000  Uiso   1.00
H70    H     0.52090   0.20494   0.57709   0.00000  Uiso   1.00
H71    H     0.55603   0.00819   0.60641   0.00000  Uiso   1.00
H72    H     0.52595   0.36121   0.67542   0.00000  Uiso   1.00
H73    H     0.46827   0.23591   0.45900   0.00000  Uiso   1.00
H74    H     0.61459   0.80515   0.62389   0.00000  Uiso   1.00
H75    H     0.55117   0.54953   0.76938   0.00000  Uiso   1.00
H76    H     0.42953   0.28531   0.31303   0.00000  Uiso   1.00
H77    H     0.67200   0.32104   0.46109   0.00000  Uiso   1.00
H78    H     0.71542   0.13066   0.48404   0.00000  Uiso   1.00
H79    H     0.68535   0.48368   0.55305   0.00000  Uiso   1.00
H80    H     0.62766   0.35838   0.33664   0.00000  Uiso   1.00
H81    H     0.74396   0.90455   0.52458   0.00000  Uiso   1.00
H82    H     0.68054   0.64894   0.67007   0.00000  Uiso   1.00
H83    H     0.55890   0.38471   0.21371   0.00000  Uiso   1.00
O84    O     0.70512   0.72753   0.59145   0.00000  Uiso   1.00
O85    O     0.62191   0.70414   0.78232   0.00000  Uiso   1.00
O86    O     0.46232   0.35749   0.18359   0.00000  Uiso   1.00
N87    N     0.63908   0.85466   0.59736   0.00000  Uiso   1.00
N88    N     0.57978   0.55061   0.73339   0.00000  Uiso   1.00
N89    N     0.46606   0.30361   0.30674   0.00000  Uiso   1.00
N90    N     0.70869   0.90815   0.54391   0.00000  Uiso   1.00
N91    N     0.64940   0.60409   0.67995   0.00000  Uiso   1.00
N92    N     0.53567   0.35710   0.25330   0.00000  Uiso   1.00
C93    C     0.94463   0.26981   0.46109   0.00000  Uiso   1.00
C94    C     0.90453   0.36047   0.46069   0.00000  Uiso   1.00
C95    C     0.90966   0.46699   0.48971   0.00000  Uiso   1.00
C96    C     0.86862   0.53763   0.48388   0.00000  Uiso   1.00
C97    C     0.81312   0.68368   0.48841   0.00000  Uiso   1.00
C98    C     0.92111   0.16921   0.49914   0.00000  Uiso   1.00
C99    C     0.94018   0.11491   0.56048   0.00000  Uiso   1.00
C100   C     0.91309   0.02453   0.58701   0.00000  Uiso   1.00
C101   C     0.88335   0.87358   0.65120   0.00000  Uiso   1.00
C102   C     0.95206   0.23591   0.38098   0.00000  Uiso   1.00
C103   C     0.99715   0.23766   0.34298   0.00000  Uiso   1.00
C104   C     0.99612   0.20342   0.27004   0.00000  Uiso   1.00
C105   C     0.01442   0.15604   0.15077   0.00000  Uiso   1.00
C106   C     0.86263   0.20585   0.39911   0.00000  Uiso   1.00
C107   C     0.85999   0.32573   0.42703   0.00000  Uiso   1.00
C108   C     0.81893   0.39623   0.42115   0.00000  Uiso   1.00
C109   C     0.82399   0.50283   0.45016   0.00000  Uiso   1.00
C110   C     0.87657   0.13447   0.46548   0.00000  Uiso   1.00
C111   C     0.84945   0.04414   0.49192   0.00000  Uiso   1.00
C112   C     0.86847   0.98973   0.55329   0.00000  Uiso   1.00
C113   C     0.90751   0.20117   0.34732   0.00000  Uiso   1.00
C114   C     0.90641   0.16691   0.27442   0.00000  Uiso   1.00
C115   C     0.95149   0.16861   0.23632   0.00000  Uiso   1.00
H116   H     0.97931   0.29685   0.48730   0.00000  Uiso   1.00
H117   H     0.94414   0.49384   0.51577   0.00000  Uiso   1.00
H118   H     0.97465   0.14181   0.58652   0.00000  Uiso   1.00
H119   H     0.03161   0.26455   0.36905   0.00000  Uiso   1.00
H120   H     0.88549   0.69691   0.53251   0.00000  Uiso   1.00
H121   H     0.94984   0.95460   0.68167   0.00000  Uiso   1.00
H122   H     0.06995   0.21343   0.22311   0.00000  Uiso   1.00
H123   H     0.82795   0.17880   0.37291   0.00000  Uiso   1.00
H124   H     0.78446   0.36932   0.39509   0.00000  Uiso   1.00
H125   H     0.81498   0.01728   0.46585   0.00000  Uiso   1.00
H126   H     0.87194   0.14003   0.24839   0.00000  Uiso   1.00
H127   H     0.75589   0.59584   0.43457   0.00000  Uiso   1.00
H128   H     0.82024   0.85352   0.58374   0.00000  Uiso   1.00
H129   H     0.94035   0.11236   0.12517   0.00000  Uiso   1.00
O130   O     0.79481   0.77382   0.50022   0.00000  Uiso   1.00
O131   O     0.87924   0.79993   0.69591   0.00000  Uiso   1.00
O132   O     0.03682   0.13951   0.09429   0.00000  Uiso   1.00
N133   N     0.86096   0.64698   0.50640   0.00000  Uiso   1.00
N134   N     0.92112   0.95298   0.64587   0.00000  Uiso   1.00
N135   N     0.03341   0.19494   0.21715   0.00000  Uiso   1.00
N136   N     0.79122   0.59260   0.45370   0.00000  Uiso   1.00
N137   N     0.85138   0.89859   0.59317   0.00000  Uiso   1.00
N138   N     0.96368   0.14055   0.16445   0.00000  Uiso   1.00
C139   C     0.44449   0.76847   0.55051   0.00000  Uiso   1.00
C140   C     0.40445   0.85927   0.55035   0.00000  Uiso   1.00
C141   C     0.40956   0.96540   0.57999   0.00000  Uiso   1.00
C142   C     0.36858   0.03625   0.57429   0.00000  Uiso   1.00
C143   C     0.31316   0.18241   0.57927   0.00000  Uiso   1.00
C144   C     0.42078   0.66747   0.58785   0.00000  Uiso   1.00
C145   C     0.43963   0.61233   0.64902   0.00000  Uiso   1.00
C146   C     0.41241   0.52172   0.67487   0.00000  Uiso   1.00
C147   C     0.38238   0.37006   0.73804   0.00000  Uiso   1.00
C148   C     0.45213   0.73556   0.47027   0.00000  Uiso   1.00
C149   C     0.49733   0.73765   0.43257   0.00000  Uiso   1.00
C150   C     0.49649   0.70433   0.35943   0.00000  Uiso   1.00
C151   C     0.51512   0.65840   0.24003   0.00000  Uiso   1.00
C152   C     0.36262   0.70557   0.48766   0.00000  Uiso   1.00
C153   C     0.35998   0.82510   0.51621   0.00000  Uiso   1.00
C154   C     0.31898   0.89581   0.51046   0.00000  Uiso   1.00
C155   C     0.32403   0.00203   0.54009   0.00000  Uiso   1.00
C156   C     0.37632   0.63330   0.55372   0.00000  Uiso   1.00
C157   C     0.34906   0.54274   0.57949   0.00000  Uiso   1.00
C158   C     0.36786   0.48748   0.64068   0.00000  Uiso   1.00
C159   C     0.40766   0.70140   0.43613   0.00000  Uiso   1.00
C160   C     0.40675   0.66806   0.36304   0.00000  Uiso   1.00
C161   C     0.45195   0.67010   0.32523   0.00000  Uiso   1.00
H162   H     0.47910   0.79506   0.57709   0.00000  Uiso   1.00
H163   H     0.44397   0.99181   0.60641   0.00000  Uiso   1.00
H164   H     0.47405   0.63879   0.67542   0.00000  Uiso   1.00
H165   H     0.53173   0.76409   0.45900   0.00000  Uiso   1.00
H166   H     0.38541   0.19485   0.62389   0.00000  Uiso   1.00
H167   H     0.44883   0.45047   0.76938   0.00000  Uiso   1.00
H168   H     0.57047   0.71469   0.31303   0.00000  Uiso   1.00
H169   H     0.32800   0.67896   0.46109   0.00000  Uiso   1.00
H170   H     0.28458   0.86934   0.48404   0.00000  Uiso   1.00
H171   H     0.31465   0.51632   0.55305   0.00000  Uiso   1.00
H172   H     0.37234   0.64162   0.33664   0.00000  Uiso   1.00
H173   H     0.25604   0.09545   0.52458   0.00000  Uiso   1.00
H174   H     0.31946   0.35106   0.67007   0.00000  Uiso   1.00
H175   H     0.44110   0.61529   0.21371   0.00000  Uiso   1.00
O176   O     0.29488   0.27247   0.59145   0.00000  Uiso   1.00
O177   O     0.37809   0.29586   0.78232   0.00000  Uiso   1.00
O178   O     0.53768   0.64251   0.18359   0.00000  Uiso   1.00
N179   N     0.36092   0.14534   0.59736   0.00000  Uiso   1.00
N180   N     0.42022   0.44939   0.73339   0.00000  Uiso   1.00
N181   N     0.53394   0.69639   0.30674   0.00000  Uiso   1.00
N182   N     0.29131   0.09185   0.54391   0.00000  Uiso   1.00
N183   N     0.35060   0.39591   0.67995   0.00000  Uiso   1.00
N184   N     0.46433   0.64290   0.25330   0.00000  Uiso   1.00
C185   C     0.05537   0.76981   0.96109   0.00000  Uiso   1.00
C186   C     0.09547   0.86047   0.96069   0.00000  Uiso   1.00
C187   C     0.09034   0.96699   0.98971   0.00000  Uiso   1.00
C188   C     0.13138   0.03763   0.98388   0.00000  Uiso   1.00
C189   C     0.18688   0.18368   0.98841   0.00000  Uiso   1.00
C190   C     0.07889   0.66921   0.99914   0.00000  Uiso   1.00
C191   C     0.05982   0.61491   0.06048   0.00000  Uiso   1.00
C192   C     0.08691   0.52453   0.08701   0.00000  Uiso   1.00
C193   C     0.11665   0.37358   0.15120   0.00000  Uiso   1.00
C194   C     0.04794   0.73591   0.88098   0.00000  Uiso   1.00
C195   C     0.00285   0.73766   0.84298   0.00000  Uiso   1.00
C196   C     0.00388   0.70342   0.77004   0.00000  Uiso   1.00
C197   C     0.98558   0.65604   0.65077   0.00000  Uiso   1.00
C198   C     0.13737   0.70585   0.89911   0.00000  Uiso   1.00
C199   C     0.14001   0.82573   0.92703   0.00000  Uiso   1.00
C200   C     0.18107   0.89623   0.92115   0.00000  Uiso   1.00
C201   C     0.17601   0.00283   0.95016   0.00000  Uiso   1.00
C202   C     0.12343   0.63447   0.96548   0.00000  Uiso   1.00
C203   C     0.15055   0.54414   0.99192   0.00000  Uiso   1.00
C204   C     0.13153   0.48973   0.05329   0.00000  Uiso   1.00
C205   C     0.09249   0.70117   0.84732   0.00000  Uiso   1.00
C206   C     0.09359   0.66691   0.77442   0.00000  Uiso   1.00
C207   C     0.04851   0.66861   0.73632   0.00000  Uiso   1.00
H208   H     0.02069   0.79685   0.98730   0.00000  Uiso   1.00
H209   H     0.05586   0.99384   0.01577   0.00000  Uiso   1.00
H210   H     0.02535   0.64181   0.08652   0.00000  Uiso   1.00
H211   H     0.96839   0.76455   0.86905   0.00000  Uiso   1.00
H212   H     0.11451   0.19691   0.03251   0.00000  Uiso   1.00
H213   H     0.05016   0.45460   0.18167   0.00000  Uiso   1.00
H214   H     0.93005   0.71343   0.72311   0.00000  Uiso   1.00
H215   H     0.17205   0.67880   0.87291   0.00000  Uiso   1.00
H216   H     0.21554   0.86932   0.89509   0.00000  Uiso   1.00
H217   H     0.18502   0.51728   0.96585   0.00000  Uiso   1.00
H218   H     0.12806   0.64003   0.74839   0.00000  Uiso   1.00
H219   H     0.24411   0.09584   0.93457   0.00000  Uiso   1.00
H220   H     0.17976   0.35352   0.08374   0.00000  Uiso   1.00
H221   H     0.05965   0.61236   0.62517   0.00000  Uiso   1.00
O222   O     0.20519   0.27382   0.00022   0.00000  Uiso   1.00
O223   O     0.12076   0.29993   0.19591   0.00000  Uiso   1.00
O224   O     0.96318   0.63951   0.59429   0.00000  Uiso   1.00
N225   N     0.13904   0.14698   0.00640   0.00000  Uiso   1.00
N226   N     0.07888   0.45298   0.14587   0.00000  Uiso   1.00
N227   N     0.96659   0.69494   0.71715   0.00000  Uiso   1.00
N228   N     0.20878   0.09260   0.95370   0.00000  Uiso   1.00
N229   N     0.14862   0.39859   0.09317   0.00000  Uiso   1.00
N230   N     0.03632   0.64055   0.66445   0.00000  Uiso   1.00
C231   C     0.55551   0.26847   0.05051   0.00000  Uiso   1.00
C232   C     0.59555   0.35927   0.05035   0.00000  Uiso   1.00
C233   C     0.59044   0.46540   0.07999   0.00000  Uiso   1.00
C234   C     0.63142   0.53625   0.07429   0.00000  Uiso   1.00
C235   C     0.68684   0.68241   0.07927   0.00000  Uiso   1.00
C236   C     0.57922   0.16747   0.08785   0.00000  Uiso   1.00
C237   C     0.56037   0.11233   0.14902   0.00000  Uiso   1.00
C238   C     0.58759   0.02172   0.17487   0.00000  Uiso   1.00
C239   C     0.61762   0.87006   0.23804   0.00000  Uiso   1.00
C240   C     0.54787   0.23556   0.97027   0.00000  Uiso   1.00
C241   C     0.50267   0.23765   0.93257   0.00000  Uiso   1.00
C242   C     0.50351   0.20433   0.85943   0.00000  Uiso   1.00
C243   C     0.48488   0.15840   0.74003   0.00000  Uiso   1.00
C244   C     0.63738   0.20557   0.98766   0.00000  Uiso   1.00
C245   C     0.64002   0.32510   0.01621   0.00000  Uiso   1.00
C246   C     0.68102   0.39581   0.01046   0.00000  Uiso   1.00
C247   C     0.67597   0.50203   0.04009   0.00000  Uiso   1.00
C248   C     0.62368   0.13330   0.05372   0.00000  Uiso   1.00
C249   C     0.65094   0.04274   0.07949   0.00000  Uiso   1.00
C250   C     0.63214   0.98748   0.14068   0.00000  Uiso   1.00
C251   C     0.59234   0.20140   0.93613   0.00000  Uiso   1.00
C252   C     0.59325   0.16806   0.86304   0.00000  Uiso   1.00
C253   C     0.54805   0.17010   0.82523   0.00000  Uiso   1.00
H254   H     0.52090   0.29506   0.07709   0.00000  Uiso   1.00
H255   H     0.55603   0.49181   0.10641   0.00000  Uiso   1.00
H256   H     0.52595   0.13879   0.17542   0.00000  Uiso   1.00
H257   H     0.46827   0.26409   0.95900   0.00000  Uiso   1.00
H258   H     0.61459   0.69485   0.12389   0.00000  Uiso   1.00
H259   H     0.55117   0.95047   0.26938   0.00000  Uiso   1.00
H260   H     0.42953   0.21469   0.81303   0.00000  Uiso   1.00
H261   H     0.67200   0.17896   0.96109   0.00000  Uiso   1.00
H262   H     0.71542   0.36934   0.98404   0.00000  Uiso   1.00
H263   H     0.68535   0.01632   0.05305   0.00000  Uiso   1.00
H264   H     0.62766   0.14162   0.83664   0.00000  Uiso   1.00
H265   H     0.74396   0.59545   0.02458   0.00000  Uiso   1.00
H266   H     0.68054   0.85106   0.17007   0.00000  Uiso   1.00
H267   H     0.55890   0.11529   0.71371   0.00000  Uiso   1.00
O268   O     0.70512   0.77247   0.09145   0.00000  Uiso   1.00
O269   O     0.62191   0.79586   0.28232   0.00000  Uiso   1.00
O270   O     0.46232   0.14251   0.68359   0.00000  Uiso   1.00
N271   N     0.63908   0.64534   0.09736   0.00000  Uiso   1.00
N272   N     0.57978   0.94939   0.23339   0.00000  Uiso   1.00
N273   N     0.46606   0.19639   0.80674   0.00000  Uiso   1.00
N274   N     0.70869   0.59185   0.04391   0.00000  Uiso   1.00
N275   N     0.64940   0.89591   0.17995   0.00000  Uiso   1.00
N276   N     0.53567   0.14290   0.75330   0.00000  Uiso   1.00
C277   C     0.94463   0.23019   0.96109   0.00000  Uiso   1.00
C278   C     0.90453   0.13953   0.96069   0.00000  Uiso   1.00
C279   C     0.90966   0.03301   0.98971   0.00000  Uiso   1.00
C280   C     0.86862   0.96237   0.98388   0.00000  Uiso   1.00
C281   C     0.81312   0.81632   0.98841   0.00000  Uiso   1.00
C282   C     0.92111   0.33079   0.99914   0.00000  Uiso   1.00
C283   C     0.94018   0.38509   0.06048   0.00000  Uiso   1.00
C284   C     0.91309   0.47547   0.08701   0.00000  Uiso   1.00
C285   C     0.88335   0.62642   0.15120   0.00000  Uiso   1.00
C286   C     0.95206   0.26409   0.88098   0.00000  Uiso   1.00
C287   C     0.99715   0.26234   0.84298   0.00000  Uiso   1.00
C288   C     0.99612   0.29658   0.77004   0.00000  Uiso   1.00
C289   C     0.01442   0.34396   0.65077   0.00000  Uiso   1.00
C290   C     0.86263   0.29415   0.89911   0.00000  Uiso   1.00
C291   C     0.85999   0.17427   0.92703   0.00000  Uiso   1.00
C292   C     0.81893   0.10377   0.92115   0.00000  Uiso   1.00
C293   C     0.82399   0.99717   0.95016   0.00000  Uiso   1.00
C294   C     0.87657   0.36553   0.96548   0.00000  Uiso   1.00
C295   C     0.84945   0.45586   0.99192   0.00000  Uiso   1.00
C296   C     0.86847   0.51027   0.05329   0.00000  Uiso   1.00
C297   C     0.90751   0.29883   0.84732   0.00000  Uiso   1.00
C298   C     0.90641   0.33309   0.77442   0.00000  Uiso   1.00
C299   C     0.95149   0.33139   0.73632   0.00000  Uiso   1.00
H300   H     0.97931   0.20315   0.98730   0.00000  Uiso   1.00
H301   H     0.94414   0.00616   0.01577   0.00000  Uiso   1.00
H302   H     0.97465   0.35819   0.08652   0.00000  Uiso   1.00
H303   H     0.03161   0.23545   0.86905   0.00000  Uiso   1.00
H304   H     0.88549   0.80309   0.03251   0.00000  Uiso   1.00
H305   H     0.94984   0.54540   0.18167   0.00000  Uiso   1.00
H306   H     0.06995   0.28657   0.72311   0.00000  Uiso   1.00
H307   H     0.82795   0.32120   0.87291   0.00000  Uiso   1.00
H308   H     0.78446   0.13068   0.89509   0.00000  Uiso   1.00
H309   H     0.81498   0.48272   0.96585   0.00000  Uiso   1.00
H310   H     0.87194   0.35997   0.74839   0.00000  Uiso   1.00
H311   H     0.75589   0.90416   0.93457   0.00000  Uiso   1.00
H312   H     0.82024   0.64648   0.08374   0.00000  Uiso   1.00
H313   H     0.94035   0.38764   0.62517   0.00000  Uiso   1.00
O314   O     0.79481   0.72618   0.00022   0.00000  Uiso   1.00
O315   O     0.87924   0.70007   0.19591   0.00000  Uiso   1.00
O316   O     0.03682   0.36049   0.59429   0.00000  Uiso   1.00
N317   N     0.86096   0.85302   0.00640   0.00000  Uiso   1.00
N318   N     0.92112   0.54702   0.14587   0.00000  Uiso   1.00
N319   N     0.03341   0.30506   0.71715   0.00000  Uiso   1.00
N320   N     0.79122   0.90740   0.95370   0.00000  Uiso   1.00
N321   N     0.85138   0.60141   0.09317   0.00000  Uiso   1.00
N322   N     0.96368   0.35945   0.66445   0.00000  Uiso   1.00
C323   C     0.44449   0.73153   0.05051   0.00000  Uiso   1.00
C324   C     0.40445   0.64073   0.05035   0.00000  Uiso   1.00
C325   C     0.40956   0.53460   0.07999   0.00000  Uiso   1.00
C326   C     0.36858   0.46375   0.07429   0.00000  Uiso   1.00
C327   C     0.31316   0.31759   0.07927   0.00000  Uiso   1.00
C328   C     0.42078   0.83253   0.08785   0.00000  Uiso   1.00
C329   C     0.43963   0.88767   0.14902   0.00000  Uiso   1.00
C330   C     0.41241   0.97828   0.17487   0.00000  Uiso   1.00
C331   C     0.38238   0.12994   0.23804   0.00000  Uiso   1.00
C332   C     0.45213   0.76444   0.97027   0.00000  Uiso   1.00
C333   C     0.49733   0.76235   0.93257   0.00000  Uiso   1.00
C334   C     0.49649   0.79567   0.85943   0.00000  Uiso   1.00
C335   C     0.51512   0.84160   0.74003   0.00000  Uiso   1.00
C336   C     0.36262   0.79443   0.98766   0.00000  Uiso   1.00
C337   C     0.35998   0.67490   0.01621   0.00000  Uiso   1.00
C338   C     0.31898   0.60419   0.01046   0.00000  Uiso   1.00
C339   C     0.32403   0.49797   0.04009   0.00000  Uiso   1.00
C340   C     0.37632   0.86670   0.05372   0.00000  Uiso   1.00
C341   C     0.34906   0.95726   0.07949   0.00000  Uiso   1.00
C342   C     0.36786   0.01252   0.14068   0.00000  Uiso   1.00
C343   C     0.40766   0.79860   0.93613   0.00000  Uiso   1.00
C344   C     0.40675   0.83194   0.86304   0.00000  Uiso   1.00
C345   C     0.45195   0.82990   0.82523   0.00000  Uiso   1.00
H346   H     0.47910   0.70494   0.07709   0.00000  Uiso   1.00
H347   H     0.44397   0.50819   0.10641   0.00000  Uiso   1.00
H348   H     0.47405   0.86121   0.17542   0.00000  Uiso   1.00
H349   H     0.53173   0.73591   0.95900   0.00000  Uiso   1.00
H350   H     0.38541   0.30515   0.12389   0.00000  Uiso   1.00
H351   H     0.44883   0.04953   0.26938   0.00000  Uiso   1.00
H352   H     0.57047   0.78531   0.81303   0.00000  Uiso   1.00
H353   H     0.32800   0.82104   0.96109   0.00000  Uiso   1.00
H354   H     0.28458   0.63066   0.98404   0.00000  Uiso   1.00
H355   H     0.31465   0.98368   0.05305   0.00000  Uiso   1.00
H356   H     0.37234   0.85838   0.83664   0.00000  Uiso   1.00
H357   H     0.25604   0.40455   0.02458   0.00000  Uiso   1.00
H358   H     0.31946   0.14894   0.17007   0.00000  Uiso   1.00
H359   H     0.44110   0.88471   0.71371   0.00000  Uiso   1.00
O360   O     0.29488   0.22753   0.09145   0.00000  Uiso   1.00
O361   O     0.37809   0.20414   0.28232   0.00000  Uiso   1.00
O362   O     0.53768   0.85749   0.68359   0.00000  Uiso   1.00
N363   N     0.36092   0.35466   0.09736   0.00000  Uiso   1.00
N364   N     0.42022   0.05061   0.23339   0.00000  Uiso   1.00
N365   N     0.53394   0.80361   0.80674   0.00000  Uiso   1.00
N366   N     0.29131   0.40815   0.04391   0.00000  Uiso   1.00
N367   N     0.35060   0.10409   0.17995   0.00000  Uiso   1.00
N368   N     0.46433   0.85710   0.75330   0.00000  Uiso   1.00
