data_job_00490
_audit_creation_date              2018-12-19
_audit_creation_method            'Materials Studio'
_symmetry_space_group_name_H-M    'P1'
_symmetry_Int_Tables_number       1
_symmetry_cell_setting            triclinic
loop_
_symmetry_equiv_pos_as_xyz
  x,y,z
_cell_length_a                    16.9940
_cell_length_b                    12.6031
_cell_length_c                    12.2606
_cell_angle_alpha                 90.0000
_cell_angle_beta                  72.6151
_cell_angle_gamma                 90.0000
loop_
_atom_site_label
_atom_site_type_symbol
_atom_site_fract_x
_atom_site_fract_y
_atom_site_fract_z
_atom_site_U_iso_or_equiv
_atom_site_adp_type
_atom_site_occupancy
C1     C     0.27775   0.00828   0.71851   0.00000  Uiso   1.00
C2     C     0.21439   0.03928   0.83095   0.00000  Uiso   1.00
C3     C     0.20472   0.99141   0.93609   0.00000  Uiso   1.00
C4     C     0.14319   0.03135   0.02876   0.00000  Uiso   1.00
C5     C     0.05239   0.06655   0.20519   0.00000  Uiso   1.00
C6     C     0.22883   0.98388   0.63556   0.00000  Uiso   1.00
C7     C     0.23131   0.88945   0.57640   0.00000  Uiso   1.00
C8     C     0.18195   0.88277   0.50457   0.00000  Uiso   1.00
C9     C     0.11361   0.83200   0.37758   0.00000  Uiso   1.00
C10    C     0.32694   0.10861   0.67369   0.00000  Uiso   1.00
C11    C     0.41191   0.11905   0.64656   0.00000  Uiso   1.00
C12    C     0.44515   0.21738   0.60681   0.00000  Uiso   1.00
C13    C     0.52914   0.36027   0.53902   0.00000  Uiso   1.00
C14    C     0.18569   0.16434   0.69613   0.00000  Uiso   1.00
C15    C     0.16439   0.12404   0.81879   0.00000  Uiso   1.00
C16    C     0.10286   0.16407   0.91133   0.00000  Uiso   1.00
C17    C     0.09310   0.11627   0.01658   0.00000  Uiso   1.00
C18    C     0.17883   0.06864   0.62340   0.00000  Uiso   1.00
C19    C     0.12946   0.06211   0.55164   0.00000  Uiso   1.00
C20    C     0.13185   0.96769   0.49239   0.00000  Uiso   1.00
C21    C     0.27694   0.19338   0.66153   0.00000  Uiso   1.00
C22    C     0.31005   0.29171   0.62181   0.00000  Uiso   1.00
C23    C     0.39506   0.30230   0.59463   0.00000  Uiso   1.00
H24    H     0.31668   0.94229   0.72797   0.00000  Uiso   1.00
H25    H     0.24342   0.92581   0.94546   0.00000  Uiso   1.00
H26    H     0.27002   0.82387   0.58581   0.00000  Uiso   1.00
H27    H     0.45059   0.05344   0.65598   0.00000  Uiso   1.00
H28    H     0.14013   0.94489   0.18121   0.00000  Uiso   1.00
H29    H     0.19623   0.72997   0.42286   0.00000  Uiso   1.00
H30    H     0.57700   0.21405   0.57080   0.00000  Uiso   1.00
H31    H     0.14676   0.23033   0.68667   0.00000  Uiso   1.00
H32    H     0.06418   0.22966   0.90189   0.00000  Uiso   1.00
H33    H     0.09077   0.12772   0.54225   0.00000  Uiso   1.00
H34    H     0.27134   0.35729   0.61241   0.00000  Uiso   1.00
H35    H     0.99464   0.19151   0.14585   0.00000  Uiso   1.00
H36    H     0.05075   0.97658   0.38749   0.00000  Uiso   1.00
H37    H     0.43151   0.46067   0.53544   0.00000  Uiso   1.00
O38    O     0.01611   0.06254   0.30585   0.00000  Uiso   1.00
O39    O     0.08973   0.78058   0.31090   0.00000  Uiso   1.00
O40    O     0.58928   0.41568   0.50501   0.00000  Uiso   1.00
N41    N     0.11723   0.00304   0.14336   0.00000  Uiso   1.00
N42    N     0.16968   0.80209   0.43435   0.00000  Uiso   1.00
N43    N     0.52566   0.25466   0.57264   0.00000  Uiso   1.00
N44    N     0.03895   0.13574   0.12433   0.00000  Uiso   1.00
N45    N     0.09139   0.93479   0.41533   0.00000  Uiso   1.00
N46    N     0.44738   0.38736   0.55361   0.00000  Uiso   1.00
C47    C     0.72225   0.50828   0.78149   0.00000  Uiso   1.00
C48    C     0.78561   0.53928   0.66905   0.00000  Uiso   1.00
C49    C     0.79528   0.49141   0.56391   0.00000  Uiso   1.00
C50    C     0.85681   0.53135   0.47124   0.00000  Uiso   1.00
C51    C     0.94761   0.56655   0.29481   0.00000  Uiso   1.00
C52    C     0.77117   0.48388   0.86444   0.00000  Uiso   1.00
C53    C     0.76869   0.38945   0.92360   0.00000  Uiso   1.00
C54    C     0.81805   0.38277   0.99543   0.00000  Uiso   1.00
C55    C     0.88639   0.33200   0.12242   0.00000  Uiso   1.00
C56    C     0.67306   0.60861   0.82631   0.00000  Uiso   1.00
C57    C     0.58809   0.61905   0.85344   0.00000  Uiso   1.00
C58    C     0.55485   0.71738   0.89319   0.00000  Uiso   1.00
C59    C     0.47086   0.86027   0.96098   0.00000  Uiso   1.00
C60    C     0.81431   0.66434   0.80387   0.00000  Uiso   1.00
C61    C     0.83561   0.62404   0.68121   0.00000  Uiso   1.00
C62    C     0.89714   0.66407   0.58867   0.00000  Uiso   1.00
C63    C     0.90690   0.61627   0.48342   0.00000  Uiso   1.00
C64    C     0.82117   0.56864   0.87660   0.00000  Uiso   1.00
C65    C     0.87054   0.56211   0.94836   0.00000  Uiso   1.00
C66    C     0.86815   0.46769   0.00761   0.00000  Uiso   1.00
C67    C     0.72306   0.69338   0.83847   0.00000  Uiso   1.00
C68    C     0.68995   0.79171   0.87819   0.00000  Uiso   1.00
C69    C     0.60494   0.80230   0.90537   0.00000  Uiso   1.00
H70    H     0.68332   0.44229   0.77203   0.00000  Uiso   1.00
H71    H     0.75658   0.42581   0.55454   0.00000  Uiso   1.00
H72    H     0.72998   0.32387   0.91419   0.00000  Uiso   1.00
H73    H     0.54941   0.55344   0.84402   0.00000  Uiso   1.00
H74    H     0.85987   0.44489   0.31879   0.00000  Uiso   1.00
H75    H     0.80377   0.22997   0.07714   0.00000  Uiso   1.00
H76    H     0.42300   0.71405   0.92920   0.00000  Uiso   1.00
H77    H     0.85324   0.73033   0.81333   0.00000  Uiso   1.00
H78    H     0.93582   0.72966   0.59811   0.00000  Uiso   1.00
H79    H     0.90923   0.62772   0.95775   0.00000  Uiso   1.00
H80    H     0.72866   0.85729   0.88759   0.00000  Uiso   1.00
H81    H     0.00536   0.69151   0.35415   0.00000  Uiso   1.00
H82    H     0.94925   0.47658   0.11251   0.00000  Uiso   1.00
H83    H     0.56849   0.96067   0.96456   0.00000  Uiso   1.00
O84    O     0.98389   0.56254   0.19415   0.00000  Uiso   1.00
O85    O     0.91027   0.28058   0.18910   0.00000  Uiso   1.00
O86    O     0.41072   0.91568   0.99499   0.00000  Uiso   1.00
N87    N     0.88277   0.50304   0.35664   0.00000  Uiso   1.00
N88    N     0.83032   0.30209   0.06565   0.00000  Uiso   1.00
N89    N     0.47434   0.75466   0.92736   0.00000  Uiso   1.00
N90    N     0.96105   0.63574   0.37567   0.00000  Uiso   1.00
N91    N     0.90861   0.43479   0.08467   0.00000  Uiso   1.00
N92    N     0.55262   0.88736   0.94639   0.00000  Uiso   1.00
C93    C     0.72225   0.99172   0.28149   0.00000  Uiso   1.00
C94    C     0.78561   0.96072   0.16905   0.00000  Uiso   1.00
C95    C     0.79528   0.00859   0.06391   0.00000  Uiso   1.00
C96    C     0.85681   0.96865   0.97124   0.00000  Uiso   1.00
C97    C     0.94761   0.93345   0.79481   0.00000  Uiso   1.00
C98    C     0.77117   0.01612   0.36444   0.00000  Uiso   1.00
C99    C     0.76869   0.11055   0.42360   0.00000  Uiso   1.00
C100   C     0.81805   0.11723   0.49543   0.00000  Uiso   1.00
C101   C     0.88639   0.16800   0.62242   0.00000  Uiso   1.00
C102   C     0.67306   0.89139   0.32631   0.00000  Uiso   1.00
C103   C     0.58809   0.88095   0.35344   0.00000  Uiso   1.00
C104   C     0.55485   0.78262   0.39319   0.00000  Uiso   1.00
C105   C     0.47086   0.63973   0.46098   0.00000  Uiso   1.00
C106   C     0.81431   0.83566   0.30387   0.00000  Uiso   1.00
C107   C     0.83561   0.87596   0.18121   0.00000  Uiso   1.00
C108   C     0.89714   0.83593   0.08867   0.00000  Uiso   1.00
C109   C     0.90690   0.88373   0.98342   0.00000  Uiso   1.00
C110   C     0.82117   0.93136   0.37660   0.00000  Uiso   1.00
C111   C     0.87054   0.93789   0.44836   0.00000  Uiso   1.00
C112   C     0.86815   0.03231   0.50761   0.00000  Uiso   1.00
C113   C     0.72306   0.80662   0.33847   0.00000  Uiso   1.00
C114   C     0.68995   0.70829   0.37819   0.00000  Uiso   1.00
C115   C     0.60494   0.69770   0.40537   0.00000  Uiso   1.00
H116   H     0.68332   0.05771   0.27203   0.00000  Uiso   1.00
H117   H     0.75658   0.07419   0.05454   0.00000  Uiso   1.00
H118   H     0.72998   0.17613   0.41419   0.00000  Uiso   1.00
H119   H     0.54941   0.94656   0.34402   0.00000  Uiso   1.00
H120   H     0.85987   0.05511   0.81879   0.00000  Uiso   1.00
H121   H     0.80377   0.27003   0.57714   0.00000  Uiso   1.00
H122   H     0.42300   0.78595   0.42920   0.00000  Uiso   1.00
H123   H     0.85324   0.76967   0.31333   0.00000  Uiso   1.00
H124   H     0.93582   0.77034   0.09811   0.00000  Uiso   1.00
H125   H     0.90923   0.87228   0.45775   0.00000  Uiso   1.00
H126   H     0.72866   0.64271   0.38759   0.00000  Uiso   1.00
H127   H     0.00536   0.80849   0.85415   0.00000  Uiso   1.00
H128   H     0.94925   0.02342   0.61251   0.00000  Uiso   1.00
H129   H     0.56849   0.53933   0.46456   0.00000  Uiso   1.00
O130   O     0.98389   0.93746   0.69415   0.00000  Uiso   1.00
O131   O     0.91027   0.21942   0.68910   0.00000  Uiso   1.00
O132   O     0.41072   0.58432   0.49499   0.00000  Uiso   1.00
N133   N     0.88277   0.99696   0.85664   0.00000  Uiso   1.00
N134   N     0.83032   0.19791   0.56565   0.00000  Uiso   1.00
N135   N     0.47434   0.74534   0.42736   0.00000  Uiso   1.00
N136   N     0.96105   0.86426   0.87567   0.00000  Uiso   1.00
N137   N     0.90861   0.06521   0.58467   0.00000  Uiso   1.00
N138   N     0.55262   0.61264   0.44639   0.00000  Uiso   1.00
C139   C     0.27775   0.49172   0.21851   0.00000  Uiso   1.00
C140   C     0.21439   0.46072   0.33095   0.00000  Uiso   1.00
C141   C     0.20472   0.50859   0.43609   0.00000  Uiso   1.00
C142   C     0.14319   0.46865   0.52876   0.00000  Uiso   1.00
C143   C     0.05239   0.43345   0.70519   0.00000  Uiso   1.00
C144   C     0.22883   0.51612   0.13556   0.00000  Uiso   1.00
C145   C     0.23131   0.61055   0.07640   0.00000  Uiso   1.00
C146   C     0.18195   0.61723   0.00457   0.00000  Uiso   1.00
C147   C     0.11361   0.66800   0.87758   0.00000  Uiso   1.00
C148   C     0.32694   0.39139   0.17369   0.00000  Uiso   1.00
C149   C     0.41191   0.38095   0.14656   0.00000  Uiso   1.00
C150   C     0.44515   0.28262   0.10681   0.00000  Uiso   1.00
C151   C     0.52914   0.13973   0.03902   0.00000  Uiso   1.00
C152   C     0.18569   0.33566   0.19613   0.00000  Uiso   1.00
C153   C     0.16439   0.37596   0.31879   0.00000  Uiso   1.00
C154   C     0.10286   0.33593   0.41133   0.00000  Uiso   1.00
C155   C     0.09310   0.38373   0.51658   0.00000  Uiso   1.00
C156   C     0.17883   0.43136   0.12340   0.00000  Uiso   1.00
C157   C     0.12946   0.43789   0.05164   0.00000  Uiso   1.00
C158   C     0.13185   0.53231   0.99239   0.00000  Uiso   1.00
C159   C     0.27694   0.30662   0.16153   0.00000  Uiso   1.00
C160   C     0.31005   0.20829   0.12181   0.00000  Uiso   1.00
C161   C     0.39506   0.19770   0.09463   0.00000  Uiso   1.00
H162   H     0.31668   0.55771   0.22797   0.00000  Uiso   1.00
H163   H     0.24342   0.57419   0.44546   0.00000  Uiso   1.00
H164   H     0.27002   0.67613   0.08581   0.00000  Uiso   1.00
H165   H     0.45059   0.44656   0.15598   0.00000  Uiso   1.00
H166   H     0.14013   0.55511   0.68121   0.00000  Uiso   1.00
H167   H     0.19623   0.77003   0.92286   0.00000  Uiso   1.00
H168   H     0.57700   0.28595   0.07080   0.00000  Uiso   1.00
H169   H     0.14676   0.26967   0.18667   0.00000  Uiso   1.00
H170   H     0.06418   0.27034   0.40189   0.00000  Uiso   1.00
H171   H     0.09077   0.37228   0.04225   0.00000  Uiso   1.00
H172   H     0.27134   0.14271   0.11241   0.00000  Uiso   1.00
H173   H     0.99464   0.30849   0.64585   0.00000  Uiso   1.00
H174   H     0.05075   0.52342   0.88749   0.00000  Uiso   1.00
H175   H     0.43151   0.03933   0.03544   0.00000  Uiso   1.00
O176   O     0.01611   0.43746   0.80585   0.00000  Uiso   1.00
O177   O     0.08973   0.71942   0.81090   0.00000  Uiso   1.00
O178   O     0.58928   0.08432   0.00501   0.00000  Uiso   1.00
N179   N     0.11723   0.49696   0.64336   0.00000  Uiso   1.00
N180   N     0.16968   0.69791   0.93435   0.00000  Uiso   1.00
N181   N     0.52566   0.24534   0.07264   0.00000  Uiso   1.00
N182   N     0.03895   0.36426   0.62433   0.00000  Uiso   1.00
N183   N     0.09139   0.56521   0.91533   0.00000  Uiso   1.00
N184   N     0.44738   0.11264   0.05361   0.00000  Uiso   1.00
