data_job_00861
_audit_creation_date              2018-12-19
_audit_creation_method            'Materials Studio'
_symmetry_space_group_name_H-M    'P1'
_symmetry_Int_Tables_number       1
_symmetry_cell_setting            triclinic
loop_
_symmetry_equiv_pos_as_xyz
  x,y,z
_cell_length_a                    19.4032
_cell_length_b                    10.6860
_cell_length_c                    10.6852
_cell_angle_alpha                 90.0000
_cell_angle_beta                  77.4476
_cell_angle_gamma                 90.0000
loop_
_atom_site_label
_atom_site_type_symbol
_atom_site_fract_x
_atom_site_fract_y
_atom_site_fract_z
_atom_site_U_iso_or_equiv
_atom_site_adp_type
_atom_site_occupancy
C1     C     0.21737   0.62186   0.96941   0.00000  Uiso   1.00
C2     C     0.16000   0.54469   0.92825   0.00000  Uiso   1.00
C3     C     0.15611   0.41502   0.92796   0.00000  Uiso   1.00
C4     C     0.09950   0.36220   0.88685   0.00000  Uiso   1.00
C5     C     0.01817   0.23109   0.82887   0.00000  Uiso   1.00
C6     C     0.24875   0.70536   0.85554   0.00000  Uiso   1.00
C7     C     0.31948   0.71079   0.79412   0.00000  Uiso   1.00
C8     C     0.33758   0.79324   0.69182   0.00000  Uiso   1.00
C9     C     0.39405   0.91163   0.52101   0.00000  Uiso   1.00
C10    C     0.17922   0.70926   0.07476   0.00000  Uiso   1.00
C11    C     0.19150   0.71799   0.19766   0.00000  Uiso   1.00
C12    C     0.15107   0.80374   0.27991   0.00000  Uiso   1.00
C13    C     0.09957   0.92818   0.44947   0.00000  Uiso   1.00
C14    C     0.12375   0.75865   0.89693   0.00000  Uiso   1.00
C15    C     0.10915   0.61900   0.88888   0.00000  Uiso   1.00
C16    C     0.05253   0.56636   0.84777   0.00000  Uiso   1.00
C17    C     0.04856   0.43664   0.84742   0.00000  Uiso   1.00
C18    C     0.19790   0.77966   0.81617   0.00000  Uiso   1.00
C19    C     0.21590   0.86213   0.71393   0.00000  Uiso   1.00
C20    C     0.28664   0.86768   0.65238   0.00000  Uiso   1.00
C21    C     0.12837   0.78356   0.03539   0.00000  Uiso   1.00
C22    C     0.08792   0.86932   0.11747   0.00000  Uiso   1.00
C23    C     0.10013   0.87818   0.24047   0.00000  Uiso   1.00
H24    H     0.25696   0.56402   0.00005   0.00000  Uiso   1.00
H25    H     0.19547   0.35755   0.95842   0.00000  Uiso   1.00
H26    H     0.35882   0.65329   0.82462   0.00000  Uiso   1.00
H27    H     0.23085   0.66048   0.22809   0.00000  Uiso   1.00
H28    H     0.10489   0.16142   0.89486   0.00000  Uiso   1.00
H29    H     0.44932   0.78502   0.61275   0.00000  Uiso   1.00
H30    H     0.17948   0.80018   0.46355   0.00000  Uiso   1.00
H31    H     0.08417   0.81650   0.86628   0.00000  Uiso   1.00
H32    H     0.01319   0.62389   0.81731   0.00000  Uiso   1.00
H33    H     0.17654   0.91962   0.68350   0.00000  Uiso   1.00
H34    H     0.04857   0.92681   0.08697   0.00000  Uiso   1.00
H35    H     0.95695   0.37758   0.78032   0.00000  Uiso   1.00
H36    H     0.30138   0.00119   0.49822   0.00000  Uiso   1.00
H37    H     0.03153   0.01635   0.34901   0.00000  Uiso   1.00
O38    O     0.98736   0.13824   0.80775   0.00000  Uiso   1.00
O39    O     0.43924   0.95639   0.43766   0.00000  Uiso   1.00
O40    O     0.08521   0.97628   0.55388   0.00000  Uiso   1.00
N41    N     0.07980   0.23873   0.87465   0.00000  Uiso   1.00
N42    N     0.40182   0.82174   0.61088   0.00000  Uiso   1.00
N43    N     0.14956   0.83594   0.40630   0.00000  Uiso   1.00
N44    N     0.00020   0.35504   0.81302   0.00000  Uiso   1.00
N45    N     0.32221   0.93806   0.54925   0.00000  Uiso   1.00
N46    N     0.06995   0.95226   0.34467   0.00000  Uiso   1.00
C47    C     0.71737   0.12186   0.96941   0.00000  Uiso   1.00
C48    C     0.66000   0.04469   0.92825   0.00000  Uiso   1.00
C49    C     0.65611   0.91502   0.92796   0.00000  Uiso   1.00
C50    C     0.59950   0.86220   0.88685   0.00000  Uiso   1.00
C51    C     0.51817   0.73109   0.82887   0.00000  Uiso   1.00
C52    C     0.74875   0.20536   0.85554   0.00000  Uiso   1.00
C53    C     0.81948   0.21079   0.79412   0.00000  Uiso   1.00
C54    C     0.83758   0.29324   0.69182   0.00000  Uiso   1.00
C55    C     0.89405   0.41163   0.52101   0.00000  Uiso   1.00
C56    C     0.67922   0.20926   0.07476   0.00000  Uiso   1.00
C57    C     0.69150   0.21799   0.19766   0.00000  Uiso   1.00
C58    C     0.65107   0.30374   0.27991   0.00000  Uiso   1.00
C59    C     0.59957   0.42818   0.44947   0.00000  Uiso   1.00
C60    C     0.62375   0.25865   0.89693   0.00000  Uiso   1.00
C61    C     0.60915   0.11900   0.88888   0.00000  Uiso   1.00
C62    C     0.55253   0.06636   0.84777   0.00000  Uiso   1.00
C63    C     0.54856   0.93664   0.84742   0.00000  Uiso   1.00
C64    C     0.69790   0.27966   0.81617   0.00000  Uiso   1.00
C65    C     0.71590   0.36213   0.71393   0.00000  Uiso   1.00
C66    C     0.78664   0.36768   0.65238   0.00000  Uiso   1.00
C67    C     0.62837   0.28356   0.03539   0.00000  Uiso   1.00
C68    C     0.58792   0.36932   0.11747   0.00000  Uiso   1.00
C69    C     0.60013   0.37818   0.24047   0.00000  Uiso   1.00
H70    H     0.75696   0.06402   0.00005   0.00000  Uiso   1.00
H71    H     0.69547   0.85755   0.95842   0.00000  Uiso   1.00
H72    H     0.85882   0.15329   0.82462   0.00000  Uiso   1.00
H73    H     0.73085   0.16048   0.22809   0.00000  Uiso   1.00
H74    H     0.60489   0.66142   0.89486   0.00000  Uiso   1.00
H75    H     0.94932   0.28502   0.61275   0.00000  Uiso   1.00
H76    H     0.67948   0.30018   0.46355   0.00000  Uiso   1.00
H77    H     0.58417   0.31650   0.86628   0.00000  Uiso   1.00
H78    H     0.51319   0.12389   0.81731   0.00000  Uiso   1.00
H79    H     0.67654   0.41962   0.68350   0.00000  Uiso   1.00
H80    H     0.54857   0.42681   0.08697   0.00000  Uiso   1.00
H81    H     0.45695   0.87758   0.78032   0.00000  Uiso   1.00
H82    H     0.80138   0.50119   0.49822   0.00000  Uiso   1.00
H83    H     0.53153   0.51635   0.34901   0.00000  Uiso   1.00
O84    O     0.48736   0.63824   0.80775   0.00000  Uiso   1.00
O85    O     0.93924   0.45639   0.43766   0.00000  Uiso   1.00
O86    O     0.58521   0.47628   0.55388   0.00000  Uiso   1.00
N87    N     0.57980   0.73873   0.87465   0.00000  Uiso   1.00
N88    N     0.90182   0.32174   0.61088   0.00000  Uiso   1.00
N89    N     0.64956   0.33594   0.40630   0.00000  Uiso   1.00
N90    N     0.50020   0.85504   0.81302   0.00000  Uiso   1.00
N91    N     0.82221   0.43806   0.54925   0.00000  Uiso   1.00
N92    N     0.56995   0.45226   0.34467   0.00000  Uiso   1.00
C93    C     0.78263   0.62186   0.03059   0.00000  Uiso   1.00
C94    C     0.84000   0.54469   0.07175   0.00000  Uiso   1.00
C95    C     0.84389   0.41502   0.07204   0.00000  Uiso   1.00
C96    C     0.90050   0.36220   0.11315   0.00000  Uiso   1.00
C97    C     0.98183   0.23109   0.17113   0.00000  Uiso   1.00
C98    C     0.75125   0.70536   0.14446   0.00000  Uiso   1.00
C99    C     0.68052   0.71079   0.20588   0.00000  Uiso   1.00
C100   C     0.66242   0.79324   0.30818   0.00000  Uiso   1.00
C101   C     0.60595   0.91163   0.47899   0.00000  Uiso   1.00
C102   C     0.82078   0.70926   0.92524   0.00000  Uiso   1.00
C103   C     0.80850   0.71799   0.80234   0.00000  Uiso   1.00
C104   C     0.84893   0.80374   0.72009   0.00000  Uiso   1.00
C105   C     0.90043   0.92818   0.55053   0.00000  Uiso   1.00
C106   C     0.87625   0.75865   0.10307   0.00000  Uiso   1.00
C107   C     0.89085   0.61900   0.11112   0.00000  Uiso   1.00
C108   C     0.94747   0.56636   0.15223   0.00000  Uiso   1.00
C109   C     0.95144   0.43664   0.15258   0.00000  Uiso   1.00
C110   C     0.80210   0.77966   0.18383   0.00000  Uiso   1.00
C111   C     0.78410   0.86213   0.28607   0.00000  Uiso   1.00
C112   C     0.71336   0.86768   0.34762   0.00000  Uiso   1.00
C113   C     0.87163   0.78356   0.96461   0.00000  Uiso   1.00
C114   C     0.91208   0.86932   0.88253   0.00000  Uiso   1.00
C115   C     0.89987   0.87818   0.75953   0.00000  Uiso   1.00
H116   H     0.74304   0.56402   0.99995   0.00000  Uiso   1.00
H117   H     0.80453   0.35755   0.04158   0.00000  Uiso   1.00
H118   H     0.64118   0.65329   0.17538   0.00000  Uiso   1.00
H119   H     0.76915   0.66048   0.77191   0.00000  Uiso   1.00
H120   H     0.89511   0.16142   0.10514   0.00000  Uiso   1.00
H121   H     0.55068   0.78502   0.38725   0.00000  Uiso   1.00
H122   H     0.82052   0.80018   0.53645   0.00000  Uiso   1.00
H123   H     0.91583   0.81650   0.13372   0.00000  Uiso   1.00
H124   H     0.98681   0.62389   0.18269   0.00000  Uiso   1.00
H125   H     0.82346   0.91962   0.31650   0.00000  Uiso   1.00
H126   H     0.95143   0.92681   0.91303   0.00000  Uiso   1.00
H127   H     0.04305   0.37758   0.21968   0.00000  Uiso   1.00
H128   H     0.69862   0.00119   0.50178   0.00000  Uiso   1.00
H129   H     0.96847   0.01635   0.65099   0.00000  Uiso   1.00
O130   O     0.01264   0.13824   0.19225   0.00000  Uiso   1.00
O131   O     0.56076   0.95639   0.56234   0.00000  Uiso   1.00
O132   O     0.91479   0.97628   0.44612   0.00000  Uiso   1.00
N133   N     0.92020   0.23873   0.12535   0.00000  Uiso   1.00
N134   N     0.59818   0.82174   0.38912   0.00000  Uiso   1.00
N135   N     0.85044   0.83594   0.59370   0.00000  Uiso   1.00
N136   N     0.99980   0.35504   0.18698   0.00000  Uiso   1.00
N137   N     0.67779   0.93806   0.45075   0.00000  Uiso   1.00
N138   N     0.93005   0.95226   0.65533   0.00000  Uiso   1.00
C139   C     0.28263   0.12186   0.03059   0.00000  Uiso   1.00
C140   C     0.34000   0.04469   0.07175   0.00000  Uiso   1.00
C141   C     0.34389   0.91502   0.07204   0.00000  Uiso   1.00
C142   C     0.40050   0.86220   0.11315   0.00000  Uiso   1.00
C143   C     0.48183   0.73109   0.17113   0.00000  Uiso   1.00
C144   C     0.25125   0.20536   0.14446   0.00000  Uiso   1.00
C145   C     0.18052   0.21079   0.20588   0.00000  Uiso   1.00
C146   C     0.16242   0.29324   0.30818   0.00000  Uiso   1.00
C147   C     0.10595   0.41163   0.47899   0.00000  Uiso   1.00
C148   C     0.32078   0.20926   0.92524   0.00000  Uiso   1.00
C149   C     0.30850   0.21799   0.80234   0.00000  Uiso   1.00
C150   C     0.34893   0.30374   0.72009   0.00000  Uiso   1.00
C151   C     0.40043   0.42818   0.55053   0.00000  Uiso   1.00
C152   C     0.37625   0.25865   0.10307   0.00000  Uiso   1.00
C153   C     0.39085   0.11900   0.11112   0.00000  Uiso   1.00
C154   C     0.44747   0.06636   0.15223   0.00000  Uiso   1.00
C155   C     0.45144   0.93664   0.15258   0.00000  Uiso   1.00
C156   C     0.30210   0.27966   0.18383   0.00000  Uiso   1.00
C157   C     0.28410   0.36213   0.28607   0.00000  Uiso   1.00
C158   C     0.21336   0.36768   0.34762   0.00000  Uiso   1.00
C159   C     0.37163   0.28356   0.96461   0.00000  Uiso   1.00
C160   C     0.41208   0.36932   0.88253   0.00000  Uiso   1.00
C161   C     0.39987   0.37818   0.75953   0.00000  Uiso   1.00
H162   H     0.24304   0.06402   0.99995   0.00000  Uiso   1.00
H163   H     0.30453   0.85755   0.04158   0.00000  Uiso   1.00
H164   H     0.14118   0.15329   0.17538   0.00000  Uiso   1.00
H165   H     0.26915   0.16048   0.77191   0.00000  Uiso   1.00
H166   H     0.39511   0.66142   0.10514   0.00000  Uiso   1.00
H167   H     0.05068   0.28502   0.38725   0.00000  Uiso   1.00
H168   H     0.32052   0.30018   0.53645   0.00000  Uiso   1.00
H169   H     0.41583   0.31650   0.13372   0.00000  Uiso   1.00
H170   H     0.48681   0.12389   0.18269   0.00000  Uiso   1.00
H171   H     0.32346   0.41962   0.31650   0.00000  Uiso   1.00
H172   H     0.45143   0.42681   0.91303   0.00000  Uiso   1.00
H173   H     0.54305   0.87758   0.21968   0.00000  Uiso   1.00
H174   H     0.19862   0.50119   0.50178   0.00000  Uiso   1.00
H175   H     0.46847   0.51635   0.65099   0.00000  Uiso   1.00
O176   O     0.51264   0.63824   0.19225   0.00000  Uiso   1.00
O177   O     0.06076   0.45639   0.56234   0.00000  Uiso   1.00
O178   O     0.41479   0.47628   0.44612   0.00000  Uiso   1.00
N179   N     0.42020   0.73873   0.12535   0.00000  Uiso   1.00
N180   N     0.09818   0.32174   0.38912   0.00000  Uiso   1.00
N181   N     0.35044   0.33594   0.59370   0.00000  Uiso   1.00
N182   N     0.49980   0.85504   0.18698   0.00000  Uiso   1.00
N183   N     0.17779   0.43806   0.45075   0.00000  Uiso   1.00
N184   N     0.43005   0.45226   0.65533   0.00000  Uiso   1.00
