data_job_06446
_audit_creation_date              2018-12-19
_audit_creation_method            'Materials Studio'
_symmetry_space_group_name_H-M    'P1'
_symmetry_Int_Tables_number       1
_symmetry_cell_setting            triclinic
loop_
_symmetry_equiv_pos_as_xyz
  x,y,z
_cell_length_a                    12.1582
_cell_length_b                    22.2182
_cell_length_c                    22.6833
_cell_angle_alpha                 116.9350
_cell_angle_beta                  78.2598
_cell_angle_gamma                 82.7445
loop_
_atom_site_label
_atom_site_type_symbol
_atom_site_fract_x
_atom_site_fract_y
_atom_site_fract_z
_atom_site_U_iso_or_equiv
_atom_site_adp_type
_atom_site_occupancy
C1     C     0.63218   0.79302   0.26312   0.00000  Uiso   1.00
C2     C     0.70660   0.84491   0.28543   0.00000  Uiso   1.00
C3     C     0.76525   0.86949   0.24517   0.00000  Uiso   1.00
C4     C     0.82865   0.91674   0.27502   0.00000  Uiso   1.00
C5     C     0.94356   0.99397   0.29936   0.00000  Uiso   1.00
C6     C     0.68275   0.73283   0.27275   0.00000  Uiso   1.00
C7     C     0.72133   0.66317   0.22183   0.00000  Uiso   1.00
C8     C     0.76464   0.61608   0.24101   0.00000  Uiso   1.00
C9     C     0.84244   0.51930   0.24567   0.00000  Uiso   1.00
C10    C     0.51290   0.82885   0.31656   0.00000  Uiso   1.00
C11    C     0.40866   0.83992   0.30247   0.00000  Uiso   1.00
C12    C     0.30896   0.87365   0.35852   0.00000  Uiso   1.00
C13    C     0.12305   0.92597   0.43120   0.00000  Uiso   1.00
C14    C     0.64047   0.83323   0.38772   0.00000  Uiso   1.00
C15    C     0.71110   0.86675   0.35311   0.00000  Uiso   1.00
C16    C     0.77442   0.91398   0.38303   0.00000  Uiso   1.00
C17    C     0.83316   0.93863   0.34282   0.00000  Uiso   1.00
C18    C     0.68725   0.75467   0.34043   0.00000  Uiso   1.00
C19    C     0.73050   0.70767   0.35969   0.00000  Uiso   1.00
C20    C     0.76915   0.63796   0.30881   0.00000  Uiso   1.00
C21    C     0.51740   0.85070   0.38424   0.00000  Uiso   1.00
C22    C     0.41784   0.88442   0.44032   0.00000  Uiso   1.00
C23    C     0.31347   0.89554   0.42632   0.00000  Uiso   1.00
H24    H     0.62868   0.77600   0.21043   0.00000  Uiso   1.00
H25    H     0.76175   0.85256   0.19279   0.00000  Uiso   1.00
H26    H     0.71783   0.64628   0.16946   0.00000  Uiso   1.00
H27    H     0.40521   0.82301   0.25009   0.00000  Uiso   1.00
H28    H     0.91131   0.94706   0.20308   0.00000  Uiso   1.00
H29    H     0.81865   0.51210   0.15389   0.00000  Uiso   1.00
H30    H     0.15944   0.88476   0.32390   0.00000  Uiso   1.00
H31    H     0.64398   0.85024   0.44041   0.00000  Uiso   1.00
H32    H     0.77789   0.93088   0.43540   0.00000  Uiso   1.00
H33    H     0.73397   0.72459   0.41207   0.00000  Uiso   1.00
H34    H     0.42135   0.90132   0.49269   0.00000  Uiso   1.00
H35    H     0.92441   0.01062   0.39999   0.00000  Uiso   1.00
H36    H     0.83175   0.57566   0.35080   0.00000  Uiso   1.00
H37    H     0.17254   0.94831   0.52081   0.00000  Uiso   1.00
O38    O     0.00571   0.03053   0.29408   0.00000  Uiso   1.00
O39    O     0.88412   0.45988   0.22954   0.00000  Uiso   1.00
O40    O     0.01926   0.94880   0.45260   0.00000  Uiso   1.00
N41    N     0.89599   0.95096   0.25012   0.00000  Uiso   1.00
N42    N     0.80938   0.54430   0.20412   0.00000  Uiso   1.00
N43    N     0.19307   0.89269   0.36307   0.00000  Uiso   1.00
N44    N     0.90304   0.98517   0.35607   0.00000  Uiso   1.00
N45    N     0.81643   0.57851   0.31008   0.00000  Uiso   1.00
N46    N     0.20012   0.92689   0.46902   0.00000  Uiso   1.00
C47    C     0.90265   0.73757   0.53150   0.00000  Uiso   1.00
C48    C     0.99627   0.71662   0.55913   0.00000  Uiso   1.00
C49    C     0.01353   0.75777   0.62248   0.00000  Uiso   1.00
C50    C     0.10388   0.72912   0.63821   0.00000  Uiso   1.00
C51    C     0.23856   0.70686   0.68809   0.00000  Uiso   1.00
C52    C     0.96622   0.72918   0.46190   0.00000  Uiso   1.00
C53    C     0.95819   0.78089   0.44350   0.00000  Uiso   1.00
C54    C     0.02323   0.76281   0.37738   0.00000  Uiso   1.00
C55    C     0.11118   0.76004   0.27629   0.00000  Uiso   1.00
C56    C     0.83441   0.68190   0.51542   0.00000  Uiso   1.00
C57    C     0.71555   0.69384   0.54201   0.00000  Uiso   1.00
C58    C     0.66961   0.63595   0.52093   0.00000  Uiso   1.00
C59    C     0.55290   0.55976   0.50295   0.00000  Uiso   1.00
C60    C     0.03242   0.61352   0.44678   0.00000  Uiso   1.00
C61    C     0.06676   0.64924   0.51311   0.00000  Uiso   1.00
C62    C     0.15710   0.62053   0.52874   0.00000  Uiso   1.00
C63    C     0.17449   0.66162   0.59211   0.00000  Uiso   1.00
C64    C     0.03670   0.66181   0.41588   0.00000  Uiso   1.00
C65    C     0.10176   0.64365   0.34976   0.00000  Uiso   1.00
C66    C     0.09384   0.69531   0.33127   0.00000  Uiso   1.00
C67    C     0.90489   0.61452   0.46940   0.00000  Uiso   1.00
C68    C     0.85912   0.55660   0.44827   0.00000  Uiso   1.00
C69    C     0.74022   0.56846   0.47483   0.00000  Uiso   1.00
H70    H     0.84778   0.79002   0.56733   0.00000  Uiso   1.00
H71    H     0.95897   0.80991   0.65808   0.00000  Uiso   1.00
H72    H     0.90363   0.83302   0.47912   0.00000  Uiso   1.00
H73    H     0.66103   0.74599   0.57762   0.00000  Uiso   1.00
H74    H     0.11335   0.80225   0.73839   0.00000  Uiso   1.00
H75    H     0.99664   0.85098   0.36104   0.00000  Uiso   1.00
H76    H     0.48506   0.66746   0.56874   0.00000  Uiso   1.00
H77    H     0.08729   0.56106   0.41095   0.00000  Uiso   1.00
H78    H     0.21163   0.56838   0.49312   0.00000  Uiso   1.00
H79    H     0.15629   0.59150   0.31416   0.00000  Uiso   1.00
H80    H     0.91369   0.50447   0.41266   0.00000  Uiso   1.00
H81    H     0.31842   0.60623   0.60450   0.00000  Uiso   1.00
H82    H     0.20170   0.65496   0.22715   0.00000  Uiso   1.00
H83    H     0.69013   0.47143   0.43485   0.00000  Uiso   1.00
O84    O     0.29338   0.71320   0.72831   0.00000  Uiso   1.00
O85    O     0.14023   0.77713   0.23325   0.00000  Uiso   1.00
O86    O     0.46907   0.53635   0.50574   0.00000  Uiso   1.00
N87    N     0.14454   0.75511   0.69560   0.00000  Uiso   1.00
N88    N     0.03543   0.80067   0.34281   0.00000  Uiso   1.00
N89    N     0.55715   0.62909   0.53698   0.00000  Uiso   1.00
N90    N     0.25488   0.64963   0.62356   0.00000  Uiso   1.00
N91    N     0.14578   0.69519   0.27077   0.00000  Uiso   1.00
N92    N     0.66749   0.52361   0.46494   0.00000  Uiso   1.00
C93    C     0.43132   0.46766   0.20527   0.00000  Uiso   1.00
C94    C     0.55357   0.44206   0.15565   0.00000  Uiso   1.00
C95    C     0.63140   0.37918   0.13272   0.00000  Uiso   1.00
C96    C     0.73901   0.36539   0.08743   0.00000  Uiso   1.00
C97    C     0.92450   0.31844   0.01368   0.00000  Uiso   1.00
C98    C     0.42622   0.53824   0.26536   0.00000  Uiso   1.00
C99    C     0.39697   0.55621   0.33468   0.00000  Uiso   1.00
C100   C     0.39735   0.62339   0.38175   0.00000  Uiso   1.00
C101   C     0.38505   0.72578   0.47834   0.00000  Uiso   1.00
C102   C     0.35027   0.48254   0.16763   0.00000  Uiso   1.00
C103   C     0.25714   0.45369   0.15479   0.00000  Uiso   1.00
C104   C     0.19356   0.47399   0.11959   0.00000  Uiso   1.00
C105   C     0.06334   0.48989   0.06443   0.00000  Uiso   1.00
C106   C     0.48399   0.55501   0.16560   0.00000  Uiso   1.00
C107   C     0.58217   0.48951   0.13410   0.00000  Uiso   1.00
C108   C     0.68969   0.47581   0.08883   0.00000  Uiso   1.00
C109   C     0.76767   0.41291   0.06584   0.00000  Uiso   1.00
C110   C     0.45483   0.58568   0.24382   0.00000  Uiso   1.00
C111   C     0.45525   0.65285   0.29079   0.00000  Uiso   1.00
C112   C     0.42602   0.67092   0.36016   0.00000  Uiso   1.00
C113   C     0.37888   0.52998   0.14608   0.00000  Uiso   1.00
C114   C     0.31543   0.55033   0.11090   0.00000  Uiso   1.00
C115   C     0.22223   0.52152   0.09800   0.00000  Uiso   1.00
H116   H     0.40904   0.43073   0.22205   0.00000  Uiso   1.00
H117   H     0.60923   0.34248   0.14942   0.00000  Uiso   1.00
H118   H     0.37482   0.51949   0.35134   0.00000  Uiso   1.00
H119   H     0.23502   0.41698   0.17147   0.00000  Uiso   1.00
H120   H     0.84382   0.26557   0.05940   0.00000  Uiso   1.00
H121   H     0.34951   0.63882   0.48518   0.00000  Uiso   1.00
H122   H     0.05471   0.42266   0.10589   0.00000  Uiso   1.00
H123   H     0.50627   0.59195   0.14883   0.00000  Uiso   1.00
H124   H     0.71180   0.51254   0.07217   0.00000  Uiso   1.00
H125   H     0.47739   0.68955   0.27410   0.00000  Uiso   1.00
H126   H     0.33759   0.58704   0.09423   0.00000  Uiso   1.00
H127   H     0.92707   0.40359   0.99670   0.00000  Uiso   1.00
H128   H     0.43275   0.77685   0.42249   0.00000  Uiso   1.00
H129   H     0.13797   0.56069   0.04319   0.00000  Uiso   1.00
O130   O     0.01892   0.27944   0.97896   0.00000  Uiso   1.00
O131   O     0.37037   0.76914   0.53757   0.00000  Uiso   1.00
O132   O     0.98362   0.48554   0.03995   0.00000  Uiso   1.00
N133   N     0.83520   0.30894   0.05515   0.00000  Uiso   1.00
N134   N     0.37306   0.65791   0.45323   0.00000  Uiso   1.00
N135   N     0.09744   0.45583   0.09864   0.00000  Uiso   1.00
N136   N     0.88000   0.38321   0.02142   0.00000  Uiso   1.00
N137   N     0.41786   0.73218   0.41949   0.00000  Uiso   1.00
N138   N     0.14223   0.53010   0.06491   0.00000  Uiso   1.00
C139   C     0.39535   0.52997   0.73730   0.00000  Uiso   1.00
C140   C     0.49195   0.55965   0.71502   0.00000  Uiso   1.00
C141   C     0.51059   0.62430   0.75519   0.00000  Uiso   1.00
C142   C     0.60366   0.64184   0.72540   0.00000  Uiso   1.00
C143   C     0.74276   0.69483   0.70109   0.00000  Uiso   1.00
C144   C     0.45532   0.46037   0.72804   0.00000  Uiso   1.00
C145   C     0.44314   0.44156   0.77916   0.00000  Uiso   1.00
C146   C     0.50536   0.37552   0.76032   0.00000  Uiso   1.00
C147   C     0.58752   0.27437   0.75621   0.00000  Uiso   1.00
C148   C     0.32935   0.51244   0.68362   0.00000  Uiso   1.00
C149   C     0.21126   0.53738   0.69739   0.00000  Uiso   1.00
C150   C     0.16741   0.51516   0.64115   0.00000  Uiso   1.00
C151   C     0.05400   0.49485   0.56808   0.00000  Uiso   1.00
C152   C     0.52748   0.44613   0.61294   0.00000  Uiso   1.00
C153   C     0.56372   0.51411   0.64747   0.00000  Uiso   1.00
C154   C     0.65678   0.53155   0.61760   0.00000  Uiso   1.00
C155   C     0.67555   0.59622   0.65773   0.00000  Uiso   1.00
C156   C     0.52708   0.41484   0.66049   0.00000  Uiso   1.00
C157   C     0.58933   0.34881   0.64157   0.00000  Uiso   1.00
C158   C     0.57726   0.32990   0.69265   0.00000  Uiso   1.00
C159   C     0.40112   0.46690   0.61607   0.00000  Uiso   1.00
C160   C     0.35745   0.44463   0.55980   0.00000  Uiso   1.00
C161   C     0.23931   0.46954   0.57349   0.00000  Uiso   1.00
H162   H     0.33948   0.56542   0.78989   0.00000  Uiso   1.00
H163   H     0.45504   0.65953   0.80747   0.00000  Uiso   1.00
H164   H     0.38759   0.47681   0.83143   0.00000  Uiso   1.00
H165   H     0.15575   0.57262   0.74967   0.00000  Uiso   1.00
H166   H     0.61483   0.74377   0.79718   0.00000  Uiso   1.00
H167   H     0.47257   0.35850   0.84769   0.00000  Uiso   1.00
H168   H     0.98369   0.56053   0.67530   0.00000  Uiso   1.00
H169   H     0.58336   0.41068   0.56035   0.00000  Uiso   1.00
H170   H     0.71230   0.49630   0.56533   0.00000  Uiso   1.00
H171   H     0.64485   0.31358   0.58929   0.00000  Uiso   1.00
H172   H     0.41301   0.40939   0.50754   0.00000  Uiso   1.00
H173   H     0.82364   0.61129   0.60065   0.00000  Uiso   1.00
H174   H     0.68138   0.22601   0.65117   0.00000  Uiso   1.00
H175   H     0.19249   0.42804   0.47877   0.00000  Uiso   1.00
O176   O     0.79968   0.73663   0.70634   0.00000  Uiso   1.00
O177   O     0.61302   0.23116   0.77261   0.00000  Uiso   1.00
O178   O     0.97162   0.49623   0.54643   0.00000  Uiso   1.00
N179   N     0.64626   0.70085   0.75024   0.00000  Uiso   1.00
N180   N     0.51328   0.34064   0.79747   0.00000  Uiso   1.00
N181   N     0.05620   0.52951   0.63629   0.00000  Uiso   1.00
N182   N     0.75862   0.62956   0.64449   0.00000  Uiso   1.00
N183   N     0.62563   0.26935   0.69172   0.00000  Uiso   1.00
N184   N     0.16856   0.45822   0.53054   0.00000  Uiso   1.00
C185   C     0.93475   0.20554   0.46805   0.00000  Uiso   1.00
C186   C     0.05567   0.15725   0.44080   0.00000  Uiso   1.00
C187   C     0.13592   0.13530   0.37752   0.00000  Uiso   1.00
C188   C     0.24174   0.09116   0.36215   0.00000  Uiso   1.00
C189   C     0.42577   0.01945   0.31280   0.00000  Uiso   1.00
C190   C     0.92909   0.26651   0.53762   0.00000  Uiso   1.00
C191   C     0.90289   0.33641   0.55574   0.00000  Uiso   1.00
C192   C     0.90214   0.38424   0.62188   0.00000  Uiso   1.00
C193   C     0.88958   0.48216   0.72287   0.00000  Uiso   1.00
C194   C     0.85050   0.16591   0.48415   0.00000  Uiso   1.00
C195   C     0.75820   0.15124   0.45733   0.00000  Uiso   1.00
C196   C     0.69127   0.11439   0.47846   0.00000  Uiso   1.00
C197   C     0.55668   0.05611   0.49643   0.00000  Uiso   1.00
C198   C     0.97998   0.16619   0.55329   0.00000  Uiso   1.00
C199   C     0.08023   0.13588   0.48710   0.00000  Uiso   1.00
C200   C     0.18595   0.09175   0.47182   0.00000  Uiso   1.00
C201   C     0.26634   0.06974   0.40852   0.00000  Uiso   1.00
C202   C     0.95365   0.24513   0.58392   0.00000  Uiso   1.00
C203   C     0.95293   0.29287   0.65005   0.00000  Uiso   1.00
C204   C     0.92675   0.36283   0.66826   0.00000  Uiso   1.00
C205   C     0.87506   0.14453   0.53044   0.00000  Uiso   1.00
C206   C     0.80825   0.10769   0.55163   0.00000  Uiso   1.00
C207   C     0.71587   0.09297   0.52485   0.00000  Uiso   1.00
H208   H     0.91563   0.22219   0.43201   0.00000  Uiso   1.00
H209   H     0.11688   0.15186   0.34171   0.00000  Uiso   1.00
H210   H     0.88388   0.35294   0.51991   0.00000  Uiso   1.00
H211   H     0.73922   0.16779   0.42151   0.00000  Uiso   1.00
H212   H     0.35085   0.06447   0.26201   0.00000  Uiso   1.00
H213   H     0.85952   0.48847   0.63777   0.00000  Uiso   1.00
H214   H     0.55448   0.09805   0.43027   0.00000  Uiso   1.00
H215   H     0.99910   0.14954   0.58933   0.00000  Uiso   1.00
H216   H     0.20493   0.07522   0.50766   0.00000  Uiso   1.00
H217   H     0.97193   0.27631   0.68586   0.00000  Uiso   1.00
H218   H     0.82728   0.09116   0.58746   0.00000  Uiso   1.00
H219   H     0.42232   0.00228   0.39671   0.00000  Uiso   1.00
H220   H     0.93099   0.42627   0.77246   0.00000  Uiso   1.00
H221   H     0.62595   0.03586   0.56496   0.00000  Uiso   1.00
O222   O     0.52050   0.98581   0.27280   0.00000  Uiso   1.00
O223   O     0.87587   0.54208   0.76578   0.00000  Uiso   1.00
O224   O     0.47567   0.02986   0.49355   0.00000  Uiso   1.00
N225   N     0.33942   0.06002   0.30492   0.00000  Uiso   1.00
N226   N     0.88007   0.45643   0.65622   0.00000  Uiso   1.00
N227   N     0.59486   0.09144   0.46224   0.00000  Uiso   1.00
N228   N     0.37787   0.02655   0.37739   0.00000  Uiso   1.00
N229   N     0.91853   0.42297   0.72870   0.00000  Uiso   1.00
N230   N     0.63332   0.05798   0.53472   0.00000  Uiso   1.00
C231   C     0.13604   0.26273   0.79455   0.00000  Uiso   1.00
C232   C     0.20881   0.28670   0.84439   0.00000  Uiso   1.00
C233   C     0.26367   0.24683   0.86766   0.00000  Uiso   1.00
C234   C     0.32614   0.27825   0.91311   0.00000  Uiso   1.00
C235   C     0.43808   0.30499   0.98723   0.00000  Uiso   1.00
C236   C     0.19078   0.27337   0.73435   0.00000  Uiso   1.00
C237   C     0.23045   0.22230   0.66511   0.00000  Uiso   1.00
C238   C     0.27772   0.24251   0.61793   0.00000  Uiso   1.00
C239   C     0.36157   0.24858   0.52121   0.00000  Uiso   1.00
C240   C     0.01772   0.31495   0.83184   0.00000  Uiso   1.00
C241   C     0.91189   0.29883   0.84454   0.00000  Uiso   1.00
C242   C     0.81345   0.35405   0.87942   0.00000  Uiso   1.00
C243   C     0.62861   0.42466   0.93406   0.00000  Uiso   1.00
C244   C     0.14942   0.38944   0.83388   0.00000  Uiso   1.00
C245   C     0.21608   0.35552   0.86575   0.00000  Uiso   1.00
C246   C     0.27848   0.38702   0.91118   0.00000  Uiso   1.00
C247   C     0.33342   0.34720   0.93451   0.00000  Uiso   1.00
C248   C     0.19804   0.34219   0.75572   0.00000  Uiso   1.00
C249   C     0.24525   0.36249   0.70863   0.00000  Uiso   1.00
C250   C     0.28500   0.31146   0.63933   0.00000  Uiso   1.00
C251   C     0.02499   0.38377   0.85320   0.00000  Uiso   1.00
C252   C     0.92669   0.43902   0.88806   0.00000  Uiso   1.00
C253   C     0.82073   0.42300   0.90082   0.00000  Uiso   1.00
H254   H     0.13039   0.20914   0.77791   0.00000  Uiso   1.00
H255   H     0.25804   0.19356   0.85111   0.00000  Uiso   1.00
H256   H     0.22481   0.16905   0.64859   0.00000  Uiso   1.00
H257   H     0.90630   0.24557   0.82800   0.00000  Uiso   1.00
H258   H     0.40280   0.20663   0.94167   0.00000  Uiso   1.00
H259   H     0.33270   0.15494   0.51465   0.00000  Uiso   1.00
H260   H     0.66105   0.31629   0.89297   0.00000  Uiso   1.00
H261   H     0.15508   0.44303   0.85051   0.00000  Uiso   1.00
H262   H     0.28409   0.44028   0.92770   0.00000  Uiso   1.00
H263   H     0.25086   0.41576   0.72518   0.00000  Uiso   1.00
H264   H     0.93235   0.49228   0.90459   0.00000  Uiso   1.00
H265   H     0.42395   0.40688   0.00383   0.00000  Uiso   1.00
H266   H     0.35384   0.35518   0.57680   0.00000  Uiso   1.00
H267   H     0.68220   0.51654   0.95513   0.00000  Uiso   1.00
O268   O     0.49783   0.30072   0.02220   0.00000  Uiso   1.00
O269   O     0.40583   0.23290   0.46196   0.00000  Uiso   1.00
O270   O     0.52465   0.44459   0.95831   0.00000  Uiso   1.00
N271   N     0.39006   0.25414   0.94572   0.00000  Uiso   1.00
N272   N     0.32453   0.20581   0.54648   0.00000  Uiso   1.00
N273   N     0.69659   0.35666   0.90016   0.00000  Uiso   1.00
N274   N     0.40143   0.36189   0.97917   0.00000  Uiso   1.00
N275   N     0.33591   0.31356   0.57992   0.00000  Uiso   1.00
N276   N     0.70797   0.46441   0.93361   0.00000  Uiso   1.00
