data_job_02287
_audit_creation_date              2018-12-19
_audit_creation_method            'Materials Studio'
_symmetry_space_group_name_H-M    'P1'
_symmetry_Int_Tables_number       1
_symmetry_cell_setting            triclinic
loop_
_symmetry_equiv_pos_as_xyz
  x,y,z
_cell_length_a                    42.6050
_cell_length_b                    7.0063
_cell_length_c                    30.2418
_cell_angle_alpha                 90.0000
_cell_angle_beta                  102.5520
_cell_angle_gamma                 90.0000
loop_
_atom_site_label
_atom_site_type_symbol
_atom_site_fract_x
_atom_site_fract_y
_atom_site_fract_z
_atom_site_U_iso_or_equiv
_atom_site_adp_type
_atom_site_occupancy
C1     C     0.65851   0.41916   0.03795   0.00000  Uiso   1.00
C2     C     0.67972   0.50903   0.07992   0.00000  Uiso   1.00
C3     C     0.69310   0.41427   0.11986   0.00000  Uiso   1.00
C4     C     0.71178   0.52186   0.15433   0.00000  Uiso   1.00
C5     C     0.74393   0.63171   0.22032   0.00000  Uiso   1.00
C6     C     0.62734   0.53377   0.02826   0.00000  Uiso   1.00
C7     C     0.59668   0.45980   0.02477   0.00000  Uiso   1.00
C8     C     0.57127   0.58823   0.01575   0.00000  Uiso   1.00
C9     C     0.52208   0.73647   0.00152   0.00000  Uiso   1.00
C10    C     0.67490   0.46111   0.99892   0.00000  Uiso   1.00
C11    C     0.68423   0.32606   0.97076   0.00000  Uiso   1.00
C12    C     0.69886   0.39332   0.93702   0.00000  Uiso   1.00
C13    C     0.72353   0.42875   0.87723   0.00000  Uiso   1.00
C14    C     0.66790   0.77876   0.02811   0.00000  Uiso   1.00
C15    C     0.68482   0.70435   0.07458   0.00000  Uiso   1.00
C16    C     0.70349   0.81212   0.10899   0.00000  Uiso   1.00
C17    C     0.71689   0.71753   0.14898   0.00000  Uiso   1.00
C18    C     0.63243   0.72908   0.02292   0.00000  Uiso   1.00
C19    C     0.60706   0.85765   0.01390   0.00000  Uiso   1.00
C20    C     0.57637   0.78390   0.01040   0.00000  Uiso   1.00
C21    C     0.68000   0.65643   0.99358   0.00000  Uiso   1.00
C22    C     0.69462   0.72392   0.95988   0.00000  Uiso   1.00
C23    C     0.70397   0.58899   0.93167   0.00000  Uiso   1.00
H24    H     0.65454   0.26710   0.04210   0.00000  Uiso   1.00
H25    H     0.68915   0.26311   0.12398   0.00000  Uiso   1.00
H26    H     0.59274   0.30864   0.02890   0.00000  Uiso   1.00
H27    H     0.68028   0.17493   0.97490   0.00000  Uiso   1.00
H28    H     0.72975   0.34484   0.21241   0.00000  Uiso   1.00
H29    H     0.52647   0.44083   0.01192   0.00000  Uiso   1.00
H30    H     0.71107   0.15886   0.89804   0.00000  Uiso   1.00
H31    H     0.67187   0.93083   0.02396   0.00000  Uiso   1.00
H32    H     0.70743   0.96326   0.10484   0.00000  Uiso   1.00
H33    H     0.61102   0.00879   0.00977   0.00000  Uiso   1.00
H34    H     0.69856   0.87507   0.95576   0.00000  Uiso   1.00
H35    H     0.74459   0.91311   0.19688   0.00000  Uiso   1.00
H36    H     0.54131   0.00910   0.99639   0.00000  Uiso   1.00
H37    H     0.72591   0.72714   0.88250   0.00000  Uiso   1.00
O38    O     0.76024   0.63835   0.25819   0.00000  Uiso   1.00
O39    O     0.49355   0.76427   0.99514   0.00000  Uiso   1.00
O40    O     0.73574   0.39434   0.84573   0.00000  Uiso   1.00
N41    N     0.72837   0.47412   0.19766   0.00000  Uiso   1.00
N42    N     0.53832   0.56387   0.01021   0.00000  Uiso   1.00
N43    N     0.71089   0.30026   0.90373   0.00000  Uiso   1.00
N44    N     0.73635   0.77991   0.18930   0.00000  Uiso   1.00
N45    N     0.54630   0.86965   0.00186   0.00000  Uiso   1.00
N46    N     0.71888   0.60604   0.89537   0.00000  Uiso   1.00
C47    C     0.15851   0.91916   0.03795   0.00000  Uiso   1.00
C48    C     0.17972   0.00903   0.07992   0.00000  Uiso   1.00
C49    C     0.19310   0.91427   0.11986   0.00000  Uiso   1.00
C50    C     0.21178   0.02186   0.15433   0.00000  Uiso   1.00
C51    C     0.24393   0.13171   0.22032   0.00000  Uiso   1.00
C52    C     0.12734   0.03377   0.02826   0.00000  Uiso   1.00
C53    C     0.09668   0.95980   0.02477   0.00000  Uiso   1.00
C54    C     0.07127   0.08823   0.01575   0.00000  Uiso   1.00
C55    C     0.02208   0.23647   0.00152   0.00000  Uiso   1.00
C56    C     0.17490   0.96111   0.99892   0.00000  Uiso   1.00
C57    C     0.18423   0.82606   0.97076   0.00000  Uiso   1.00
C58    C     0.19886   0.89332   0.93702   0.00000  Uiso   1.00
C59    C     0.22353   0.92875   0.87723   0.00000  Uiso   1.00
C60    C     0.16790   0.27876   0.02811   0.00000  Uiso   1.00
C61    C     0.18482   0.20435   0.07458   0.00000  Uiso   1.00
C62    C     0.20349   0.31212   0.10899   0.00000  Uiso   1.00
C63    C     0.21689   0.21753   0.14898   0.00000  Uiso   1.00
C64    C     0.13243   0.22908   0.02292   0.00000  Uiso   1.00
C65    C     0.10706   0.35765   0.01390   0.00000  Uiso   1.00
C66    C     0.07637   0.28390   0.01040   0.00000  Uiso   1.00
C67    C     0.18000   0.15643   0.99358   0.00000  Uiso   1.00
C68    C     0.19462   0.22392   0.95988   0.00000  Uiso   1.00
C69    C     0.20397   0.08899   0.93167   0.00000  Uiso   1.00
H70    H     0.15454   0.76710   0.04210   0.00000  Uiso   1.00
H71    H     0.18915   0.76311   0.12398   0.00000  Uiso   1.00
H72    H     0.09274   0.80864   0.02890   0.00000  Uiso   1.00
H73    H     0.18028   0.67493   0.97490   0.00000  Uiso   1.00
H74    H     0.22975   0.84484   0.21241   0.00000  Uiso   1.00
H75    H     0.02647   0.94083   0.01192   0.00000  Uiso   1.00
H76    H     0.21107   0.65886   0.89804   0.00000  Uiso   1.00
H77    H     0.17187   0.43083   0.02396   0.00000  Uiso   1.00
H78    H     0.20743   0.46326   0.10484   0.00000  Uiso   1.00
H79    H     0.11102   0.50879   0.00977   0.00000  Uiso   1.00
H80    H     0.19856   0.37507   0.95576   0.00000  Uiso   1.00
H81    H     0.24459   0.41311   0.19688   0.00000  Uiso   1.00
H82    H     0.04131   0.50910   0.99639   0.00000  Uiso   1.00
H83    H     0.22591   0.22714   0.88250   0.00000  Uiso   1.00
O84    O     0.26024   0.13835   0.25819   0.00000  Uiso   1.00
O85    O     0.99355   0.26427   0.99514   0.00000  Uiso   1.00
O86    O     0.23574   0.89434   0.84573   0.00000  Uiso   1.00
N87    N     0.22837   0.97412   0.19766   0.00000  Uiso   1.00
N88    N     0.03832   0.06387   0.01021   0.00000  Uiso   1.00
N89    N     0.21089   0.80026   0.90373   0.00000  Uiso   1.00
N90    N     0.23635   0.27991   0.18930   0.00000  Uiso   1.00
N91    N     0.04630   0.36965   0.00186   0.00000  Uiso   1.00
N92    N     0.21888   0.10604   0.89537   0.00000  Uiso   1.00
C93    C     0.34149   0.41916   0.46205   0.00000  Uiso   1.00
C94    C     0.32028   0.50903   0.42008   0.00000  Uiso   1.00
C95    C     0.30690   0.41427   0.38014   0.00000  Uiso   1.00
C96    C     0.28822   0.52186   0.34567   0.00000  Uiso   1.00
C97    C     0.25607   0.63171   0.27968   0.00000  Uiso   1.00
C98    C     0.37266   0.53377   0.47174   0.00000  Uiso   1.00
C99    C     0.40332   0.45980   0.47523   0.00000  Uiso   1.00
C100   C     0.42873   0.58823   0.48425   0.00000  Uiso   1.00
C101   C     0.47792   0.73647   0.49848   0.00000  Uiso   1.00
C102   C     0.32510   0.46111   0.50108   0.00000  Uiso   1.00
C103   C     0.31577   0.32606   0.52924   0.00000  Uiso   1.00
C104   C     0.30114   0.39332   0.56298   0.00000  Uiso   1.00
C105   C     0.27647   0.42875   0.62277   0.00000  Uiso   1.00
C106   C     0.33210   0.77876   0.47189   0.00000  Uiso   1.00
C107   C     0.31518   0.70435   0.42542   0.00000  Uiso   1.00
C108   C     0.29651   0.81212   0.39101   0.00000  Uiso   1.00
C109   C     0.28311   0.71753   0.35102   0.00000  Uiso   1.00
C110   C     0.36757   0.72908   0.47708   0.00000  Uiso   1.00
C111   C     0.39294   0.85765   0.48610   0.00000  Uiso   1.00
C112   C     0.42363   0.78390   0.48960   0.00000  Uiso   1.00
C113   C     0.32000   0.65643   0.50642   0.00000  Uiso   1.00
C114   C     0.30538   0.72392   0.54012   0.00000  Uiso   1.00
C115   C     0.29603   0.58899   0.56833   0.00000  Uiso   1.00
H116   H     0.34546   0.26710   0.45790   0.00000  Uiso   1.00
H117   H     0.31085   0.26311   0.37602   0.00000  Uiso   1.00
H118   H     0.40726   0.30864   0.47110   0.00000  Uiso   1.00
H119   H     0.31972   0.17493   0.52510   0.00000  Uiso   1.00
H120   H     0.27025   0.34484   0.28759   0.00000  Uiso   1.00
H121   H     0.47353   0.44083   0.48808   0.00000  Uiso   1.00
H122   H     0.28893   0.15886   0.60196   0.00000  Uiso   1.00
H123   H     0.32813   0.93083   0.47604   0.00000  Uiso   1.00
H124   H     0.29257   0.96326   0.39516   0.00000  Uiso   1.00
H125   H     0.38898   0.00879   0.49023   0.00000  Uiso   1.00
H126   H     0.30144   0.87507   0.54424   0.00000  Uiso   1.00
H127   H     0.25541   0.91311   0.30312   0.00000  Uiso   1.00
H128   H     0.45869   0.00910   0.50361   0.00000  Uiso   1.00
H129   H     0.27409   0.72714   0.61750   0.00000  Uiso   1.00
O130   O     0.23976   0.63835   0.24181   0.00000  Uiso   1.00
O131   O     0.50645   0.76427   0.50486   0.00000  Uiso   1.00
O132   O     0.26426   0.39434   0.65427   0.00000  Uiso   1.00
N133   N     0.27163   0.47412   0.30234   0.00000  Uiso   1.00
N134   N     0.46168   0.56387   0.48979   0.00000  Uiso   1.00
N135   N     0.28911   0.30026   0.59627   0.00000  Uiso   1.00
N136   N     0.26365   0.77991   0.31070   0.00000  Uiso   1.00
N137   N     0.45370   0.86965   0.49814   0.00000  Uiso   1.00
N138   N     0.28112   0.60604   0.60463   0.00000  Uiso   1.00
C139   C     0.84149   0.91916   0.46205   0.00000  Uiso   1.00
C140   C     0.82028   0.00903   0.42008   0.00000  Uiso   1.00
C141   C     0.80690   0.91427   0.38014   0.00000  Uiso   1.00
C142   C     0.78822   0.02186   0.34567   0.00000  Uiso   1.00
C143   C     0.75607   0.13171   0.27968   0.00000  Uiso   1.00
C144   C     0.87266   0.03377   0.47174   0.00000  Uiso   1.00
C145   C     0.90332   0.95980   0.47523   0.00000  Uiso   1.00
C146   C     0.92873   0.08823   0.48425   0.00000  Uiso   1.00
C147   C     0.97792   0.23647   0.49848   0.00000  Uiso   1.00
C148   C     0.82510   0.96111   0.50108   0.00000  Uiso   1.00
C149   C     0.81577   0.82606   0.52924   0.00000  Uiso   1.00
C150   C     0.80114   0.89332   0.56298   0.00000  Uiso   1.00
C151   C     0.77647   0.92875   0.62277   0.00000  Uiso   1.00
C152   C     0.83210   0.27876   0.47189   0.00000  Uiso   1.00
C153   C     0.81518   0.20435   0.42542   0.00000  Uiso   1.00
C154   C     0.79651   0.31212   0.39101   0.00000  Uiso   1.00
C155   C     0.78311   0.21753   0.35102   0.00000  Uiso   1.00
C156   C     0.86757   0.22908   0.47708   0.00000  Uiso   1.00
C157   C     0.89294   0.35765   0.48610   0.00000  Uiso   1.00
C158   C     0.92363   0.28390   0.48960   0.00000  Uiso   1.00
C159   C     0.82000   0.15643   0.50642   0.00000  Uiso   1.00
C160   C     0.80538   0.22392   0.54012   0.00000  Uiso   1.00
C161   C     0.79603   0.08899   0.56833   0.00000  Uiso   1.00
H162   H     0.84546   0.76710   0.45790   0.00000  Uiso   1.00
H163   H     0.81085   0.76311   0.37602   0.00000  Uiso   1.00
H164   H     0.90726   0.80864   0.47110   0.00000  Uiso   1.00
H165   H     0.81972   0.67493   0.52510   0.00000  Uiso   1.00
H166   H     0.77025   0.84484   0.28759   0.00000  Uiso   1.00
H167   H     0.97353   0.94083   0.48808   0.00000  Uiso   1.00
H168   H     0.78893   0.65886   0.60196   0.00000  Uiso   1.00
H169   H     0.82813   0.43083   0.47604   0.00000  Uiso   1.00
H170   H     0.79257   0.46326   0.39516   0.00000  Uiso   1.00
H171   H     0.88898   0.50879   0.49023   0.00000  Uiso   1.00
H172   H     0.80144   0.37507   0.54424   0.00000  Uiso   1.00
H173   H     0.75541   0.41311   0.30312   0.00000  Uiso   1.00
H174   H     0.95869   0.50910   0.50361   0.00000  Uiso   1.00
H175   H     0.77409   0.22714   0.61750   0.00000  Uiso   1.00
O176   O     0.73976   0.13835   0.24181   0.00000  Uiso   1.00
O177   O     0.00645   0.26427   0.50486   0.00000  Uiso   1.00
O178   O     0.76426   0.89434   0.65427   0.00000  Uiso   1.00
N179   N     0.77163   0.97412   0.30234   0.00000  Uiso   1.00
N180   N     0.96168   0.06387   0.48979   0.00000  Uiso   1.00
N181   N     0.78911   0.80026   0.59627   0.00000  Uiso   1.00
N182   N     0.76365   0.27991   0.31070   0.00000  Uiso   1.00
N183   N     0.95370   0.36965   0.49814   0.00000  Uiso   1.00
N184   N     0.78112   0.10604   0.60463   0.00000  Uiso   1.00
C185   C     0.34149   0.58084   0.96205   0.00000  Uiso   1.00
C186   C     0.32028   0.49097   0.92008   0.00000  Uiso   1.00
C187   C     0.30690   0.58573   0.88014   0.00000  Uiso   1.00
C188   C     0.28822   0.47814   0.84567   0.00000  Uiso   1.00
C189   C     0.25607   0.36829   0.77968   0.00000  Uiso   1.00
C190   C     0.37266   0.46623   0.97174   0.00000  Uiso   1.00
C191   C     0.40332   0.54020   0.97523   0.00000  Uiso   1.00
C192   C     0.42873   0.41177   0.98425   0.00000  Uiso   1.00
C193   C     0.47792   0.26353   0.99848   0.00000  Uiso   1.00
C194   C     0.32510   0.53889   0.00108   0.00000  Uiso   1.00
C195   C     0.31577   0.67394   0.02924   0.00000  Uiso   1.00
C196   C     0.30114   0.60668   0.06298   0.00000  Uiso   1.00
C197   C     0.27647   0.57125   0.12277   0.00000  Uiso   1.00
C198   C     0.33210   0.22124   0.97189   0.00000  Uiso   1.00
C199   C     0.31518   0.29565   0.92542   0.00000  Uiso   1.00
C200   C     0.29651   0.18788   0.89101   0.00000  Uiso   1.00
C201   C     0.28311   0.28247   0.85102   0.00000  Uiso   1.00
C202   C     0.36757   0.27092   0.97708   0.00000  Uiso   1.00
C203   C     0.39294   0.14235   0.98610   0.00000  Uiso   1.00
C204   C     0.42363   0.21610   0.98960   0.00000  Uiso   1.00
C205   C     0.32000   0.34357   0.00642   0.00000  Uiso   1.00
C206   C     0.30538   0.27608   0.04012   0.00000  Uiso   1.00
C207   C     0.29603   0.41101   0.06833   0.00000  Uiso   1.00
H208   H     0.34546   0.73290   0.95790   0.00000  Uiso   1.00
H209   H     0.31085   0.73689   0.87602   0.00000  Uiso   1.00
H210   H     0.40726   0.69136   0.97110   0.00000  Uiso   1.00
H211   H     0.31972   0.82507   0.02510   0.00000  Uiso   1.00
H212   H     0.27025   0.65516   0.78759   0.00000  Uiso   1.00
H213   H     0.47353   0.55917   0.98808   0.00000  Uiso   1.00
H214   H     0.28893   0.84114   0.10196   0.00000  Uiso   1.00
H215   H     0.32813   0.06917   0.97604   0.00000  Uiso   1.00
H216   H     0.29257   0.03674   0.89516   0.00000  Uiso   1.00
H217   H     0.38898   0.99121   0.99023   0.00000  Uiso   1.00
H218   H     0.30144   0.12493   0.04424   0.00000  Uiso   1.00
H219   H     0.25541   0.08689   0.80312   0.00000  Uiso   1.00
H220   H     0.45869   0.99090   0.00361   0.00000  Uiso   1.00
H221   H     0.27409   0.27286   0.11750   0.00000  Uiso   1.00
O222   O     0.23976   0.36165   0.74181   0.00000  Uiso   1.00
O223   O     0.50645   0.23573   0.00486   0.00000  Uiso   1.00
O224   O     0.26426   0.60566   0.15427   0.00000  Uiso   1.00
N225   N     0.27163   0.52588   0.80234   0.00000  Uiso   1.00
N226   N     0.46168   0.43613   0.98979   0.00000  Uiso   1.00
N227   N     0.28911   0.69974   0.09627   0.00000  Uiso   1.00
N228   N     0.26365   0.22009   0.81070   0.00000  Uiso   1.00
N229   N     0.45370   0.13035   0.99814   0.00000  Uiso   1.00
N230   N     0.28112   0.39396   0.10463   0.00000  Uiso   1.00
C231   C     0.84149   0.08084   0.96205   0.00000  Uiso   1.00
C232   C     0.82028   0.99097   0.92008   0.00000  Uiso   1.00
C233   C     0.80690   0.08573   0.88014   0.00000  Uiso   1.00
C234   C     0.78822   0.97814   0.84567   0.00000  Uiso   1.00
C235   C     0.75607   0.86829   0.77968   0.00000  Uiso   1.00
C236   C     0.87266   0.96623   0.97174   0.00000  Uiso   1.00
C237   C     0.90332   0.04020   0.97523   0.00000  Uiso   1.00
C238   C     0.92873   0.91177   0.98425   0.00000  Uiso   1.00
C239   C     0.97792   0.76353   0.99848   0.00000  Uiso   1.00
C240   C     0.82510   0.03889   0.00108   0.00000  Uiso   1.00
C241   C     0.81577   0.17394   0.02924   0.00000  Uiso   1.00
C242   C     0.80114   0.10668   0.06298   0.00000  Uiso   1.00
C243   C     0.77647   0.07125   0.12277   0.00000  Uiso   1.00
C244   C     0.83210   0.72124   0.97189   0.00000  Uiso   1.00
C245   C     0.81518   0.79565   0.92542   0.00000  Uiso   1.00
C246   C     0.79651   0.68788   0.89101   0.00000  Uiso   1.00
C247   C     0.78311   0.78247   0.85102   0.00000  Uiso   1.00
C248   C     0.86757   0.77092   0.97708   0.00000  Uiso   1.00
C249   C     0.89294   0.64235   0.98610   0.00000  Uiso   1.00
C250   C     0.92363   0.71610   0.98960   0.00000  Uiso   1.00
C251   C     0.82000   0.84357   0.00642   0.00000  Uiso   1.00
C252   C     0.80538   0.77608   0.04012   0.00000  Uiso   1.00
C253   C     0.79603   0.91101   0.06833   0.00000  Uiso   1.00
H254   H     0.84546   0.23290   0.95790   0.00000  Uiso   1.00
H255   H     0.81085   0.23689   0.87602   0.00000  Uiso   1.00
H256   H     0.90726   0.19136   0.97110   0.00000  Uiso   1.00
H257   H     0.81972   0.32507   0.02510   0.00000  Uiso   1.00
H258   H     0.77025   0.15516   0.78759   0.00000  Uiso   1.00
H259   H     0.97353   0.05917   0.98808   0.00000  Uiso   1.00
H260   H     0.78893   0.34114   0.10196   0.00000  Uiso   1.00
H261   H     0.82813   0.56917   0.97604   0.00000  Uiso   1.00
H262   H     0.79257   0.53674   0.89516   0.00000  Uiso   1.00
H263   H     0.88898   0.49121   0.99023   0.00000  Uiso   1.00
H264   H     0.80144   0.62493   0.04424   0.00000  Uiso   1.00
H265   H     0.75541   0.58689   0.80312   0.00000  Uiso   1.00
H266   H     0.95869   0.49090   0.00361   0.00000  Uiso   1.00
H267   H     0.77409   0.77286   0.11750   0.00000  Uiso   1.00
O268   O     0.73976   0.86165   0.74181   0.00000  Uiso   1.00
O269   O     0.00645   0.73573   0.00486   0.00000  Uiso   1.00
O270   O     0.76426   0.10566   0.15427   0.00000  Uiso   1.00
N271   N     0.77163   0.02588   0.80234   0.00000  Uiso   1.00
N272   N     0.96168   0.93613   0.98979   0.00000  Uiso   1.00
N273   N     0.78911   0.19974   0.09627   0.00000  Uiso   1.00
N274   N     0.76365   0.72009   0.81070   0.00000  Uiso   1.00
N275   N     0.95370   0.63035   0.99814   0.00000  Uiso   1.00
N276   N     0.78112   0.89396   0.10463   0.00000  Uiso   1.00
C277   C     0.65851   0.58084   0.53795   0.00000  Uiso   1.00
C278   C     0.67972   0.49097   0.57992   0.00000  Uiso   1.00
C279   C     0.69310   0.58573   0.61986   0.00000  Uiso   1.00
C280   C     0.71178   0.47814   0.65433   0.00000  Uiso   1.00
C281   C     0.74393   0.36829   0.72032   0.00000  Uiso   1.00
C282   C     0.62734   0.46623   0.52826   0.00000  Uiso   1.00
C283   C     0.59668   0.54020   0.52477   0.00000  Uiso   1.00
C284   C     0.57127   0.41177   0.51575   0.00000  Uiso   1.00
C285   C     0.52208   0.26353   0.50152   0.00000  Uiso   1.00
C286   C     0.67490   0.53889   0.49892   0.00000  Uiso   1.00
C287   C     0.68423   0.67394   0.47076   0.00000  Uiso   1.00
C288   C     0.69886   0.60668   0.43702   0.00000  Uiso   1.00
C289   C     0.72353   0.57125   0.37723   0.00000  Uiso   1.00
C290   C     0.66790   0.22124   0.52811   0.00000  Uiso   1.00
C291   C     0.68482   0.29565   0.57458   0.00000  Uiso   1.00
C292   C     0.70349   0.18788   0.60899   0.00000  Uiso   1.00
C293   C     0.71689   0.28247   0.64898   0.00000  Uiso   1.00
C294   C     0.63243   0.27092   0.52292   0.00000  Uiso   1.00
C295   C     0.60706   0.14235   0.51390   0.00000  Uiso   1.00
C296   C     0.57637   0.21610   0.51040   0.00000  Uiso   1.00
C297   C     0.68000   0.34357   0.49358   0.00000  Uiso   1.00
C298   C     0.69462   0.27608   0.45988   0.00000  Uiso   1.00
C299   C     0.70397   0.41101   0.43167   0.00000  Uiso   1.00
H300   H     0.65454   0.73290   0.54210   0.00000  Uiso   1.00
H301   H     0.68915   0.73689   0.62398   0.00000  Uiso   1.00
H302   H     0.59274   0.69136   0.52890   0.00000  Uiso   1.00
H303   H     0.68028   0.82507   0.47490   0.00000  Uiso   1.00
H304   H     0.72975   0.65516   0.71241   0.00000  Uiso   1.00
H305   H     0.52647   0.55917   0.51192   0.00000  Uiso   1.00
H306   H     0.71107   0.84114   0.39804   0.00000  Uiso   1.00
H307   H     0.67187   0.06917   0.52396   0.00000  Uiso   1.00
H308   H     0.70743   0.03674   0.60484   0.00000  Uiso   1.00
H309   H     0.61102   0.99121   0.50977   0.00000  Uiso   1.00
H310   H     0.69856   0.12493   0.45576   0.00000  Uiso   1.00
H311   H     0.74459   0.08689   0.69688   0.00000  Uiso   1.00
H312   H     0.54131   0.99090   0.49639   0.00000  Uiso   1.00
H313   H     0.72591   0.27286   0.38250   0.00000  Uiso   1.00
O314   O     0.76024   0.36165   0.75819   0.00000  Uiso   1.00
O315   O     0.49355   0.23573   0.49514   0.00000  Uiso   1.00
O316   O     0.73574   0.60566   0.34573   0.00000  Uiso   1.00
N317   N     0.72837   0.52588   0.69766   0.00000  Uiso   1.00
N318   N     0.53832   0.43613   0.51021   0.00000  Uiso   1.00
N319   N     0.71089   0.69974   0.40373   0.00000  Uiso   1.00
N320   N     0.73635   0.22009   0.68930   0.00000  Uiso   1.00
N321   N     0.54630   0.13035   0.50186   0.00000  Uiso   1.00
N322   N     0.71888   0.39396   0.39537   0.00000  Uiso   1.00
C323   C     0.15851   0.08084   0.53795   0.00000  Uiso   1.00
C324   C     0.17972   0.99097   0.57992   0.00000  Uiso   1.00
C325   C     0.19310   0.08573   0.61986   0.00000  Uiso   1.00
C326   C     0.21178   0.97814   0.65433   0.00000  Uiso   1.00
C327   C     0.24393   0.86829   0.72032   0.00000  Uiso   1.00
C328   C     0.12734   0.96623   0.52826   0.00000  Uiso   1.00
C329   C     0.09668   0.04020   0.52477   0.00000  Uiso   1.00
C330   C     0.07127   0.91177   0.51575   0.00000  Uiso   1.00
C331   C     0.02208   0.76353   0.50152   0.00000  Uiso   1.00
C332   C     0.17490   0.03889   0.49892   0.00000  Uiso   1.00
C333   C     0.18423   0.17394   0.47076   0.00000  Uiso   1.00
C334   C     0.19886   0.10668   0.43702   0.00000  Uiso   1.00
C335   C     0.22353   0.07125   0.37723   0.00000  Uiso   1.00
C336   C     0.16790   0.72124   0.52811   0.00000  Uiso   1.00
C337   C     0.18482   0.79565   0.57458   0.00000  Uiso   1.00
C338   C     0.20349   0.68788   0.60899   0.00000  Uiso   1.00
C339   C     0.21689   0.78247   0.64898   0.00000  Uiso   1.00
C340   C     0.13243   0.77092   0.52292   0.00000  Uiso   1.00
C341   C     0.10706   0.64235   0.51390   0.00000  Uiso   1.00
C342   C     0.07637   0.71610   0.51040   0.00000  Uiso   1.00
C343   C     0.18000   0.84357   0.49358   0.00000  Uiso   1.00
C344   C     0.19462   0.77608   0.45988   0.00000  Uiso   1.00
C345   C     0.20397   0.91101   0.43167   0.00000  Uiso   1.00
H346   H     0.15454   0.23290   0.54210   0.00000  Uiso   1.00
H347   H     0.18915   0.23689   0.62398   0.00000  Uiso   1.00
H348   H     0.09274   0.19136   0.52890   0.00000  Uiso   1.00
H349   H     0.18028   0.32507   0.47490   0.00000  Uiso   1.00
H350   H     0.22975   0.15516   0.71241   0.00000  Uiso   1.00
H351   H     0.02647   0.05917   0.51192   0.00000  Uiso   1.00
H352   H     0.21107   0.34114   0.39804   0.00000  Uiso   1.00
H353   H     0.17187   0.56917   0.52396   0.00000  Uiso   1.00
H354   H     0.20743   0.53674   0.60484   0.00000  Uiso   1.00
H355   H     0.11102   0.49121   0.50977   0.00000  Uiso   1.00
H356   H     0.19856   0.62493   0.45576   0.00000  Uiso   1.00
H357   H     0.24459   0.58689   0.69688   0.00000  Uiso   1.00
H358   H     0.04131   0.49090   0.49639   0.00000  Uiso   1.00
H359   H     0.22591   0.77286   0.38250   0.00000  Uiso   1.00
O360   O     0.26024   0.86165   0.75819   0.00000  Uiso   1.00
O361   O     0.99355   0.73573   0.49514   0.00000  Uiso   1.00
O362   O     0.23574   0.10566   0.34573   0.00000  Uiso   1.00
N363   N     0.22837   0.02588   0.69766   0.00000  Uiso   1.00
N364   N     0.03832   0.93613   0.51021   0.00000  Uiso   1.00
N365   N     0.21089   0.19974   0.40373   0.00000  Uiso   1.00
N366   N     0.23635   0.72009   0.68930   0.00000  Uiso   1.00
N367   N     0.04630   0.63035   0.50186   0.00000  Uiso   1.00
N368   N     0.21888   0.89396   0.39537   0.00000  Uiso   1.00
