data_job_03311
_audit_creation_date              2018-12-19
_audit_creation_method            'Materials Studio'
_symmetry_space_group_name_H-M    'P1'
_symmetry_Int_Tables_number       1
_symmetry_cell_setting            triclinic
loop_
_symmetry_equiv_pos_as_xyz
  x,y,z
_cell_length_a                    28.7300
_cell_length_b                    10.5547
_cell_length_c                    16.3422
_cell_angle_alpha                 90.0000
_cell_angle_beta                  90.0000
_cell_angle_gamma                 90.0000
loop_
_atom_site_label
_atom_site_type_symbol
_atom_site_fract_x
_atom_site_fract_y
_atom_site_fract_z
_atom_site_U_iso_or_equiv
_atom_site_adp_type
_atom_site_occupancy
C1     C     0.82280   0.12814   0.76893   0.00000  Uiso   1.00
C2     C     0.82258   0.19338   0.68567   0.00000  Uiso   1.00
C3     C     0.78409   0.24728   0.64801   0.00000  Uiso   1.00
C4     C     0.79109   0.30236   0.57185   0.00000  Uiso   1.00
C5     C     0.78407   0.40344   0.44819   0.00000  Uiso   1.00
C6     C     0.84197   0.99535   0.75426   0.00000  Uiso   1.00
C7     C     0.81977   0.88275   0.77428   0.00000  Uiso   1.00
C8     C     0.84310   0.77113   0.75586   0.00000  Uiso   1.00
C9     C     0.86620   0.56476   0.73875   0.00000  Uiso   1.00
C10    C     0.85927   0.19704   0.82006   0.00000  Uiso   1.00
C11    C     0.85163   0.25400   0.89542   0.00000  Uiso   1.00
C12    C     0.88952   0.31216   0.93241   0.00000  Uiso   1.00
C13    C     0.93948   0.41895   0.01746   0.00000  Uiso   1.00
C14    C     0.90370   0.13012   0.70065   0.00000  Uiso   1.00
C15    C     0.86653   0.19445   0.64859   0.00000  Uiso   1.00
C16    C     0.87359   0.24947   0.57247   0.00000  Uiso   1.00
C17    C     0.83511   0.30344   0.53470   0.00000  Uiso   1.00
C18    C     0.88591   0.99642   0.71718   0.00000  Uiso   1.00
C19    C     0.90928   0.88494   0.69873   0.00000  Uiso   1.00
C20    C     0.88712   0.77220   0.71871   0.00000  Uiso   1.00
C21    C     0.90321   0.19812   0.78298   0.00000  Uiso   1.00
C22    C     0.94113   0.25619   0.81987   0.00000  Uiso   1.00
C23    C     0.93354   0.31323   0.89526   0.00000  Uiso   1.00
H24    H     0.78859   0.12730   0.79781   0.00000  Uiso   1.00
H25    H     0.75008   0.24642   0.67673   0.00000  Uiso   1.00
H26    H     0.78577   0.88195   0.80298   0.00000  Uiso   1.00
H27    H     0.81762   0.25315   0.92409   0.00000  Uiso   1.00
H28    H     0.72677   0.37892   0.52612   0.00000  Uiso   1.00
H29    H     0.80203   0.61042   0.79236   0.00000  Uiso   1.00
H30    H     0.86918   0.39315   0.04776   0.00000  Uiso   1.00
H31    H     0.93791   0.13096   0.67178   0.00000  Uiso   1.00
H32    H     0.90760   0.25029   0.54378   0.00000  Uiso   1.00
H33    H     0.94328   0.88581   0.67004   0.00000  Uiso   1.00
H34    H     0.97513   0.25701   0.79115   0.00000  Uiso   1.00
H35    H     0.85462   0.38205   0.41822   0.00000  Uiso   1.00
H36    H     0.92987   0.61355   0.68446   0.00000  Uiso   1.00
H37    H     0.99703   0.39628   0.93985   0.00000  Uiso   1.00
O38    O     0.76806   0.45888   0.39023   0.00000  Uiso   1.00
O39    O     0.86679   0.45064   0.73955   0.00000  Uiso   1.00
O40    O     0.95490   0.47757   0.07461   0.00000  Uiso   1.00
N41    N     0.76102   0.36330   0.51830   0.00000  Uiso   1.00
N42    N     0.83138   0.64480   0.76721   0.00000  Uiso   1.00
N43    N     0.89416   0.37656   0.00599   0.00000  Uiso   1.00
N44    N     0.82981   0.36499   0.46024   0.00000  Uiso   1.00
N45    N     0.90017   0.64648   0.70915   0.00000  Uiso   1.00
N46    N     0.96295   0.37825   0.94793   0.00000  Uiso   1.00
C47    C     0.67720   0.37186   0.26893   0.00000  Uiso   1.00
C48    C     0.67742   0.30662   0.18567   0.00000  Uiso   1.00
C49    C     0.71591   0.25272   0.14801   0.00000  Uiso   1.00
C50    C     0.70891   0.19764   0.07185   0.00000  Uiso   1.00
C51    C     0.71593   0.09656   0.94819   0.00000  Uiso   1.00
C52    C     0.65803   0.50465   0.25426   0.00000  Uiso   1.00
C53    C     0.68023   0.61725   0.27428   0.00000  Uiso   1.00
C54    C     0.65690   0.72887   0.25586   0.00000  Uiso   1.00
C55    C     0.63380   0.93524   0.23875   0.00000  Uiso   1.00
C56    C     0.64073   0.30296   0.32006   0.00000  Uiso   1.00
C57    C     0.64837   0.24600   0.39542   0.00000  Uiso   1.00
C58    C     0.61048   0.18784   0.43241   0.00000  Uiso   1.00
C59    C     0.56052   0.08105   0.51746   0.00000  Uiso   1.00
C60    C     0.59630   0.36988   0.20065   0.00000  Uiso   1.00
C61    C     0.63347   0.30555   0.14859   0.00000  Uiso   1.00
C62    C     0.62641   0.25053   0.07247   0.00000  Uiso   1.00
C63    C     0.66489   0.19656   0.03470   0.00000  Uiso   1.00
C64    C     0.61409   0.50358   0.21718   0.00000  Uiso   1.00
C65    C     0.59072   0.61506   0.19873   0.00000  Uiso   1.00
C66    C     0.61288   0.72780   0.21871   0.00000  Uiso   1.00
C67    C     0.59679   0.30188   0.28298   0.00000  Uiso   1.00
C68    C     0.55887   0.24381   0.31987   0.00000  Uiso   1.00
C69    C     0.56646   0.18677   0.39526   0.00000  Uiso   1.00
H70    H     0.71141   0.37270   0.29781   0.00000  Uiso   1.00
H71    H     0.74992   0.25358   0.17673   0.00000  Uiso   1.00
H72    H     0.71423   0.61805   0.30298   0.00000  Uiso   1.00
H73    H     0.68238   0.24685   0.42409   0.00000  Uiso   1.00
H74    H     0.77323   0.12108   0.02612   0.00000  Uiso   1.00
H75    H     0.69797   0.88958   0.29236   0.00000  Uiso   1.00
H76    H     0.63082   0.10685   0.54776   0.00000  Uiso   1.00
H77    H     0.56209   0.36904   0.17178   0.00000  Uiso   1.00
H78    H     0.59240   0.24971   0.04378   0.00000  Uiso   1.00
H79    H     0.55672   0.61419   0.17004   0.00000  Uiso   1.00
H80    H     0.52487   0.24299   0.29115   0.00000  Uiso   1.00
H81    H     0.64538   0.11795   0.91822   0.00000  Uiso   1.00
H82    H     0.57013   0.88645   0.18446   0.00000  Uiso   1.00
H83    H     0.50297   0.10372   0.43985   0.00000  Uiso   1.00
O84    O     0.73194   0.04112   0.89023   0.00000  Uiso   1.00
O85    O     0.63321   0.04936   0.23955   0.00000  Uiso   1.00
O86    O     0.54510   0.02243   0.57461   0.00000  Uiso   1.00
N87    N     0.73898   0.13670   0.01830   0.00000  Uiso   1.00
N88    N     0.66862   0.85520   0.26721   0.00000  Uiso   1.00
N89    N     0.60584   0.12344   0.50599   0.00000  Uiso   1.00
N90    N     0.67019   0.13501   0.96024   0.00000  Uiso   1.00
N91    N     0.59983   0.85352   0.20915   0.00000  Uiso   1.00
N92    N     0.53705   0.12175   0.44793   0.00000  Uiso   1.00
C93    C     0.17720   0.12814   0.73107   0.00000  Uiso   1.00
C94    C     0.17742   0.19338   0.81433   0.00000  Uiso   1.00
C95    C     0.21591   0.24728   0.85199   0.00000  Uiso   1.00
C96    C     0.20891   0.30236   0.92815   0.00000  Uiso   1.00
C97    C     0.21593   0.40344   0.05181   0.00000  Uiso   1.00
C98    C     0.15803   0.99535   0.74574   0.00000  Uiso   1.00
C99    C     0.18023   0.88275   0.72572   0.00000  Uiso   1.00
C100   C     0.15690   0.77113   0.74414   0.00000  Uiso   1.00
C101   C     0.13380   0.56476   0.76125   0.00000  Uiso   1.00
C102   C     0.14073   0.19704   0.67994   0.00000  Uiso   1.00
C103   C     0.14837   0.25400   0.60458   0.00000  Uiso   1.00
C104   C     0.11048   0.31216   0.56759   0.00000  Uiso   1.00
C105   C     0.06052   0.41895   0.48254   0.00000  Uiso   1.00
C106   C     0.09630   0.13012   0.79935   0.00000  Uiso   1.00
C107   C     0.13347   0.19445   0.85141   0.00000  Uiso   1.00
C108   C     0.12641   0.24947   0.92753   0.00000  Uiso   1.00
C109   C     0.16489   0.30344   0.96530   0.00000  Uiso   1.00
C110   C     0.11409   0.99642   0.78282   0.00000  Uiso   1.00
C111   C     0.09072   0.88494   0.80127   0.00000  Uiso   1.00
C112   C     0.11288   0.77220   0.78129   0.00000  Uiso   1.00
C113   C     0.09679   0.19812   0.71702   0.00000  Uiso   1.00
C114   C     0.05887   0.25619   0.68013   0.00000  Uiso   1.00
C115   C     0.06646   0.31323   0.60474   0.00000  Uiso   1.00
H116   H     0.21141   0.12730   0.70219   0.00000  Uiso   1.00
H117   H     0.24992   0.24642   0.82327   0.00000  Uiso   1.00
H118   H     0.21423   0.88195   0.69702   0.00000  Uiso   1.00
H119   H     0.18238   0.25315   0.57591   0.00000  Uiso   1.00
H120   H     0.27323   0.37892   0.97388   0.00000  Uiso   1.00
H121   H     0.19797   0.61042   0.70764   0.00000  Uiso   1.00
H122   H     0.13082   0.39315   0.45224   0.00000  Uiso   1.00
H123   H     0.06209   0.13096   0.82822   0.00000  Uiso   1.00
H124   H     0.09240   0.25029   0.95622   0.00000  Uiso   1.00
H125   H     0.05672   0.88581   0.82996   0.00000  Uiso   1.00
H126   H     0.02487   0.25701   0.70885   0.00000  Uiso   1.00
H127   H     0.14538   0.38205   0.08178   0.00000  Uiso   1.00
H128   H     0.07013   0.61355   0.81554   0.00000  Uiso   1.00
H129   H     0.00297   0.39628   0.56015   0.00000  Uiso   1.00
O130   O     0.23194   0.45888   0.10977   0.00000  Uiso   1.00
O131   O     0.13321   0.45064   0.76045   0.00000  Uiso   1.00
O132   O     0.04510   0.47757   0.42539   0.00000  Uiso   1.00
N133   N     0.23898   0.36330   0.98170   0.00000  Uiso   1.00
N134   N     0.16862   0.64480   0.73279   0.00000  Uiso   1.00
N135   N     0.10584   0.37656   0.49401   0.00000  Uiso   1.00
N136   N     0.17019   0.36499   0.03976   0.00000  Uiso   1.00
N137   N     0.09983   0.64648   0.79085   0.00000  Uiso   1.00
N138   N     0.03705   0.37825   0.55207   0.00000  Uiso   1.00
C139   C     0.32280   0.37186   0.23107   0.00000  Uiso   1.00
C140   C     0.32258   0.30662   0.31433   0.00000  Uiso   1.00
C141   C     0.28409   0.25272   0.35199   0.00000  Uiso   1.00
C142   C     0.29109   0.19764   0.42815   0.00000  Uiso   1.00
C143   C     0.28407   0.09656   0.55181   0.00000  Uiso   1.00
C144   C     0.34197   0.50465   0.24574   0.00000  Uiso   1.00
C145   C     0.31977   0.61725   0.22572   0.00000  Uiso   1.00
C146   C     0.34310   0.72887   0.24414   0.00000  Uiso   1.00
C147   C     0.36620   0.93524   0.26125   0.00000  Uiso   1.00
C148   C     0.35927   0.30296   0.17994   0.00000  Uiso   1.00
C149   C     0.35163   0.24600   0.10458   0.00000  Uiso   1.00
C150   C     0.38952   0.18784   0.06759   0.00000  Uiso   1.00
C151   C     0.43948   0.08105   0.98254   0.00000  Uiso   1.00
C152   C     0.40370   0.36988   0.29935   0.00000  Uiso   1.00
C153   C     0.36653   0.30555   0.35141   0.00000  Uiso   1.00
C154   C     0.37359   0.25053   0.42753   0.00000  Uiso   1.00
C155   C     0.33511   0.19656   0.46530   0.00000  Uiso   1.00
C156   C     0.38591   0.50358   0.28282   0.00000  Uiso   1.00
C157   C     0.40928   0.61506   0.30127   0.00000  Uiso   1.00
C158   C     0.38712   0.72780   0.28129   0.00000  Uiso   1.00
C159   C     0.40321   0.30188   0.21702   0.00000  Uiso   1.00
C160   C     0.44113   0.24381   0.18013   0.00000  Uiso   1.00
C161   C     0.43354   0.18677   0.10474   0.00000  Uiso   1.00
H162   H     0.28859   0.37270   0.20219   0.00000  Uiso   1.00
H163   H     0.25008   0.25358   0.32327   0.00000  Uiso   1.00
H164   H     0.28577   0.61805   0.19702   0.00000  Uiso   1.00
H165   H     0.31762   0.24685   0.07591   0.00000  Uiso   1.00
H166   H     0.22677   0.12108   0.47388   0.00000  Uiso   1.00
H167   H     0.30203   0.88958   0.20764   0.00000  Uiso   1.00
H168   H     0.36918   0.10685   0.95224   0.00000  Uiso   1.00
H169   H     0.43791   0.36904   0.32822   0.00000  Uiso   1.00
H170   H     0.40760   0.24971   0.45622   0.00000  Uiso   1.00
H171   H     0.44328   0.61419   0.32996   0.00000  Uiso   1.00
H172   H     0.47513   0.24299   0.20885   0.00000  Uiso   1.00
H173   H     0.35462   0.11795   0.58178   0.00000  Uiso   1.00
H174   H     0.42987   0.88645   0.31554   0.00000  Uiso   1.00
H175   H     0.49703   0.10372   0.06015   0.00000  Uiso   1.00
O176   O     0.26806   0.04112   0.60977   0.00000  Uiso   1.00
O177   O     0.36679   0.04936   0.26045   0.00000  Uiso   1.00
O178   O     0.45490   0.02243   0.92539   0.00000  Uiso   1.00
N179   N     0.26102   0.13670   0.48170   0.00000  Uiso   1.00
N180   N     0.33138   0.85520   0.23279   0.00000  Uiso   1.00
N181   N     0.39416   0.12344   0.99401   0.00000  Uiso   1.00
N182   N     0.32981   0.13501   0.53976   0.00000  Uiso   1.00
N183   N     0.40017   0.85352   0.29085   0.00000  Uiso   1.00
N184   N     0.46295   0.12175   0.05207   0.00000  Uiso   1.00
C185   C     0.17720   0.87186   0.23107   0.00000  Uiso   1.00
C186   C     0.17742   0.80662   0.31433   0.00000  Uiso   1.00
C187   C     0.21591   0.75272   0.35199   0.00000  Uiso   1.00
C188   C     0.20891   0.69764   0.42815   0.00000  Uiso   1.00
C189   C     0.21593   0.59656   0.55181   0.00000  Uiso   1.00
C190   C     0.15803   0.00465   0.24574   0.00000  Uiso   1.00
C191   C     0.18023   0.11725   0.22572   0.00000  Uiso   1.00
C192   C     0.15690   0.22887   0.24414   0.00000  Uiso   1.00
C193   C     0.13380   0.43524   0.26125   0.00000  Uiso   1.00
C194   C     0.14073   0.80296   0.17994   0.00000  Uiso   1.00
C195   C     0.14837   0.74600   0.10458   0.00000  Uiso   1.00
C196   C     0.11048   0.68784   0.06759   0.00000  Uiso   1.00
C197   C     0.06052   0.58105   0.98254   0.00000  Uiso   1.00
C198   C     0.09630   0.86988   0.29935   0.00000  Uiso   1.00
C199   C     0.13347   0.80555   0.35141   0.00000  Uiso   1.00
C200   C     0.12641   0.75053   0.42753   0.00000  Uiso   1.00
C201   C     0.16489   0.69656   0.46530   0.00000  Uiso   1.00
C202   C     0.11409   0.00358   0.28282   0.00000  Uiso   1.00
C203   C     0.09072   0.11506   0.30127   0.00000  Uiso   1.00
C204   C     0.11288   0.22780   0.28129   0.00000  Uiso   1.00
C205   C     0.09679   0.80188   0.21702   0.00000  Uiso   1.00
C206   C     0.05887   0.74381   0.18013   0.00000  Uiso   1.00
C207   C     0.06646   0.68677   0.10474   0.00000  Uiso   1.00
H208   H     0.21141   0.87270   0.20219   0.00000  Uiso   1.00
H209   H     0.24992   0.75358   0.32327   0.00000  Uiso   1.00
H210   H     0.21423   0.11805   0.19702   0.00000  Uiso   1.00
H211   H     0.18238   0.74685   0.07591   0.00000  Uiso   1.00
H212   H     0.27323   0.62108   0.47388   0.00000  Uiso   1.00
H213   H     0.19797   0.38958   0.20764   0.00000  Uiso   1.00
H214   H     0.13082   0.60685   0.95224   0.00000  Uiso   1.00
H215   H     0.06209   0.86904   0.32822   0.00000  Uiso   1.00
H216   H     0.09240   0.74971   0.45622   0.00000  Uiso   1.00
H217   H     0.05672   0.11419   0.32996   0.00000  Uiso   1.00
H218   H     0.02487   0.74299   0.20885   0.00000  Uiso   1.00
H219   H     0.14538   0.61795   0.58178   0.00000  Uiso   1.00
H220   H     0.07013   0.38645   0.31554   0.00000  Uiso   1.00
H221   H     0.00297   0.60372   0.06015   0.00000  Uiso   1.00
O222   O     0.23194   0.54112   0.60977   0.00000  Uiso   1.00
O223   O     0.13321   0.54936   0.26045   0.00000  Uiso   1.00
O224   O     0.04510   0.52243   0.92539   0.00000  Uiso   1.00
N225   N     0.23898   0.63670   0.48170   0.00000  Uiso   1.00
N226   N     0.16862   0.35520   0.23279   0.00000  Uiso   1.00
N227   N     0.10584   0.62344   0.99401   0.00000  Uiso   1.00
N228   N     0.17019   0.63501   0.53976   0.00000  Uiso   1.00
N229   N     0.09983   0.35352   0.29085   0.00000  Uiso   1.00
N230   N     0.03705   0.62175   0.05207   0.00000  Uiso   1.00
C231   C     0.32280   0.62814   0.73107   0.00000  Uiso   1.00
C232   C     0.32258   0.69338   0.81433   0.00000  Uiso   1.00
C233   C     0.28409   0.74728   0.85199   0.00000  Uiso   1.00
C234   C     0.29109   0.80236   0.92815   0.00000  Uiso   1.00
C235   C     0.28407   0.90344   0.05181   0.00000  Uiso   1.00
C236   C     0.34197   0.49535   0.74574   0.00000  Uiso   1.00
C237   C     0.31977   0.38275   0.72572   0.00000  Uiso   1.00
C238   C     0.34310   0.27113   0.74414   0.00000  Uiso   1.00
C239   C     0.36620   0.06476   0.76125   0.00000  Uiso   1.00
C240   C     0.35927   0.69704   0.67994   0.00000  Uiso   1.00
C241   C     0.35163   0.75400   0.60458   0.00000  Uiso   1.00
C242   C     0.38952   0.81216   0.56759   0.00000  Uiso   1.00
C243   C     0.43948   0.91895   0.48254   0.00000  Uiso   1.00
C244   C     0.40370   0.63012   0.79935   0.00000  Uiso   1.00
C245   C     0.36653   0.69445   0.85141   0.00000  Uiso   1.00
C246   C     0.37359   0.74947   0.92753   0.00000  Uiso   1.00
C247   C     0.33511   0.80344   0.96530   0.00000  Uiso   1.00
C248   C     0.38591   0.49642   0.78282   0.00000  Uiso   1.00
C249   C     0.40928   0.38494   0.80127   0.00000  Uiso   1.00
C250   C     0.38712   0.27220   0.78129   0.00000  Uiso   1.00
C251   C     0.40321   0.69812   0.71702   0.00000  Uiso   1.00
C252   C     0.44113   0.75619   0.68013   0.00000  Uiso   1.00
C253   C     0.43354   0.81323   0.60474   0.00000  Uiso   1.00
H254   H     0.28859   0.62730   0.70219   0.00000  Uiso   1.00
H255   H     0.25008   0.74642   0.82327   0.00000  Uiso   1.00
H256   H     0.28577   0.38195   0.69702   0.00000  Uiso   1.00
H257   H     0.31762   0.75315   0.57591   0.00000  Uiso   1.00
H258   H     0.22677   0.87892   0.97388   0.00000  Uiso   1.00
H259   H     0.30203   0.11042   0.70764   0.00000  Uiso   1.00
H260   H     0.36918   0.89315   0.45224   0.00000  Uiso   1.00
H261   H     0.43791   0.63096   0.82822   0.00000  Uiso   1.00
H262   H     0.40760   0.75029   0.95622   0.00000  Uiso   1.00
H263   H     0.44328   0.38581   0.82996   0.00000  Uiso   1.00
H264   H     0.47513   0.75701   0.70885   0.00000  Uiso   1.00
H265   H     0.35462   0.88205   0.08178   0.00000  Uiso   1.00
H266   H     0.42987   0.11355   0.81554   0.00000  Uiso   1.00
H267   H     0.49703   0.89628   0.56015   0.00000  Uiso   1.00
O268   O     0.26806   0.95888   0.10977   0.00000  Uiso   1.00
O269   O     0.36679   0.95064   0.76045   0.00000  Uiso   1.00
O270   O     0.45490   0.97757   0.42539   0.00000  Uiso   1.00
N271   N     0.26102   0.86330   0.98170   0.00000  Uiso   1.00
N272   N     0.33138   0.14480   0.73279   0.00000  Uiso   1.00
N273   N     0.39416   0.87656   0.49401   0.00000  Uiso   1.00
N274   N     0.32981   0.86499   0.03976   0.00000  Uiso   1.00
N275   N     0.40017   0.14648   0.79085   0.00000  Uiso   1.00
N276   N     0.46295   0.87825   0.55207   0.00000  Uiso   1.00
C277   C     0.82280   0.87186   0.26893   0.00000  Uiso   1.00
C278   C     0.82258   0.80662   0.18567   0.00000  Uiso   1.00
C279   C     0.78409   0.75272   0.14801   0.00000  Uiso   1.00
C280   C     0.79109   0.69764   0.07185   0.00000  Uiso   1.00
C281   C     0.78407   0.59656   0.94819   0.00000  Uiso   1.00
C282   C     0.84197   0.00465   0.25426   0.00000  Uiso   1.00
C283   C     0.81977   0.11725   0.27428   0.00000  Uiso   1.00
C284   C     0.84310   0.22887   0.25586   0.00000  Uiso   1.00
C285   C     0.86620   0.43524   0.23875   0.00000  Uiso   1.00
C286   C     0.85927   0.80296   0.32006   0.00000  Uiso   1.00
C287   C     0.85163   0.74600   0.39542   0.00000  Uiso   1.00
C288   C     0.88952   0.68784   0.43241   0.00000  Uiso   1.00
C289   C     0.93948   0.58105   0.51746   0.00000  Uiso   1.00
C290   C     0.90370   0.86988   0.20065   0.00000  Uiso   1.00
C291   C     0.86653   0.80555   0.14859   0.00000  Uiso   1.00
C292   C     0.87359   0.75053   0.07247   0.00000  Uiso   1.00
C293   C     0.83511   0.69656   0.03470   0.00000  Uiso   1.00
C294   C     0.88591   0.00358   0.21718   0.00000  Uiso   1.00
C295   C     0.90928   0.11506   0.19873   0.00000  Uiso   1.00
C296   C     0.88712   0.22780   0.21871   0.00000  Uiso   1.00
C297   C     0.90321   0.80188   0.28298   0.00000  Uiso   1.00
C298   C     0.94113   0.74381   0.31987   0.00000  Uiso   1.00
C299   C     0.93354   0.68677   0.39526   0.00000  Uiso   1.00
H300   H     0.78859   0.87270   0.29781   0.00000  Uiso   1.00
H301   H     0.75008   0.75358   0.17673   0.00000  Uiso   1.00
H302   H     0.78577   0.11805   0.30298   0.00000  Uiso   1.00
H303   H     0.81762   0.74685   0.42409   0.00000  Uiso   1.00
H304   H     0.72677   0.62108   0.02612   0.00000  Uiso   1.00
H305   H     0.80203   0.38958   0.29236   0.00000  Uiso   1.00
H306   H     0.86918   0.60685   0.54776   0.00000  Uiso   1.00
H307   H     0.93791   0.86904   0.17178   0.00000  Uiso   1.00
H308   H     0.90760   0.74971   0.04378   0.00000  Uiso   1.00
H309   H     0.94328   0.11419   0.17004   0.00000  Uiso   1.00
H310   H     0.97513   0.74299   0.29115   0.00000  Uiso   1.00
H311   H     0.85462   0.61795   0.91822   0.00000  Uiso   1.00
H312   H     0.92987   0.38645   0.18446   0.00000  Uiso   1.00
H313   H     0.99703   0.60372   0.43985   0.00000  Uiso   1.00
O314   O     0.76806   0.54112   0.89023   0.00000  Uiso   1.00
O315   O     0.86679   0.54936   0.23955   0.00000  Uiso   1.00
O316   O     0.95490   0.52243   0.57461   0.00000  Uiso   1.00
N317   N     0.76102   0.63670   0.01830   0.00000  Uiso   1.00
N318   N     0.83138   0.35520   0.26721   0.00000  Uiso   1.00
N319   N     0.89416   0.62344   0.50599   0.00000  Uiso   1.00
N320   N     0.82981   0.63501   0.96024   0.00000  Uiso   1.00
N321   N     0.90017   0.35352   0.20915   0.00000  Uiso   1.00
N322   N     0.96295   0.62175   0.44793   0.00000  Uiso   1.00
C323   C     0.67720   0.62814   0.76893   0.00000  Uiso   1.00
C324   C     0.67742   0.69338   0.68567   0.00000  Uiso   1.00
C325   C     0.71591   0.74728   0.64801   0.00000  Uiso   1.00
C326   C     0.70891   0.80236   0.57185   0.00000  Uiso   1.00
C327   C     0.71593   0.90344   0.44819   0.00000  Uiso   1.00
C328   C     0.65803   0.49535   0.75426   0.00000  Uiso   1.00
C329   C     0.68023   0.38275   0.77428   0.00000  Uiso   1.00
C330   C     0.65690   0.27113   0.75586   0.00000  Uiso   1.00
C331   C     0.63380   0.06476   0.73875   0.00000  Uiso   1.00
C332   C     0.64073   0.69704   0.82006   0.00000  Uiso   1.00
C333   C     0.64837   0.75400   0.89542   0.00000  Uiso   1.00
C334   C     0.61048   0.81216   0.93241   0.00000  Uiso   1.00
C335   C     0.56052   0.91895   0.01746   0.00000  Uiso   1.00
C336   C     0.59630   0.63012   0.70065   0.00000  Uiso   1.00
C337   C     0.63347   0.69445   0.64859   0.00000  Uiso   1.00
C338   C     0.62641   0.74947   0.57247   0.00000  Uiso   1.00
C339   C     0.66489   0.80344   0.53470   0.00000  Uiso   1.00
C340   C     0.61409   0.49642   0.71718   0.00000  Uiso   1.00
C341   C     0.59072   0.38494   0.69873   0.00000  Uiso   1.00
C342   C     0.61288   0.27220   0.71871   0.00000  Uiso   1.00
C343   C     0.59679   0.69812   0.78298   0.00000  Uiso   1.00
C344   C     0.55887   0.75619   0.81987   0.00000  Uiso   1.00
C345   C     0.56646   0.81323   0.89526   0.00000  Uiso   1.00
H346   H     0.71141   0.62730   0.79781   0.00000  Uiso   1.00
H347   H     0.74992   0.74642   0.67673   0.00000  Uiso   1.00
H348   H     0.71423   0.38195   0.80298   0.00000  Uiso   1.00
H349   H     0.68238   0.75315   0.92409   0.00000  Uiso   1.00
H350   H     0.77323   0.87892   0.52612   0.00000  Uiso   1.00
H351   H     0.69797   0.11042   0.79236   0.00000  Uiso   1.00
H352   H     0.63082   0.89315   0.04776   0.00000  Uiso   1.00
H353   H     0.56209   0.63096   0.67178   0.00000  Uiso   1.00
H354   H     0.59240   0.75029   0.54378   0.00000  Uiso   1.00
H355   H     0.55672   0.38581   0.67004   0.00000  Uiso   1.00
H356   H     0.52487   0.75701   0.79115   0.00000  Uiso   1.00
H357   H     0.64538   0.88205   0.41822   0.00000  Uiso   1.00
H358   H     0.57013   0.11355   0.68446   0.00000  Uiso   1.00
H359   H     0.50297   0.89628   0.93985   0.00000  Uiso   1.00
O360   O     0.73194   0.95888   0.39023   0.00000  Uiso   1.00
O361   O     0.63321   0.95064   0.73955   0.00000  Uiso   1.00
O362   O     0.54510   0.97757   0.07461   0.00000  Uiso   1.00
N363   N     0.73898   0.86330   0.51830   0.00000  Uiso   1.00
N364   N     0.66862   0.14480   0.76721   0.00000  Uiso   1.00
N365   N     0.60584   0.87656   0.00599   0.00000  Uiso   1.00
N366   N     0.67019   0.86499   0.46024   0.00000  Uiso   1.00
N367   N     0.59983   0.14648   0.70915   0.00000  Uiso   1.00
N368   N     0.53705   0.87825   0.94793   0.00000  Uiso   1.00
