data_job_00635
_audit_creation_date              2018-12-19
_audit_creation_method            'Materials Studio'
_symmetry_space_group_name_H-M    'P1'
_symmetry_Int_Tables_number       1
_symmetry_cell_setting            triclinic
loop_
_symmetry_equiv_pos_as_xyz
  x,y,z
_cell_length_a                    16.5255
_cell_length_b                    23.6106
_cell_length_c                    12.4359
_cell_angle_alpha                 90.0000
_cell_angle_beta                  88.8859
_cell_angle_gamma                 90.0000
loop_
_atom_site_label
_atom_site_type_symbol
_atom_site_fract_x
_atom_site_fract_y
_atom_site_fract_z
_atom_site_U_iso_or_equiv
_atom_site_adp_type
_atom_site_occupancy
C1     C     0.09570   0.89314   0.30456   0.00000  Uiso   1.00
C2     C     0.16225   0.87413   0.22592   0.00000  Uiso   1.00
C3     C     0.15107   0.84229   0.13360   0.00000  Uiso   1.00
C4     C     0.21969   0.82925   0.07232   0.00000  Uiso   1.00
C5     C     0.31132   0.79695   0.94568   0.00000  Uiso   1.00
C6     C     0.11966   0.87076   0.41447   0.00000  Uiso   1.00
C7     C     0.07266   0.83609   0.48067   0.00000  Uiso   1.00
C8     C     0.10543   0.82022   0.57813   0.00000  Uiso   1.00
C9     C     0.13091   0.78272   0.74424   0.00000  Uiso   1.00
C10    C     0.10232   0.95746   0.31122   0.00000  Uiso   1.00
C11    C     0.04074   0.99569   0.29064   0.00000  Uiso   1.00
C12    C     0.05889   0.05281   0.30119   0.00000  Uiso   1.00
C13    C     0.05745   0.14991   0.30700   0.00000  Uiso   1.00
C14    C     0.23744   0.92661   0.35992   0.00000  Uiso   1.00
C15    C     0.23924   0.89231   0.25600   0.00000  Uiso   1.00
C16    C     0.30789   0.87932   0.19485   0.00000  Uiso   1.00
C17    C     0.29682   0.84746   0.10244   0.00000  Uiso   1.00
C18    C     0.19665   0.88894   0.44455   0.00000  Uiso   1.00
C19    C     0.22948   0.87312   0.54193   0.00000  Uiso   1.00
C20    C     0.18255   0.83843   0.60826   0.00000  Uiso   1.00
C21    C     0.17931   0.97564   0.34129   0.00000  Uiso   1.00
C22    C     0.19756   0.03271   0.35189   0.00000  Uiso   1.00
C23    C     0.13602   0.07102   0.33132   0.00000  Uiso   1.00
H24    H     0.03576   0.87899   0.28115   0.00000  Uiso   1.00
H25    H     0.09148   0.82823   0.11036   0.00000  Uiso   1.00
H26    H     0.01309   0.82203   0.45739   0.00000  Uiso   1.00
H27    H     0.98117   0.98160   0.26737   0.00000  Uiso   1.00
H28    H     0.18722   0.77995   0.93428   0.00000  Uiso   1.00
H29    H     0.02190   0.76691   0.66602   0.00000  Uiso   1.00
H30    H     0.95459   0.10339   0.26535   0.00000  Uiso   1.00
H31    H     0.29738   0.94076   0.38334   0.00000  Uiso   1.00
H32    H     0.36746   0.89339   0.21814   0.00000  Uiso   1.00
H33    H     0.28906   0.88720   0.56517   0.00000  Uiso   1.00
H34    H     0.25714   0.04676   0.37516   0.00000  Uiso   1.00
H35    H     0.41121   0.83284   0.02176   0.00000  Uiso   1.00
H36    H     0.24589   0.81980   0.75351   0.00000  Uiso   1.00
H37    H     0.17858   0.15628   0.35284   0.00000  Uiso   1.00
O38    O     0.34060   0.77410   0.86753   0.00000  Uiso   1.00
O39    O     0.12370   0.75700   0.82756   0.00000  Uiso   1.00
O40    O     0.03539   0.19846   0.30188   0.00000  Uiso   1.00
N41    N     0.23032   0.79891   0.97753   0.00000  Uiso   1.00
N42    N     0.07576   0.78671   0.66166   0.00000  Uiso   1.00
N43    N     0.01282   0.10129   0.28709   0.00000  Uiso   1.00
N44    N     0.35085   0.82736   0.02460   0.00000  Uiso   1.00
N45    N     0.19629   0.81516   0.70873   0.00000  Uiso   1.00
N46    N     0.13335   0.12975   0.33417   0.00000  Uiso   1.00
C47    C     0.46648   0.57632   0.18429   0.00000  Uiso   1.00
C48    C     0.53473   0.59000   0.26089   0.00000  Uiso   1.00
C49    C     0.52726   0.62158   0.35467   0.00000  Uiso   1.00
C50    C     0.59688   0.62935   0.41364   0.00000  Uiso   1.00
C51    C     0.69154   0.65412   0.53767   0.00000  Uiso   1.00
C52    C     0.49431   0.59799   0.07414   0.00000  Uiso   1.00
C53    C     0.45285   0.63629   0.01091   0.00000  Uiso   1.00
C54    C     0.48844   0.65077   0.91266   0.00000  Uiso   1.00
C55    C     0.52033   0.68792   0.74673   0.00000  Uiso   1.00
C56    C     0.46423   0.51193   0.17531   0.00000  Uiso   1.00
C57    C     0.39748   0.47785   0.19712   0.00000  Uiso   1.00
C58    C     0.40774   0.41988   0.18403   0.00000  Uiso   1.00
C59    C     0.39293   0.32340   0.17519   0.00000  Uiso   1.00
C60    C     0.60340   0.53395   0.12223   0.00000  Uiso   1.00
C61    C     0.60910   0.56699   0.22717   0.00000  Uiso   1.00
C62    C     0.67874   0.57470   0.28601   0.00000  Uiso   1.00
C63    C     0.67138   0.60629   0.37987   0.00000  Uiso   1.00
C64    C     0.56868   0.57498   0.04043   0.00000  Uiso   1.00
C65    C     0.60433   0.58941   0.94225   0.00000  Uiso   1.00
C66    C     0.56294   0.62772   0.87889   0.00000  Uiso   1.00
C67    C     0.53860   0.48891   0.14161   0.00000  Uiso   1.00
C68    C     0.54896   0.43098   0.12847   0.00000  Uiso   1.00
C69    C     0.48224   0.39682   0.15026   0.00000  Uiso   1.00
H70    H     0.40859   0.59423   0.21053   0.00000  Uiso   1.00
H71    H     0.46970   0.63939   0.38073   0.00000  Uiso   1.00
H72    H     0.39530   0.65408   0.03701   0.00000  Uiso   1.00
H73    H     0.33994   0.49568   0.22320   0.00000  Uiso   1.00
H74    H     0.57026   0.67931   0.55454   0.00000  Uiso   1.00
H75    H     0.41337   0.71029   0.82978   0.00000  Uiso   1.00
H76    H     0.29663   0.37626   0.22240   0.00000  Uiso   1.00
H77    H     0.66130   0.51603   0.09598   0.00000  Uiso   1.00
H78    H     0.73628   0.55689   0.25991   0.00000  Uiso   1.00
H79    H     0.66188   0.57159   0.91619   0.00000  Uiso   1.00
H80    H     0.60652   0.41319   0.10238   0.00000  Uiso   1.00
H81    H     0.78663   0.61236   0.45647   0.00000  Uiso   1.00
H82    H     0.62974   0.64334   0.73171   0.00000  Uiso   1.00
H83    H     0.51300   0.30931   0.12433   0.00000  Uiso   1.00
O84    O     0.72322   0.67415   0.61539   0.00000  Uiso   1.00
O85    O     0.51738   0.71478   0.66452   0.00000  Uiso   1.00
O86    O     0.36422   0.27654   0.17964   0.00000  Uiso   1.00
N87    N     0.61089   0.65794   0.50897   0.00000  Uiso   1.00
N88    N     0.46421   0.68691   0.83137   0.00000  Uiso   1.00
N89    N     0.35506   0.37462   0.19841   0.00000  Uiso   1.00
N90    N     0.72731   0.62191   0.45621   0.00000  Uiso   1.00
N91    N     0.58064   0.65088   0.77861   0.00000  Uiso   1.00
N92    N     0.47149   0.33859   0.14565   0.00000  Uiso   1.00
C93    C     0.86534   0.14258   0.00368   0.00000  Uiso   1.00
C94    C     0.79842   0.11968   0.07781   0.00000  Uiso   1.00
C95    C     0.76691   0.14673   0.16842   0.00000  Uiso   1.00
C96    C     0.70592   0.11879   0.22552   0.00000  Uiso   1.00
C97    C     0.60629   0.09133   0.34553   0.00000  Uiso   1.00
C98    C     0.83030   0.14355   0.89115   0.00000  Uiso   1.00
C99    C     0.82560   0.19066   0.82483   0.00000  Uiso   1.00
C100   C     0.79146   0.18280   0.72479   0.00000  Uiso   1.00
C101   C     0.74139   0.19238   0.55499   0.00000  Uiso   1.00
C102   C     0.93146   0.09753   0.00113   0.00000  Uiso   1.00
C103   C     0.01184   0.10594   0.02724   0.00000  Uiso   1.00
C104   C     0.06288   0.05933   0.01976   0.00000  Uiso   1.00
C105   C     0.16989   0.99746   0.02071   0.00000  Uiso   1.00
C106   C     0.81305   0.04485   0.94395   0.00000  Uiso   1.00
C107   C     0.77002   0.06660   0.04536   0.00000  Uiso   1.00
C108   C     0.70906   0.03861   0.10234   0.00000  Uiso   1.00
C109   C     0.67747   0.06561   0.19302   0.00000  Uiso   1.00
C110   C     0.80190   0.09047   0.85871   0.00000  Uiso   1.00
C111   C     0.76776   0.08253   0.75875   0.00000  Uiso   1.00
C112   C     0.76301   0.12962   0.69229   0.00000  Uiso   1.00
C113   C     0.90307   0.04444   0.96869   0.00000  Uiso   1.00
C114   C     0.95399   0.99781   0.96116   0.00000  Uiso   1.00
C115   C     0.03443   0.00616   0.98726   0.00000  Uiso   1.00
H116   H     0.88745   0.18390   0.02892   0.00000  Uiso   1.00
H117   H     0.78890   0.18782   0.19349   0.00000  Uiso   1.00
H118   H     0.84759   0.23173   0.84995   0.00000  Uiso   1.00
H119   H     0.03380   0.14703   0.05234   0.00000  Uiso   1.00
H120   H     0.66709   0.16875   0.36162   0.00000  Uiso   1.00
H121   H     0.79088   0.26135   0.63723   0.00000  Uiso   1.00
H122   H     0.18353   0.08273   0.06399   0.00000  Uiso   1.00
H123   H     0.79094   0.00352   0.91869   0.00000  Uiso   1.00
H124   H     0.68709   0.99753   0.07721   0.00000  Uiso   1.00
H125   H     0.74579   0.04145   0.73367   0.00000  Uiso   1.00
H126   H     0.93199   0.95674   0.93605   0.00000  Uiso   1.00
H127   H     0.58446   0.01431   0.26724   0.00000  Uiso   1.00
H128   H     0.70825   0.10691   0.54284   0.00000  Uiso   1.00
H129   H     0.10090   0.92829   0.96961   0.00000  Uiso   1.00
O130   O     0.55918   0.09085   0.42068   0.00000  Uiso   1.00
O131   O     0.72161   0.21234   0.47030   0.00000  Uiso   1.00
O132   O     0.23675   0.97799   0.03021   0.00000  Uiso   1.00
N133   N     0.66191   0.13322   0.31766   0.00000  Uiso   1.00
N134   N     0.77763   0.21980   0.64041   0.00000  Uiso   1.00
N135   N     0.14473   0.05281   0.03937   0.00000  Uiso   1.00
N136   N     0.61744   0.05011   0.26688   0.00000  Uiso   1.00
N137   N     0.73317   0.13669   0.58962   0.00000  Uiso   1.00
N138   N     0.10027   0.96970   0.98858   0.00000  Uiso   1.00
C139   C     0.25295   0.31409   0.48634   0.00000  Uiso   1.00
C140   C     0.18791   0.33665   0.41230   0.00000  Uiso   1.00
C141   C     0.15942   0.30953   0.32155   0.00000  Uiso   1.00
C142   C     0.09975   0.33717   0.26457   0.00000  Uiso   1.00
C143   C     0.00330   0.36416   0.14465   0.00000  Uiso   1.00
C144   C     0.21461   0.31273   0.59885   0.00000  Uiso   1.00
C145   C     0.20858   0.26550   0.66495   0.00000  Uiso   1.00
C146   C     0.17139   0.27300   0.76501   0.00000  Uiso   1.00
C147   C     0.11645   0.26286   0.93475   0.00000  Uiso   1.00
C148   C     0.31840   0.35956   0.48913   0.00000  Uiso   1.00
C149   C     0.39966   0.35169   0.46300   0.00000  Uiso   1.00
C150   C     0.44986   0.39861   0.47071   0.00000  Uiso   1.00
C151   C     0.55608   0.46117   0.47009   0.00000  Uiso   1.00
C152   C     0.19762   0.41139   0.54652   0.00000  Uiso   1.00
C153   C     0.15786   0.38951   0.44499   0.00000  Uiso   1.00
C154   C     0.09821   0.41719   0.38812   0.00000  Uiso   1.00
C155   C     0.06964   0.39012   0.29730   0.00000  Uiso   1.00
C156   C     0.18456   0.36558   0.63153   0.00000  Uiso   1.00
C157   C     0.14737   0.37316   0.73152   0.00000  Uiso   1.00
C158   C     0.14129   0.32595   0.79776   0.00000  Uiso   1.00
C159   C     0.28835   0.41241   0.52181   0.00000  Uiso   1.00
C160   C     0.33844   0.45935   0.52957   0.00000  Uiso   1.00
C161   C     0.41975   0.45156   0.50346   0.00000  Uiso   1.00
H162   H     0.27634   0.27294   0.46090   0.00000  Uiso   1.00
H163   H     0.18269   0.26863   0.29629   0.00000  Uiso   1.00
H164   H     0.23185   0.22461   0.63964   0.00000  Uiso   1.00
H165   H     0.42289   0.31079   0.43771   0.00000  Uiso   1.00
H166   H     0.06559   0.28715   0.12822   0.00000  Uiso   1.00
H167   H     0.16927   0.19433   0.85220   0.00000  Uiso   1.00
H168   H     0.57211   0.37605   0.42641   0.00000  Uiso   1.00
H169   H     0.17423   0.45254   0.57197   0.00000  Uiso   1.00
H170   H     0.07497   0.45809   0.41344   0.00000  Uiso   1.00
H171   H     0.12413   0.41407   0.75679   0.00000  Uiso   1.00
H172   H     0.31517   0.50025   0.55487   0.00000  Uiso   1.00
H173   H     0.97815   0.44093   0.22330   0.00000  Uiso   1.00
H174   H     0.08184   0.34810   0.94729   0.00000  Uiso   1.00
H175   H     0.48468   0.52983   0.52150   0.00000  Uiso   1.00
O176   O     0.95840   0.36444   0.06949   0.00000  Uiso   1.00
O177   O     0.09444   0.24266   0.01934   0.00000  Uiso   1.00
O178   O     0.62296   0.48108   0.46071   0.00000  Uiso   1.00
N179   N     0.05864   0.32259   0.17234   0.00000  Uiso   1.00
N180   N     0.15557   0.23580   0.84922   0.00000  Uiso   1.00
N181   N     0.53220   0.40569   0.45117   0.00000  Uiso   1.00
N182   N     0.01160   0.40533   0.22350   0.00000  Uiso   1.00
N183   N     0.10852   0.31854   0.90038   0.00000  Uiso   1.00
N184   N     0.48515   0.48844   0.50233   0.00000  Uiso   1.00
C185   C     0.90430   0.39314   0.69544   0.00000  Uiso   1.00
C186   C     0.83775   0.37413   0.77408   0.00000  Uiso   1.00
C187   C     0.84893   0.34229   0.86640   0.00000  Uiso   1.00
C188   C     0.78031   0.32925   0.92768   0.00000  Uiso   1.00
C189   C     0.68868   0.29695   0.05432   0.00000  Uiso   1.00
C190   C     0.88034   0.37076   0.58553   0.00000  Uiso   1.00
C191   C     0.92734   0.33609   0.51933   0.00000  Uiso   1.00
C192   C     0.89457   0.32022   0.42187   0.00000  Uiso   1.00
C193   C     0.86909   0.28272   0.25576   0.00000  Uiso   1.00
C194   C     0.89768   0.45746   0.68878   0.00000  Uiso   1.00
C195   C     0.95926   0.49569   0.70936   0.00000  Uiso   1.00
C196   C     0.94111   0.55281   0.69881   0.00000  Uiso   1.00
C197   C     0.94255   0.64991   0.69300   0.00000  Uiso   1.00
C198   C     0.76256   0.42661   0.64008   0.00000  Uiso   1.00
C199   C     0.76076   0.39231   0.74400   0.00000  Uiso   1.00
C200   C     0.69211   0.37932   0.80515   0.00000  Uiso   1.00
C201   C     0.70318   0.34746   0.89756   0.00000  Uiso   1.00
C202   C     0.80335   0.38894   0.55545   0.00000  Uiso   1.00
C203   C     0.77052   0.37312   0.45807   0.00000  Uiso   1.00
C204   C     0.81745   0.33843   0.39174   0.00000  Uiso   1.00
C205   C     0.82069   0.47564   0.65871   0.00000  Uiso   1.00
C206   C     0.80244   0.53271   0.64811   0.00000  Uiso   1.00
C207   C     0.86398   0.57102   0.66868   0.00000  Uiso   1.00
H208   H     0.96424   0.37899   0.71885   0.00000  Uiso   1.00
H209   H     0.90852   0.32823   0.88964   0.00000  Uiso   1.00
H210   H     0.98691   0.32203   0.54261   0.00000  Uiso   1.00
H211   H     0.01883   0.48160   0.73263   0.00000  Uiso   1.00
H212   H     0.81278   0.27995   0.06572   0.00000  Uiso   1.00
H213   H     0.97810   0.26691   0.33398   0.00000  Uiso   1.00
H214   H     0.04541   0.60339   0.73465   0.00000  Uiso   1.00
H215   H     0.70262   0.44076   0.61666   0.00000  Uiso   1.00
H216   H     0.63254   0.39339   0.78186   0.00000  Uiso   1.00
H217   H     0.71094   0.38720   0.43483   0.00000  Uiso   1.00
H218   H     0.74286   0.54676   0.62484   0.00000  Uiso   1.00
H219   H     0.58879   0.33284   0.97824   0.00000  Uiso   1.00
H220   H     0.75411   0.31980   0.24649   0.00000  Uiso   1.00
H221   H     0.82142   0.65628   0.64716   0.00000  Uiso   1.00
O222   O     0.65940   0.27410   0.13247   0.00000  Uiso   1.00
O223   O     0.87630   0.25700   0.17244   0.00000  Uiso   1.00
O224   O     0.96461   0.69846   0.69812   0.00000  Uiso   1.00
N225   N     0.76968   0.29891   0.02247   0.00000  Uiso   1.00
N226   N     0.92424   0.28671   0.33834   0.00000  Uiso   1.00
N227   N     0.98718   0.60129   0.71291   0.00000  Uiso   1.00
N228   N     0.64915   0.32736   0.97540   0.00000  Uiso   1.00
N229   N     0.80371   0.31516   0.29127   0.00000  Uiso   1.00
N230   N     0.86665   0.62975   0.66583   0.00000  Uiso   1.00
C231   C     0.53352   0.07632   0.81571   0.00000  Uiso   1.00
C232   C     0.46527   0.09000   0.73911   0.00000  Uiso   1.00
C233   C     0.47274   0.12158   0.64533   0.00000  Uiso   1.00
C234   C     0.40312   0.12935   0.58636   0.00000  Uiso   1.00
C235   C     0.30846   0.15412   0.46233   0.00000  Uiso   1.00
C236   C     0.50569   0.09799   0.92586   0.00000  Uiso   1.00
C237   C     0.54715   0.13629   0.98909   0.00000  Uiso   1.00
C238   C     0.51156   0.15077   0.08734   0.00000  Uiso   1.00
C239   C     0.47967   0.18792   0.25327   0.00000  Uiso   1.00
C240   C     0.53577   0.01193   0.82469   0.00000  Uiso   1.00
C241   C     0.60252   0.97785   0.80288   0.00000  Uiso   1.00
C242   C     0.59226   0.91988   0.81597   0.00000  Uiso   1.00
C243   C     0.60707   0.82340   0.82481   0.00000  Uiso   1.00
C244   C     0.39660   0.03395   0.87777   0.00000  Uiso   1.00
C245   C     0.39090   0.06699   0.77283   0.00000  Uiso   1.00
C246   C     0.32126   0.07470   0.71399   0.00000  Uiso   1.00
C247   C     0.32862   0.10629   0.62013   0.00000  Uiso   1.00
C248   C     0.43132   0.07498   0.95957   0.00000  Uiso   1.00
C249   C     0.39567   0.08941   0.05775   0.00000  Uiso   1.00
C250   C     0.43706   0.12772   0.12111   0.00000  Uiso   1.00
C251   C     0.46140   0.98891   0.85839   0.00000  Uiso   1.00
C252   C     0.45104   0.93098   0.87153   0.00000  Uiso   1.00
C253   C     0.51776   0.89682   0.84974   0.00000  Uiso   1.00
H254   H     0.59141   0.09423   0.78947   0.00000  Uiso   1.00
H255   H     0.53030   0.13939   0.61927   0.00000  Uiso   1.00
H256   H     0.60470   0.15408   0.96299   0.00000  Uiso   1.00
H257   H     0.66006   0.99568   0.77680   0.00000  Uiso   1.00
H258   H     0.42974   0.17931   0.44546   0.00000  Uiso   1.00
H259   H     0.58663   0.21029   0.17022   0.00000  Uiso   1.00
H260   H     0.70337   0.87626   0.77760   0.00000  Uiso   1.00
H261   H     0.33870   0.01603   0.90402   0.00000  Uiso   1.00
H262   H     0.26372   0.05689   0.74009   0.00000  Uiso   1.00
H263   H     0.33812   0.07159   0.08381   0.00000  Uiso   1.00
H264   H     0.39348   0.91319   0.89762   0.00000  Uiso   1.00
H265   H     0.21337   0.11236   0.54353   0.00000  Uiso   1.00
H266   H     0.37026   0.14334   0.26829   0.00000  Uiso   1.00
H267   H     0.48700   0.80931   0.87567   0.00000  Uiso   1.00
O268   O     0.27678   0.17415   0.38461   0.00000  Uiso   1.00
O269   O     0.48262   0.21478   0.33548   0.00000  Uiso   1.00
O270   O     0.63578   0.77654   0.82036   0.00000  Uiso   1.00
N271   N     0.38911   0.15794   0.49103   0.00000  Uiso   1.00
N272   N     0.53579   0.18691   0.16863   0.00000  Uiso   1.00
N273   N     0.64494   0.87462   0.80159   0.00000  Uiso   1.00
N274   N     0.27269   0.12191   0.54379   0.00000  Uiso   1.00
N275   N     0.41936   0.15088   0.22139   0.00000  Uiso   1.00
N276   N     0.52851   0.83859   0.85435   0.00000  Uiso   1.00
C277   C     0.13466   0.64258   0.99632   0.00000  Uiso   1.00
C278   C     0.20158   0.61968   0.92219   0.00000  Uiso   1.00
C279   C     0.23309   0.64673   0.83158   0.00000  Uiso   1.00
C280   C     0.29408   0.61879   0.77448   0.00000  Uiso   1.00
C281   C     0.39371   0.59133   0.65447   0.00000  Uiso   1.00
C282   C     0.16970   0.64355   0.10885   0.00000  Uiso   1.00
C283   C     0.17440   0.69066   0.17517   0.00000  Uiso   1.00
C284   C     0.20854   0.68280   0.27521   0.00000  Uiso   1.00
C285   C     0.25861   0.69238   0.44501   0.00000  Uiso   1.00
C286   C     0.06854   0.59753   0.99887   0.00000  Uiso   1.00
C287   C     0.98816   0.60594   0.97276   0.00000  Uiso   1.00
C288   C     0.93712   0.55933   0.98024   0.00000  Uiso   1.00
C289   C     0.83011   0.49746   0.97929   0.00000  Uiso   1.00
C290   C     0.18695   0.54485   0.05605   0.00000  Uiso   1.00
C291   C     0.22998   0.56660   0.95464   0.00000  Uiso   1.00
C292   C     0.29094   0.53861   0.89766   0.00000  Uiso   1.00
C293   C     0.32253   0.56561   0.80698   0.00000  Uiso   1.00
C294   C     0.19810   0.59047   0.14129   0.00000  Uiso   1.00
C295   C     0.23224   0.58253   0.24125   0.00000  Uiso   1.00
C296   C     0.23699   0.62962   0.30771   0.00000  Uiso   1.00
C297   C     0.09693   0.54444   0.03131   0.00000  Uiso   1.00
C298   C     0.04601   0.49781   0.03884   0.00000  Uiso   1.00
C299   C     0.96557   0.50616   0.01274   0.00000  Uiso   1.00
H300   H     0.11255   0.68390   0.97108   0.00000  Uiso   1.00
H301   H     0.21110   0.68782   0.80651   0.00000  Uiso   1.00
H302   H     0.15241   0.73173   0.15005   0.00000  Uiso   1.00
H303   H     0.96620   0.64703   0.94766   0.00000  Uiso   1.00
H304   H     0.33291   0.66875   0.63838   0.00000  Uiso   1.00
H305   H     0.20912   0.76135   0.36277   0.00000  Uiso   1.00
H306   H     0.81647   0.58273   0.93601   0.00000  Uiso   1.00
H307   H     0.20906   0.50352   0.08131   0.00000  Uiso   1.00
H308   H     0.31291   0.49753   0.92279   0.00000  Uiso   1.00
H309   H     0.25421   0.54145   0.26633   0.00000  Uiso   1.00
H310   H     0.06801   0.45674   0.06395   0.00000  Uiso   1.00
H311   H     0.41554   0.51431   0.73276   0.00000  Uiso   1.00
H312   H     0.29175   0.60691   0.45716   0.00000  Uiso   1.00
H313   H     0.89910   0.42829   0.03039   0.00000  Uiso   1.00
O314   O     0.44082   0.59085   0.57932   0.00000  Uiso   1.00
O315   O     0.27839   0.71234   0.52970   0.00000  Uiso   1.00
O316   O     0.76325   0.47799   0.96979   0.00000  Uiso   1.00
N317   N     0.33809   0.63322   0.68234   0.00000  Uiso   1.00
N318   N     0.22237   0.71980   0.35959   0.00000  Uiso   1.00
N319   N     0.85527   0.55281   0.96063   0.00000  Uiso   1.00
N320   N     0.38256   0.55011   0.73312   0.00000  Uiso   1.00
N321   N     0.26683   0.63669   0.41038   0.00000  Uiso   1.00
N322   N     0.89973   0.46970   0.01142   0.00000  Uiso   1.00
C323   C     0.74705   0.81409   0.51366   0.00000  Uiso   1.00
C324   C     0.81209   0.83665   0.58770   0.00000  Uiso   1.00
C325   C     0.84058   0.80953   0.67845   0.00000  Uiso   1.00
C326   C     0.90025   0.83717   0.73543   0.00000  Uiso   1.00
C327   C     0.99670   0.86416   0.85535   0.00000  Uiso   1.00
C328   C     0.78539   0.81273   0.40115   0.00000  Uiso   1.00
C329   C     0.79142   0.76550   0.33505   0.00000  Uiso   1.00
C330   C     0.82861   0.77300   0.23499   0.00000  Uiso   1.00
C331   C     0.88355   0.76286   0.06525   0.00000  Uiso   1.00
C332   C     0.68160   0.85956   0.51087   0.00000  Uiso   1.00
C333   C     0.60034   0.85169   0.53700   0.00000  Uiso   1.00
C334   C     0.55014   0.89861   0.52929   0.00000  Uiso   1.00
C335   C     0.44392   0.96117   0.52991   0.00000  Uiso   1.00
C336   C     0.80238   0.91139   0.45348   0.00000  Uiso   1.00
C337   C     0.84214   0.88951   0.55501   0.00000  Uiso   1.00
C338   C     0.90179   0.91719   0.61188   0.00000  Uiso   1.00
C339   C     0.93036   0.89012   0.70270   0.00000  Uiso   1.00
C340   C     0.81544   0.86558   0.36847   0.00000  Uiso   1.00
C341   C     0.85263   0.87316   0.26848   0.00000  Uiso   1.00
C342   C     0.85871   0.82595   0.20224   0.00000  Uiso   1.00
C343   C     0.71165   0.91241   0.47819   0.00000  Uiso   1.00
C344   C     0.66156   0.95935   0.47043   0.00000  Uiso   1.00
C345   C     0.58025   0.95156   0.49654   0.00000  Uiso   1.00
H346   H     0.72366   0.77294   0.53910   0.00000  Uiso   1.00
H347   H     0.81731   0.76863   0.70371   0.00000  Uiso   1.00
H348   H     0.76815   0.72461   0.36036   0.00000  Uiso   1.00
H349   H     0.57711   0.81079   0.56229   0.00000  Uiso   1.00
H350   H     0.93441   0.78715   0.87178   0.00000  Uiso   1.00
H351   H     0.83073   0.69433   0.14780   0.00000  Uiso   1.00
H352   H     0.42789   0.87605   0.57359   0.00000  Uiso   1.00
H353   H     0.82577   0.95254   0.42803   0.00000  Uiso   1.00
H354   H     0.92503   0.95809   0.58656   0.00000  Uiso   1.00
H355   H     0.87587   0.91407   0.24321   0.00000  Uiso   1.00
H356   H     0.68483   0.00025   0.44513   0.00000  Uiso   1.00
H357   H     0.02185   0.94093   0.77670   0.00000  Uiso   1.00
H358   H     0.91816   0.84810   0.05271   0.00000  Uiso   1.00
H359   H     0.51532   0.02983   0.47850   0.00000  Uiso   1.00
O360   O     0.04160   0.86444   0.93051   0.00000  Uiso   1.00
O361   O     0.90556   0.74266   0.98066   0.00000  Uiso   1.00
O362   O     0.37704   0.98108   0.53929   0.00000  Uiso   1.00
N363   N     0.94136   0.82259   0.82766   0.00000  Uiso   1.00
N364   N     0.84443   0.73580   0.15078   0.00000  Uiso   1.00
N365   N     0.46780   0.90569   0.54883   0.00000  Uiso   1.00
N366   N     0.98840   0.90533   0.77650   0.00000  Uiso   1.00
N367   N     0.89148   0.81854   0.09962   0.00000  Uiso   1.00
N368   N     0.51485   0.98844   0.49767   0.00000  Uiso   1.00
