data_job_02119
_audit_creation_date              2018-12-19
_audit_creation_method            'Materials Studio'
_symmetry_space_group_name_H-M    'P1'
_symmetry_Int_Tables_number       1
_symmetry_cell_setting            triclinic
loop_
_symmetry_equiv_pos_as_xyz
  x,y,z
_cell_length_a                    9.9481
_cell_length_b                    13.7894
_cell_length_c                    9.8349
_cell_angle_alpha                 90.0000
_cell_angle_beta                  73.8473
_cell_angle_gamma                 90.0000
loop_
_atom_site_label
_atom_site_type_symbol
_atom_site_fract_x
_atom_site_fract_y
_atom_site_fract_z
_atom_site_U_iso_or_equiv
_atom_site_adp_type
_atom_site_occupancy
C1     C     0.01399   0.67567   0.99587   0.00000  Uiso   1.00
C2     C     0.08625   0.73673   0.08409   0.00000  Uiso   1.00
C3     C     0.07255   0.72482   0.22743   0.00000  Uiso   1.00
C4     C     0.14732   0.78809   0.28874   0.00000  Uiso   1.00
C5     C     0.24649   0.87189   0.43780   0.00000  Uiso   1.00
C6     C     0.93298   0.74679   0.92977   0.00000  Uiso   1.00
C7     C     0.79042   0.74334   0.94333   0.00000  Uiso   1.00
C8     C     0.73618   0.81507   0.87471   0.00000  Uiso   1.00
C9     C     0.59741   0.91446   0.78409   0.00000  Uiso   1.00
C10    C     0.13042   0.63501   0.87371   0.00000  Uiso   1.00
C11    C     0.15384   0.53757   0.84011   0.00000  Uiso   1.00
C12    C     0.26581   0.51520   0.72427   0.00000  Uiso   1.00
C13    C     0.43359   0.44102   0.54661   0.00000  Uiso   1.00
C14    C     0.17115   0.80920   0.84987   0.00000  Uiso   1.00
C15    C     0.17161   0.80926   0.00479   0.00000  Uiso   1.00
C16    C     0.24643   0.87256   0.06589   0.00000  Uiso   1.00
C17    C     0.23284   0.86075   0.20930   0.00000  Uiso   1.00
C18    C     0.01834   0.81932   0.85046   0.00000  Uiso   1.00
C19    C     0.96430   0.89107   0.78180   0.00000  Uiso   1.00
C20    C     0.82169   0.88773   0.79526   0.00000  Uiso   1.00
C21    C     0.21578   0.70754   0.79440   0.00000  Uiso   1.00
C22    C     0.32773   0.68531   0.67858   0.00000  Uiso   1.00
C23    C     0.35133   0.58786   0.64482   0.00000  Uiso   1.00
H24    H     0.94752   0.61921   0.05761   0.00000  Uiso   1.00
H25    H     0.00647   0.66869   0.28877   0.00000  Uiso   1.00
H26    H     0.72439   0.68720   0.00470   0.00000  Uiso   1.00
H27    H     0.08776   0.48147   0.90150   0.00000  Uiso   1.00
H28    H     0.10942   0.75555   0.51009   0.00000  Uiso   1.00
H29    H     0.51466   0.79456   0.91108   0.00000  Uiso   1.00
H30    H     0.28090   0.36073   0.69346   0.00000  Uiso   1.00
H31    H     0.23761   0.86567   0.78812   0.00000  Uiso   1.00
H32    H     0.31248   0.92868   0.00450   0.00000  Uiso   1.00
H33    H     0.03039   0.94719   0.72043   0.00000  Uiso   1.00
H34    H     0.39377   0.74145   0.61723   0.00000  Uiso   1.00
H35    H     0.35779   0.96658   0.27936   0.00000  Uiso   1.00
H36    H     0.76301   0.00558   0.68035   0.00000  Uiso   1.00
H37    H     0.52926   0.57175   0.46274   0.00000  Uiso   1.00
O38    O     0.27759   0.89809   0.54194   0.00000  Uiso   1.00
O39    O     0.49728   0.94925   0.75603   0.00000  Uiso   1.00
O40    O     0.50257   0.38008   0.47054   0.00000  Uiso   1.00
N41    N     0.15762   0.79656   0.42609   0.00000  Uiso   1.00
N42    N     0.60155   0.83304   0.86607   0.00000  Uiso   1.00
N43    N     0.31789   0.42744   0.66259   0.00000  Uiso   1.00
N44    N     0.29127   0.91011   0.30194   0.00000  Uiso   1.00
N45    N     0.73519   0.94658   0.74191   0.00000  Uiso   1.00
N46    N     0.45154   0.54099   0.53844   0.00000  Uiso   1.00
C47    C     0.01399   0.32433   0.49587   0.00000  Uiso   1.00
C48    C     0.08625   0.26327   0.58409   0.00000  Uiso   1.00
C49    C     0.07255   0.27518   0.72743   0.00000  Uiso   1.00
C50    C     0.14732   0.21191   0.78874   0.00000  Uiso   1.00
C51    C     0.24649   0.12811   0.93780   0.00000  Uiso   1.00
C52    C     0.93298   0.25321   0.42977   0.00000  Uiso   1.00
C53    C     0.79042   0.25666   0.44333   0.00000  Uiso   1.00
C54    C     0.73618   0.18493   0.37471   0.00000  Uiso   1.00
C55    C     0.59741   0.08554   0.28409   0.00000  Uiso   1.00
C56    C     0.13042   0.36499   0.37371   0.00000  Uiso   1.00
C57    C     0.15384   0.46243   0.34011   0.00000  Uiso   1.00
C58    C     0.26581   0.48480   0.22427   0.00000  Uiso   1.00
C59    C     0.43359   0.55898   0.04661   0.00000  Uiso   1.00
C60    C     0.17115   0.19080   0.34987   0.00000  Uiso   1.00
C61    C     0.17161   0.19074   0.50479   0.00000  Uiso   1.00
C62    C     0.24643   0.12744   0.56589   0.00000  Uiso   1.00
C63    C     0.23284   0.13925   0.70930   0.00000  Uiso   1.00
C64    C     0.01834   0.18068   0.35046   0.00000  Uiso   1.00
C65    C     0.96430   0.10893   0.28180   0.00000  Uiso   1.00
C66    C     0.82169   0.11227   0.29526   0.00000  Uiso   1.00
C67    C     0.21578   0.29246   0.29440   0.00000  Uiso   1.00
C68    C     0.32773   0.31469   0.17858   0.00000  Uiso   1.00
C69    C     0.35133   0.41214   0.14482   0.00000  Uiso   1.00
H70    H     0.94752   0.38079   0.55761   0.00000  Uiso   1.00
H71    H     0.00647   0.33131   0.78877   0.00000  Uiso   1.00
H72    H     0.72439   0.31280   0.50470   0.00000  Uiso   1.00
H73    H     0.08776   0.51853   0.40150   0.00000  Uiso   1.00
H74    H     0.10942   0.24445   0.01009   0.00000  Uiso   1.00
H75    H     0.51466   0.20544   0.41108   0.00000  Uiso   1.00
H76    H     0.28090   0.63927   0.19346   0.00000  Uiso   1.00
H77    H     0.23761   0.13433   0.28812   0.00000  Uiso   1.00
H78    H     0.31248   0.07132   0.50450   0.00000  Uiso   1.00
H79    H     0.03039   0.05281   0.22043   0.00000  Uiso   1.00
H80    H     0.39377   0.25855   0.11723   0.00000  Uiso   1.00
H81    H     0.35779   0.03342   0.77936   0.00000  Uiso   1.00
H82    H     0.76301   0.99442   0.18035   0.00000  Uiso   1.00
H83    H     0.52926   0.42825   0.96274   0.00000  Uiso   1.00
O84    O     0.27759   0.10191   0.04194   0.00000  Uiso   1.00
O85    O     0.49728   0.05075   0.25603   0.00000  Uiso   1.00
O86    O     0.50257   0.61992   0.97054   0.00000  Uiso   1.00
N87    N     0.15762   0.20344   0.92609   0.00000  Uiso   1.00
N88    N     0.60155   0.16696   0.36607   0.00000  Uiso   1.00
N89    N     0.31789   0.57256   0.16259   0.00000  Uiso   1.00
N90    N     0.29127   0.08989   0.80194   0.00000  Uiso   1.00
N91    N     0.73519   0.05342   0.24191   0.00000  Uiso   1.00
N92    N     0.45154   0.45901   0.03844   0.00000  Uiso   1.00
