data_job_00460
_audit_creation_date              2018-12-19
_audit_creation_method            'Materials Studio'
_symmetry_space_group_name_H-M    'P1'
_symmetry_Int_Tables_number       1
_symmetry_cell_setting            triclinic
loop_
_symmetry_equiv_pos_as_xyz
  x,y,z
_cell_length_a                    16.7307
_cell_length_b                    15.3853
_cell_length_c                    9.8135
_cell_angle_alpha                 90.0000
_cell_angle_beta                  94.1275
_cell_angle_gamma                 90.0000
loop_
_atom_site_label
_atom_site_type_symbol
_atom_site_fract_x
_atom_site_fract_y
_atom_site_fract_z
_atom_site_U_iso_or_equiv
_atom_site_adp_type
_atom_site_occupancy
C1     C     0.31892   0.43959   0.64220   0.00000  Uiso   1.00
C2     C     0.23027   0.42941   0.66549   0.00000  Uiso   1.00
C3     C     0.19305   0.45872   0.77873   0.00000  Uiso   1.00
C4     C     0.11142   0.44304   0.78080   0.00000  Uiso   1.00
C5     C     0.98029   0.43380   0.83334   0.00000  Uiso   1.00
C6     C     0.35037   0.34805   0.61980   0.00000  Uiso   1.00
C7     C     0.41414   0.30897   0.69462   0.00000  Uiso   1.00
C8     C     0.43363   0.22479   0.65820   0.00000  Uiso   1.00
C9     C     0.48899   0.08927   0.63973   0.00000  Uiso   1.00
C10    C     0.32214   0.48649   0.50581   0.00000  Uiso   1.00
C11    C     0.36218   0.56380   0.48478   0.00000  Uiso   1.00
C12    C     0.35791   0.59618   0.35239   0.00000  Uiso   1.00
C13    C     0.36943   0.67561   0.15695   0.00000  Uiso   1.00
C14    C     0.24015   0.35961   0.44448   0.00000  Uiso   1.00
C15    C     0.18749   0.38596   0.55810   0.00000  Uiso   1.00
C16    C     0.10590   0.37023   0.55999   0.00000  Uiso   1.00
C17    C     0.06856   0.39952   0.67321   0.00000  Uiso   1.00
C18    C     0.30759   0.30461   0.51241   0.00000  Uiso   1.00
C19    C     0.32699   0.22048   0.47587   0.00000  Uiso   1.00
C20    C     0.39077   0.18127   0.55061   0.00000  Uiso   1.00
C21    C     0.27935   0.44305   0.39842   0.00000  Uiso   1.00
C22    C     0.27502   0.47531   0.26603   0.00000  Uiso   1.00
C23    C     0.31505   0.55266   0.24480   0.00000  Uiso   1.00
H24    H     0.35223   0.47341   0.72580   0.00000  Uiso   1.00
H25    H     0.22618   0.49233   0.86183   0.00000  Uiso   1.00
H26    H     0.44724   0.34260   0.77771   0.00000  Uiso   1.00
H27    H     0.39528   0.59740   0.56791   0.00000  Uiso   1.00
H28    H     0.06757   0.49413   0.96530   0.00000  Uiso   1.00
H29    H     0.53371   0.17843   0.78790   0.00000  Uiso   1.00
H30    H     0.42414   0.71572   0.34550   0.00000  Uiso   1.00
H31    H     0.20684   0.32579   0.36087   0.00000  Uiso   1.00
H32    H     0.07280   0.33661   0.47687   0.00000  Uiso   1.00
H33    H     0.29387   0.18688   0.39275   0.00000  Uiso   1.00
H34    H     0.24191   0.44168   0.18295   0.00000  Uiso   1.00
H35    H     0.94308   0.36774   0.65286   0.00000  Uiso   1.00
H36    H     0.40923   0.05204   0.47545   0.00000  Uiso   1.00
H37    H     0.29966   0.58933   0.03305   0.00000  Uiso   1.00
O38    O     0.91978   0.44069   0.89199   0.00000  Uiso   1.00
O39    O     0.53135   0.02651   0.65923   0.00000  Uiso   1.00
O40    O     0.38760   0.73143   0.07882   0.00000  Uiso   1.00
N41    N     0.05666   0.46291   0.87583   0.00000  Uiso   1.00
N42    N     0.49247   0.16774   0.70999   0.00000  Uiso   1.00
N43    N     0.39005   0.67005   0.29637   0.00000  Uiso   1.00
N44    N     0.98968   0.39490   0.70771   0.00000  Uiso   1.00
N45    N     0.42548   0.09973   0.54186   0.00000  Uiso   1.00
N46    N     0.32307   0.60204   0.12825   0.00000  Uiso   1.00
C47    C     0.68108   0.93959   0.85780   0.00000  Uiso   1.00
C48    C     0.76973   0.92941   0.83451   0.00000  Uiso   1.00
C49    C     0.80695   0.95872   0.72127   0.00000  Uiso   1.00
C50    C     0.88858   0.94304   0.71920   0.00000  Uiso   1.00
C51    C     0.01971   0.93380   0.66666   0.00000  Uiso   1.00
C52    C     0.64963   0.84805   0.88020   0.00000  Uiso   1.00
C53    C     0.58586   0.80897   0.80538   0.00000  Uiso   1.00
C54    C     0.56637   0.72479   0.84180   0.00000  Uiso   1.00
C55    C     0.51101   0.58927   0.86027   0.00000  Uiso   1.00
C56    C     0.67786   0.98649   0.99419   0.00000  Uiso   1.00
C57    C     0.63782   0.06380   0.01522   0.00000  Uiso   1.00
C58    C     0.64209   0.09618   0.14761   0.00000  Uiso   1.00
C59    C     0.63057   0.17561   0.34305   0.00000  Uiso   1.00
C60    C     0.75985   0.85961   0.05552   0.00000  Uiso   1.00
C61    C     0.81251   0.88596   0.94190   0.00000  Uiso   1.00
C62    C     0.89410   0.87023   0.94001   0.00000  Uiso   1.00
C63    C     0.93144   0.89952   0.82679   0.00000  Uiso   1.00
C64    C     0.69241   0.80461   0.98759   0.00000  Uiso   1.00
C65    C     0.67301   0.72048   0.02413   0.00000  Uiso   1.00
C66    C     0.60923   0.68127   0.94939   0.00000  Uiso   1.00
C67    C     0.72065   0.94305   0.10158   0.00000  Uiso   1.00
C68    C     0.72498   0.97531   0.23397   0.00000  Uiso   1.00
C69    C     0.68495   0.05266   0.25520   0.00000  Uiso   1.00
H70    H     0.64777   0.97341   0.77420   0.00000  Uiso   1.00
H71    H     0.77382   0.99233   0.63817   0.00000  Uiso   1.00
H72    H     0.55276   0.84260   0.72229   0.00000  Uiso   1.00
H73    H     0.60472   0.09740   0.93209   0.00000  Uiso   1.00
H74    H     0.93243   0.99413   0.53470   0.00000  Uiso   1.00
H75    H     0.46629   0.67843   0.71210   0.00000  Uiso   1.00
H76    H     0.57586   0.21572   0.15450   0.00000  Uiso   1.00
H77    H     0.79316   0.82579   0.13913   0.00000  Uiso   1.00
H78    H     0.92720   0.83661   0.02313   0.00000  Uiso   1.00
H79    H     0.70613   0.68688   0.10725   0.00000  Uiso   1.00
H80    H     0.75809   0.94168   0.31705   0.00000  Uiso   1.00
H81    H     0.05692   0.86774   0.84714   0.00000  Uiso   1.00
H82    H     0.59077   0.55204   0.02455   0.00000  Uiso   1.00
H83    H     0.70034   0.08933   0.46695   0.00000  Uiso   1.00
O84    O     0.08022   0.94069   0.60801   0.00000  Uiso   1.00
O85    O     0.46865   0.52651   0.84077   0.00000  Uiso   1.00
O86    O     0.61240   0.23143   0.42118   0.00000  Uiso   1.00
N87    N     0.94334   0.96291   0.62417   0.00000  Uiso   1.00
N88    N     0.50753   0.66774   0.79001   0.00000  Uiso   1.00
N89    N     0.60995   0.17005   0.20363   0.00000  Uiso   1.00
N90    N     0.01032   0.89490   0.79229   0.00000  Uiso   1.00
N91    N     0.57452   0.59973   0.95814   0.00000  Uiso   1.00
N92    N     0.67693   0.10204   0.37175   0.00000  Uiso   1.00
C93    C     0.68108   0.56041   0.35780   0.00000  Uiso   1.00
C94    C     0.76973   0.57059   0.33451   0.00000  Uiso   1.00
C95    C     0.80695   0.54128   0.22127   0.00000  Uiso   1.00
C96    C     0.88858   0.55696   0.21920   0.00000  Uiso   1.00
C97    C     0.01971   0.56620   0.16666   0.00000  Uiso   1.00
C98    C     0.64963   0.65195   0.38020   0.00000  Uiso   1.00
C99    C     0.58586   0.69103   0.30538   0.00000  Uiso   1.00
C100   C     0.56637   0.77521   0.34180   0.00000  Uiso   1.00
C101   C     0.51101   0.91073   0.36027   0.00000  Uiso   1.00
C102   C     0.67786   0.51351   0.49419   0.00000  Uiso   1.00
C103   C     0.63782   0.43620   0.51522   0.00000  Uiso   1.00
C104   C     0.64209   0.40382   0.64761   0.00000  Uiso   1.00
C105   C     0.63057   0.32439   0.84305   0.00000  Uiso   1.00
C106   C     0.75985   0.64039   0.55552   0.00000  Uiso   1.00
C107   C     0.81251   0.61404   0.44190   0.00000  Uiso   1.00
C108   C     0.89410   0.62977   0.44001   0.00000  Uiso   1.00
C109   C     0.93144   0.60048   0.32679   0.00000  Uiso   1.00
C110   C     0.69241   0.69539   0.48759   0.00000  Uiso   1.00
C111   C     0.67301   0.77952   0.52413   0.00000  Uiso   1.00
C112   C     0.60923   0.81873   0.44939   0.00000  Uiso   1.00
C113   C     0.72065   0.55695   0.60158   0.00000  Uiso   1.00
C114   C     0.72498   0.52469   0.73397   0.00000  Uiso   1.00
C115   C     0.68495   0.44734   0.75520   0.00000  Uiso   1.00
H116   H     0.64777   0.52659   0.27420   0.00000  Uiso   1.00
H117   H     0.77382   0.50767   0.13817   0.00000  Uiso   1.00
H118   H     0.55276   0.65740   0.22229   0.00000  Uiso   1.00
H119   H     0.60472   0.40260   0.43209   0.00000  Uiso   1.00
H120   H     0.93243   0.50587   0.03470   0.00000  Uiso   1.00
H121   H     0.46629   0.82157   0.21210   0.00000  Uiso   1.00
H122   H     0.57586   0.28428   0.65450   0.00000  Uiso   1.00
H123   H     0.79316   0.67421   0.63913   0.00000  Uiso   1.00
H124   H     0.92720   0.66339   0.52313   0.00000  Uiso   1.00
H125   H     0.70613   0.81312   0.60725   0.00000  Uiso   1.00
H126   H     0.75809   0.55832   0.81705   0.00000  Uiso   1.00
H127   H     0.05692   0.63226   0.34714   0.00000  Uiso   1.00
H128   H     0.59077   0.94796   0.52455   0.00000  Uiso   1.00
H129   H     0.70034   0.41067   0.96695   0.00000  Uiso   1.00
O130   O     0.08022   0.55931   0.10801   0.00000  Uiso   1.00
O131   O     0.46865   0.97349   0.34077   0.00000  Uiso   1.00
O132   O     0.61240   0.26857   0.92118   0.00000  Uiso   1.00
N133   N     0.94334   0.53709   0.12417   0.00000  Uiso   1.00
N134   N     0.50753   0.83226   0.29001   0.00000  Uiso   1.00
N135   N     0.60995   0.32995   0.70363   0.00000  Uiso   1.00
N136   N     0.01032   0.60510   0.29229   0.00000  Uiso   1.00
N137   N     0.57452   0.90027   0.45814   0.00000  Uiso   1.00
N138   N     0.67693   0.39796   0.87175   0.00000  Uiso   1.00
C139   C     0.31892   0.06041   0.14220   0.00000  Uiso   1.00
C140   C     0.23027   0.07059   0.16549   0.00000  Uiso   1.00
C141   C     0.19305   0.04128   0.27873   0.00000  Uiso   1.00
C142   C     0.11142   0.05696   0.28080   0.00000  Uiso   1.00
C143   C     0.98029   0.06620   0.33334   0.00000  Uiso   1.00
C144   C     0.35037   0.15195   0.11980   0.00000  Uiso   1.00
C145   C     0.41414   0.19103   0.19462   0.00000  Uiso   1.00
C146   C     0.43363   0.27521   0.15820   0.00000  Uiso   1.00
C147   C     0.48899   0.41073   0.13973   0.00000  Uiso   1.00
C148   C     0.32214   0.01351   0.00581   0.00000  Uiso   1.00
C149   C     0.36218   0.93620   0.98478   0.00000  Uiso   1.00
C150   C     0.35791   0.90382   0.85239   0.00000  Uiso   1.00
C151   C     0.36943   0.82439   0.65695   0.00000  Uiso   1.00
C152   C     0.24015   0.14039   0.94448   0.00000  Uiso   1.00
C153   C     0.18749   0.11404   0.05810   0.00000  Uiso   1.00
C154   C     0.10590   0.12977   0.05999   0.00000  Uiso   1.00
C155   C     0.06856   0.10048   0.17321   0.00000  Uiso   1.00
C156   C     0.30759   0.19539   0.01241   0.00000  Uiso   1.00
C157   C     0.32699   0.27952   0.97587   0.00000  Uiso   1.00
C158   C     0.39077   0.31873   0.05061   0.00000  Uiso   1.00
C159   C     0.27935   0.05695   0.89842   0.00000  Uiso   1.00
C160   C     0.27502   0.02469   0.76603   0.00000  Uiso   1.00
C161   C     0.31505   0.94734   0.74480   0.00000  Uiso   1.00
H162   H     0.35223   0.02659   0.22580   0.00000  Uiso   1.00
H163   H     0.22618   0.00767   0.36183   0.00000  Uiso   1.00
H164   H     0.44724   0.15740   0.27771   0.00000  Uiso   1.00
H165   H     0.39528   0.90260   0.06791   0.00000  Uiso   1.00
H166   H     0.06757   0.00587   0.46530   0.00000  Uiso   1.00
H167   H     0.53371   0.32157   0.28790   0.00000  Uiso   1.00
H168   H     0.42414   0.78428   0.84550   0.00000  Uiso   1.00
H169   H     0.20684   0.17421   0.86087   0.00000  Uiso   1.00
H170   H     0.07280   0.16339   0.97687   0.00000  Uiso   1.00
H171   H     0.29387   0.31312   0.89275   0.00000  Uiso   1.00
H172   H     0.24191   0.05832   0.68295   0.00000  Uiso   1.00
H173   H     0.94308   0.13226   0.15286   0.00000  Uiso   1.00
H174   H     0.40923   0.44796   0.97545   0.00000  Uiso   1.00
H175   H     0.29966   0.91067   0.53305   0.00000  Uiso   1.00
O176   O     0.91978   0.05931   0.39199   0.00000  Uiso   1.00
O177   O     0.53135   0.47349   0.15923   0.00000  Uiso   1.00
O178   O     0.38760   0.76857   0.57882   0.00000  Uiso   1.00
N179   N     0.05666   0.03709   0.37583   0.00000  Uiso   1.00
N180   N     0.49247   0.33226   0.20999   0.00000  Uiso   1.00
N181   N     0.39005   0.82995   0.79637   0.00000  Uiso   1.00
N182   N     0.98968   0.10510   0.20771   0.00000  Uiso   1.00
N183   N     0.42548   0.40027   0.04186   0.00000  Uiso   1.00
N184   N     0.32307   0.89796   0.62825   0.00000  Uiso   1.00
