data_job_05609
_audit_creation_date              2018-12-19
_audit_creation_method            'Materials Studio'
_symmetry_space_group_name_H-M    'P1'
_symmetry_Int_Tables_number       1
_symmetry_cell_setting            triclinic
loop_
_symmetry_equiv_pos_as_xyz
  x,y,z
_cell_length_a                    18.3744
_cell_length_b                    18.3744
_cell_length_c                    13.4318
_cell_angle_alpha                 90.0000
_cell_angle_beta                  90.0000
_cell_angle_gamma                 120.0000
loop_
_atom_site_label
_atom_site_type_symbol
_atom_site_fract_x
_atom_site_fract_y
_atom_site_fract_z
_atom_site_U_iso_or_equiv
_atom_site_adp_type
_atom_site_occupancy
C1     C     0.50279   0.95886   0.07410   0.00000  Uiso   1.00
C2     C     0.55523   0.04877   0.03617   0.00000  Uiso   1.00
C3     C     0.58919   0.07209   0.94140   0.00000  Uiso   1.00
C4     C     0.63526   0.15759   0.92126   0.00000  Uiso   1.00
C5     C     0.71497   0.28808   0.85142   0.00000  Uiso   1.00
C6     C     0.54764   0.95320   0.16678   0.00000  Uiso   1.00
C7     C     0.57520   0.89617   0.18182   0.00000  Uiso   1.00
C8     C     0.61487   0.90121   0.27164   0.00000  Uiso   1.00
C9     C     0.68273   0.88329   0.40460   0.00000  Uiso   1.00
C10    C     0.42018   0.95022   0.11033   0.00000  Uiso   1.00
C11    C     0.34056   0.89067   0.07793   0.00000  Uiso   1.00
C12    C     0.27290   0.89319   0.12024   0.00000  Uiso   1.00
C13    C     0.14286   0.87065   0.16555   0.00000  Uiso   1.00
C14    C     0.52422   0.06920   0.20686   0.00000  Uiso   1.00
C15    C     0.56688   0.10870   0.10828   0.00000  Uiso   1.00
C16    C     0.61290   0.19418   0.08828   0.00000  Uiso   1.00
C17    C     0.64692   0.21763   0.99350   0.00000  Uiso   1.00
C18    C     0.55928   0.01314   0.23889   0.00000  Uiso   1.00
C19    C     0.59891   0.01826   0.32871   0.00000  Uiso   1.00
C20    C     0.62653   0.96125   0.34388   0.00000  Uiso   1.00
C21    C     0.43181   0.01016   0.18244   0.00000  Uiso   1.00
C22    C     0.36427   0.01276   0.22481   0.00000  Uiso   1.00
C23    C     0.28457   0.95323   0.19249   0.00000  Uiso   1.00
H24    H     0.49373   0.91219   0.01796   0.00000  Uiso   1.00
H25    H     0.58018   0.02569   0.88562   0.00000  Uiso   1.00
H26    H     0.56618   0.84979   0.12601   0.00000  Uiso   1.00
H27    H     0.33157   0.84430   0.02213   0.00000  Uiso   1.00
H28    H     0.68118   0.17796   0.77071   0.00000  Uiso   1.00
H29    H     0.65164   0.80704   0.27760   0.00000  Uiso   1.00
H30    H     0.15693   0.79546   0.05855   0.00000  Uiso   1.00
H31    H     0.53328   0.11587   0.26300   0.00000  Uiso   1.00
H32    H     0.62190   0.24055   0.14410   0.00000  Uiso   1.00
H33    H     0.60790   0.06465   0.38450   0.00000  Uiso   1.00
H34    H     0.37330   0.05916   0.28061   0.00000  Uiso   1.00
H35    H     0.71505   0.35235   0.98050   0.00000  Uiso   1.00
H36    H     0.68551   0.98143   0.48740   0.00000  Uiso   1.00
H37    H     0.19080   0.96985   0.26834   0.00000  Uiso   1.00
O38    O     0.75572   0.34350   0.79298   0.00000  Uiso   1.00
O39    O     0.71695   0.85686   0.45801   0.00000  Uiso   1.00
O40    O     0.06791   0.84166   0.17061   0.00000  Uiso   1.00
N41    N     0.67698   0.20189   0.83639   0.00000  Uiso   1.00
N42    N     0.64937   0.85511   0.31030   0.00000  Uiso   1.00
N43    N     0.18686   0.84427   0.10553   0.00000  Uiso   1.00
N44    N     0.69520   0.29573   0.94928   0.00000  Uiso   1.00
N45    N     0.66759   0.94895   0.42319   0.00000  Uiso   1.00
N46    N     0.20508   0.93811   0.21841   0.00000  Uiso   1.00
C47    C     0.04114   0.54393   0.40743   0.00000  Uiso   1.00
C48    C     0.95123   0.50647   0.36950   0.00000  Uiso   1.00
C49    C     0.92791   0.51710   0.27473   0.00000  Uiso   1.00
C50    C     0.84241   0.47768   0.25460   0.00000  Uiso   1.00
C51    C     0.71192   0.42689   0.18475   0.00000  Uiso   1.00
C52    C     0.04680   0.59444   0.50011   0.00000  Uiso   1.00
C53    C     0.10383   0.67903   0.51516   0.00000  Uiso   1.00
C54    C     0.09879   0.71366   0.60498   0.00000  Uiso   1.00
C55    C     0.11671   0.79944   0.73793   0.00000  Uiso   1.00
C56    C     0.04978   0.46995   0.44366   0.00000  Uiso   1.00
C57    C     0.10933   0.44989   0.41127   0.00000  Uiso   1.00
C58    C     0.10681   0.37972   0.45358   0.00000  Uiso   1.00
C59    C     0.12935   0.27221   0.49888   0.00000  Uiso   1.00
C60    C     0.93080   0.45501   0.54019   0.00000  Uiso   1.00
C61    C     0.89130   0.45817   0.44162   0.00000  Uiso   1.00
C62    C     0.80582   0.41872   0.42162   0.00000  Uiso   1.00
C63    C     0.78237   0.42929   0.32683   0.00000  Uiso   1.00
C64    C     0.98686   0.54615   0.57222   0.00000  Uiso   1.00
C65    C     0.98174   0.58065   0.66204   0.00000  Uiso   1.00
C66    C     0.03875   0.66528   0.67722   0.00000  Uiso   1.00
C67    C     0.98984   0.42165   0.51577   0.00000  Uiso   1.00
C68    C     0.98724   0.35151   0.55815   0.00000  Uiso   1.00
C69    C     0.04677   0.33133   0.52582   0.00000  Uiso   1.00
H70    H     0.08781   0.58153   0.35129   0.00000  Uiso   1.00
H71    H     0.97431   0.55449   0.21895   0.00000  Uiso   1.00
H72    H     0.15021   0.71639   0.45934   0.00000  Uiso   1.00
H73    H     0.15570   0.48728   0.35546   0.00000  Uiso   1.00
H74    H     0.82204   0.50322   0.10404   0.00000  Uiso   1.00
H75    H     0.19296   0.84460   0.61093   0.00000  Uiso   1.00
H76    H     0.20454   0.36147   0.39188   0.00000  Uiso   1.00
H77    H     0.88413   0.41741   0.59634   0.00000  Uiso   1.00
H78    H     0.75945   0.38135   0.47744   0.00000  Uiso   1.00
H79    H     0.93535   0.54326   0.71783   0.00000  Uiso   1.00
H80    H     0.94084   0.31415   0.61395   0.00000  Uiso   1.00
H81    H     0.64765   0.36270   0.31383   0.00000  Uiso   1.00
H82    H     0.01857   0.70408   0.82073   0.00000  Uiso   1.00
H83    H     0.03015   0.22095   0.60168   0.00000  Uiso   1.00
O84    O     0.65650   0.41223   0.12631   0.00000  Uiso   1.00
O85    O     0.14314   0.86010   0.79134   0.00000  Uiso   1.00
O86    O     0.15834   0.22624   0.50395   0.00000  Uiso   1.00
N87    N     0.79811   0.47509   0.16972   0.00000  Uiso   1.00
N88    N     0.14489   0.79426   0.64363   0.00000  Uiso   1.00
N89    N     0.15573   0.34259   0.43886   0.00000  Uiso   1.00
N90    N     0.70427   0.39947   0.28261   0.00000  Uiso   1.00
N91    N     0.05105   0.71864   0.75652   0.00000  Uiso   1.00
N92    N     0.06189   0.26697   0.55175   0.00000  Uiso   1.00
C93    C     0.45607   0.49721   0.74076   0.00000  Uiso   1.00
C94    C     0.49353   0.44477   0.70284   0.00000  Uiso   1.00
C95    C     0.48290   0.41081   0.60807   0.00000  Uiso   1.00
C96    C     0.52232   0.36474   0.58793   0.00000  Uiso   1.00
C97    C     0.57311   0.28503   0.51809   0.00000  Uiso   1.00
C98    C     0.40556   0.45236   0.83344   0.00000  Uiso   1.00
C99    C     0.32097   0.42480   0.84849   0.00000  Uiso   1.00
C100   C     0.28634   0.38513   0.93831   0.00000  Uiso   1.00
C101   C     0.20056   0.31727   0.07126   0.00000  Uiso   1.00
C102   C     0.53005   0.57982   0.77699   0.00000  Uiso   1.00
C103   C     0.55011   0.65944   0.74460   0.00000  Uiso   1.00
C104   C     0.62028   0.72710   0.78691   0.00000  Uiso   1.00
C105   C     0.72779   0.85714   0.83222   0.00000  Uiso   1.00
C106   C     0.54499   0.47578   0.87353   0.00000  Uiso   1.00
C107   C     0.54183   0.43312   0.77495   0.00000  Uiso   1.00
C108   C     0.58128   0.38710   0.75495   0.00000  Uiso   1.00
C109   C     0.57071   0.35308   0.66017   0.00000  Uiso   1.00
C110   C     0.45385   0.44072   0.90555   0.00000  Uiso   1.00
C111   C     0.41935   0.40109   0.99537   0.00000  Uiso   1.00
C112   C     0.33472   0.37347   0.01055   0.00000  Uiso   1.00
C113   C     0.57835   0.56819   0.84910   0.00000  Uiso   1.00
C114   C     0.64849   0.63573   0.89148   0.00000  Uiso   1.00
C115   C     0.66867   0.71543   0.85915   0.00000  Uiso   1.00
H116   H     0.41847   0.50627   0.68463   0.00000  Uiso   1.00
H117   H     0.44551   0.41982   0.55229   0.00000  Uiso   1.00
H118   H     0.28361   0.43382   0.79268   0.00000  Uiso   1.00
H119   H     0.51272   0.66843   0.68880   0.00000  Uiso   1.00
H120   H     0.49678   0.31882   0.43737   0.00000  Uiso   1.00
H121   H     0.15540   0.34836   0.94426   0.00000  Uiso   1.00
H122   H     0.63853   0.84307   0.72521   0.00000  Uiso   1.00
H123   H     0.58259   0.46672   0.92967   0.00000  Uiso   1.00
H124   H     0.61865   0.37810   0.81077   0.00000  Uiso   1.00
H125   H     0.45674   0.39210   0.05116   0.00000  Uiso   1.00
H126   H     0.68585   0.62670   0.94728   0.00000  Uiso   1.00
H127   H     0.63730   0.28495   0.64717   0.00000  Uiso   1.00
H128   H     0.29592   0.31449   0.15406   0.00000  Uiso   1.00
H129   H     0.77905   0.80920   0.93501   0.00000  Uiso   1.00
O130   O     0.58777   0.24428   0.45964   0.00000  Uiso   1.00
O131   O     0.13990   0.28305   0.12467   0.00000  Uiso   1.00
O132   O     0.77376   0.93209   0.83728   0.00000  Uiso   1.00
N133   N     0.52491   0.32302   0.50306   0.00000  Uiso   1.00
N134   N     0.20574   0.35063   0.97697   0.00000  Uiso   1.00
N135   N     0.65741   0.81314   0.77219   0.00000  Uiso   1.00
N136   N     0.60053   0.30480   0.61595   0.00000  Uiso   1.00
N137   N     0.28136   0.33241   0.08986   0.00000  Uiso   1.00
N138   N     0.73303   0.79492   0.88508   0.00000  Uiso   1.00
C139   C     0.49721   0.04114   0.57410   0.00000  Uiso   1.00
C140   C     0.44477   0.95123   0.53617   0.00000  Uiso   1.00
C141   C     0.41081   0.92791   0.44140   0.00000  Uiso   1.00
C142   C     0.36474   0.84241   0.42126   0.00000  Uiso   1.00
C143   C     0.28503   0.71192   0.35142   0.00000  Uiso   1.00
C144   C     0.45236   0.04680   0.66678   0.00000  Uiso   1.00
C145   C     0.42480   0.10383   0.68182   0.00000  Uiso   1.00
C146   C     0.38513   0.09879   0.77164   0.00000  Uiso   1.00
C147   C     0.31727   0.11671   0.90460   0.00000  Uiso   1.00
C148   C     0.57982   0.04978   0.61033   0.00000  Uiso   1.00
C149   C     0.65944   0.10933   0.57793   0.00000  Uiso   1.00
C150   C     0.72710   0.10681   0.62024   0.00000  Uiso   1.00
C151   C     0.85714   0.12935   0.66555   0.00000  Uiso   1.00
C152   C     0.47578   0.93080   0.70686   0.00000  Uiso   1.00
C153   C     0.43312   0.89130   0.60828   0.00000  Uiso   1.00
C154   C     0.38710   0.80582   0.58828   0.00000  Uiso   1.00
C155   C     0.35308   0.78237   0.49350   0.00000  Uiso   1.00
C156   C     0.44072   0.98686   0.73889   0.00000  Uiso   1.00
C157   C     0.40109   0.98174   0.82871   0.00000  Uiso   1.00
C158   C     0.37347   0.03875   0.84388   0.00000  Uiso   1.00
C159   C     0.56819   0.98984   0.68244   0.00000  Uiso   1.00
C160   C     0.63573   0.98724   0.72481   0.00000  Uiso   1.00
C161   C     0.71543   0.04677   0.69249   0.00000  Uiso   1.00
H162   H     0.50627   0.08781   0.51796   0.00000  Uiso   1.00
H163   H     0.41982   0.97431   0.38562   0.00000  Uiso   1.00
H164   H     0.43382   0.15021   0.62601   0.00000  Uiso   1.00
H165   H     0.66843   0.15570   0.52213   0.00000  Uiso   1.00
H166   H     0.31882   0.82204   0.27071   0.00000  Uiso   1.00
H167   H     0.34836   0.19296   0.77760   0.00000  Uiso   1.00
H168   H     0.84307   0.20454   0.55855   0.00000  Uiso   1.00
H169   H     0.46672   0.88413   0.76300   0.00000  Uiso   1.00
H170   H     0.37810   0.75945   0.64410   0.00000  Uiso   1.00
H171   H     0.39210   0.93535   0.88450   0.00000  Uiso   1.00
H172   H     0.62670   0.94084   0.78061   0.00000  Uiso   1.00
H173   H     0.28495   0.64765   0.48050   0.00000  Uiso   1.00
H174   H     0.31449   0.01857   0.98740   0.00000  Uiso   1.00
H175   H     0.80920   0.03015   0.76834   0.00000  Uiso   1.00
O176   O     0.24428   0.65650   0.29298   0.00000  Uiso   1.00
O177   O     0.28305   0.14314   0.95801   0.00000  Uiso   1.00
O178   O     0.93209   0.15834   0.67061   0.00000  Uiso   1.00
N179   N     0.32302   0.79811   0.33639   0.00000  Uiso   1.00
N180   N     0.35063   0.14489   0.81030   0.00000  Uiso   1.00
N181   N     0.81314   0.15573   0.60553   0.00000  Uiso   1.00
N182   N     0.30480   0.70427   0.44928   0.00000  Uiso   1.00
N183   N     0.33241   0.05105   0.92319   0.00000  Uiso   1.00
N184   N     0.79492   0.06189   0.71841   0.00000  Uiso   1.00
C185   C     0.95886   0.45607   0.90743   0.00000  Uiso   1.00
C186   C     0.04877   0.49353   0.86950   0.00000  Uiso   1.00
C187   C     0.07209   0.48290   0.77473   0.00000  Uiso   1.00
C188   C     0.15759   0.52232   0.75460   0.00000  Uiso   1.00
C189   C     0.28808   0.57311   0.68475   0.00000  Uiso   1.00
C190   C     0.95320   0.40556   0.00011   0.00000  Uiso   1.00
C191   C     0.89617   0.32097   0.01516   0.00000  Uiso   1.00
C192   C     0.90121   0.28634   0.10498   0.00000  Uiso   1.00
C193   C     0.88329   0.20056   0.23793   0.00000  Uiso   1.00
C194   C     0.95022   0.53005   0.94366   0.00000  Uiso   1.00
C195   C     0.89067   0.55011   0.91127   0.00000  Uiso   1.00
C196   C     0.89319   0.62028   0.95358   0.00000  Uiso   1.00
C197   C     0.87065   0.72779   0.99888   0.00000  Uiso   1.00
C198   C     0.06920   0.54499   0.04019   0.00000  Uiso   1.00
C199   C     0.10870   0.54183   0.94162   0.00000  Uiso   1.00
C200   C     0.19418   0.58128   0.92162   0.00000  Uiso   1.00
C201   C     0.21763   0.57071   0.82683   0.00000  Uiso   1.00
C202   C     0.01314   0.45385   0.07222   0.00000  Uiso   1.00
C203   C     0.01826   0.41935   0.16204   0.00000  Uiso   1.00
C204   C     0.96125   0.33472   0.17722   0.00000  Uiso   1.00
C205   C     0.01016   0.57835   0.01577   0.00000  Uiso   1.00
C206   C     0.01276   0.64849   0.05815   0.00000  Uiso   1.00
C207   C     0.95323   0.66867   0.02582   0.00000  Uiso   1.00
H208   H     0.91219   0.41847   0.85129   0.00000  Uiso   1.00
H209   H     0.02569   0.44551   0.71895   0.00000  Uiso   1.00
H210   H     0.84979   0.28361   0.95934   0.00000  Uiso   1.00
H211   H     0.84430   0.51272   0.85546   0.00000  Uiso   1.00
H212   H     0.17796   0.49678   0.60404   0.00000  Uiso   1.00
H213   H     0.80704   0.15540   0.11093   0.00000  Uiso   1.00
H214   H     0.79546   0.63853   0.89188   0.00000  Uiso   1.00
H215   H     0.11587   0.58259   0.09634   0.00000  Uiso   1.00
H216   H     0.24055   0.61865   0.97744   0.00000  Uiso   1.00
H217   H     0.06465   0.45674   0.21783   0.00000  Uiso   1.00
H218   H     0.05916   0.68585   0.11395   0.00000  Uiso   1.00
H219   H     0.35235   0.63730   0.81383   0.00000  Uiso   1.00
H220   H     0.98143   0.29592   0.32073   0.00000  Uiso   1.00
H221   H     0.96985   0.77905   0.10168   0.00000  Uiso   1.00
O222   O     0.34350   0.58777   0.62631   0.00000  Uiso   1.00
O223   O     0.85686   0.13990   0.29134   0.00000  Uiso   1.00
O224   O     0.84166   0.77376   0.00395   0.00000  Uiso   1.00
N225   N     0.20189   0.52491   0.66972   0.00000  Uiso   1.00
N226   N     0.85511   0.20574   0.14363   0.00000  Uiso   1.00
N227   N     0.84427   0.65741   0.93886   0.00000  Uiso   1.00
N228   N     0.29573   0.60053   0.78261   0.00000  Uiso   1.00
N229   N     0.94895   0.28136   0.25652   0.00000  Uiso   1.00
N230   N     0.93811   0.73303   0.05175   0.00000  Uiso   1.00
C231   C     0.54393   0.50279   0.24076   0.00000  Uiso   1.00
C232   C     0.50647   0.55523   0.20284   0.00000  Uiso   1.00
C233   C     0.51710   0.58919   0.10807   0.00000  Uiso   1.00
C234   C     0.47768   0.63526   0.08793   0.00000  Uiso   1.00
C235   C     0.42689   0.71497   0.01809   0.00000  Uiso   1.00
C236   C     0.59444   0.54764   0.33344   0.00000  Uiso   1.00
C237   C     0.67903   0.57520   0.34849   0.00000  Uiso   1.00
C238   C     0.71366   0.61487   0.43831   0.00000  Uiso   1.00
C239   C     0.79944   0.68273   0.57126   0.00000  Uiso   1.00
C240   C     0.46995   0.42018   0.27699   0.00000  Uiso   1.00
C241   C     0.44989   0.34056   0.24460   0.00000  Uiso   1.00
C242   C     0.37972   0.27290   0.28691   0.00000  Uiso   1.00
C243   C     0.27221   0.14286   0.33222   0.00000  Uiso   1.00
C244   C     0.45501   0.52422   0.37353   0.00000  Uiso   1.00
C245   C     0.45817   0.56688   0.27495   0.00000  Uiso   1.00
C246   C     0.41872   0.61290   0.25495   0.00000  Uiso   1.00
C247   C     0.42929   0.64692   0.16017   0.00000  Uiso   1.00
C248   C     0.54615   0.55928   0.40555   0.00000  Uiso   1.00
C249   C     0.58065   0.59891   0.49537   0.00000  Uiso   1.00
C250   C     0.66528   0.62653   0.51055   0.00000  Uiso   1.00
C251   C     0.42165   0.43181   0.34910   0.00000  Uiso   1.00
C252   C     0.35151   0.36427   0.39148   0.00000  Uiso   1.00
C253   C     0.33133   0.28457   0.35915   0.00000  Uiso   1.00
H254   H     0.58153   0.49373   0.18463   0.00000  Uiso   1.00
H255   H     0.55449   0.58018   0.05229   0.00000  Uiso   1.00
H256   H     0.71639   0.56618   0.29268   0.00000  Uiso   1.00
H257   H     0.48728   0.33157   0.18880   0.00000  Uiso   1.00
H258   H     0.50322   0.68118   0.93737   0.00000  Uiso   1.00
H259   H     0.84460   0.65164   0.44426   0.00000  Uiso   1.00
H260   H     0.36147   0.15693   0.22521   0.00000  Uiso   1.00
H261   H     0.41741   0.53328   0.42967   0.00000  Uiso   1.00
H262   H     0.38135   0.62190   0.31077   0.00000  Uiso   1.00
H263   H     0.54326   0.60790   0.55116   0.00000  Uiso   1.00
H264   H     0.31415   0.37330   0.44728   0.00000  Uiso   1.00
H265   H     0.36270   0.71505   0.14717   0.00000  Uiso   1.00
H266   H     0.70408   0.68551   0.65406   0.00000  Uiso   1.00
H267   H     0.22095   0.19080   0.43501   0.00000  Uiso   1.00
O268   O     0.41223   0.75572   0.95964   0.00000  Uiso   1.00
O269   O     0.86010   0.71695   0.62467   0.00000  Uiso   1.00
O270   O     0.22624   0.06791   0.33728   0.00000  Uiso   1.00
N271   N     0.47509   0.67698   0.00306   0.00000  Uiso   1.00
N272   N     0.79426   0.64937   0.47697   0.00000  Uiso   1.00
N273   N     0.34259   0.18686   0.27219   0.00000  Uiso   1.00
N274   N     0.39947   0.69520   0.11595   0.00000  Uiso   1.00
N275   N     0.71864   0.66759   0.58986   0.00000  Uiso   1.00
N276   N     0.26697   0.20508   0.38508   0.00000  Uiso   1.00
