data_job_05993
_audit_creation_date              2018-12-19
_audit_creation_method            'Materials Studio'
_symmetry_space_group_name_H-M    'P1'
_symmetry_Int_Tables_number       1
_symmetry_cell_setting            triclinic
loop_
_symmetry_equiv_pos_as_xyz
  x,y,z
_cell_length_a                    16.5831
_cell_length_b                    16.2846
_cell_length_c                    15.8102
_cell_angle_alpha                 100.1930
_cell_angle_beta                  100.3310
_cell_angle_gamma                 99.9530
loop_
_atom_site_label
_atom_site_type_symbol
_atom_site_fract_x
_atom_site_fract_y
_atom_site_fract_z
_atom_site_U_iso_or_equiv
_atom_site_adp_type
_atom_site_occupancy
C1     C     0.80745   0.23828   0.37849   0.00000  Uiso   1.00
C2     C     0.83707   0.21213   0.29372   0.00000  Uiso   1.00
C3     C     0.91489   0.24385   0.27791   0.00000  Uiso   1.00
C4     C     0.92990   0.21179   0.19614   0.00000  Uiso   1.00
C5     C     0.98511   0.18058   0.07416   0.00000  Uiso   1.00
C6     C     0.72664   0.26888   0.35171   0.00000  Uiso   1.00
C7     C     0.71162   0.34831   0.38468   0.00000  Uiso   1.00
C8     C     0.63366   0.36401   0.35173   0.00000  Uiso   1.00
C9     C     0.51741   0.42089   0.31984   0.00000  Uiso   1.00
C10    C     0.78206   0.15615   0.40979   0.00000  Uiso   1.00
C11    C     0.81361   0.14079   0.49159   0.00000  Uiso   1.00
C12    C     0.78230   0.06158   0.50754   0.00000  Uiso   1.00
C13    C     0.75209   0.94342   0.56582   0.00000  Uiso   1.00
C14    C     0.69570   0.12492   0.26137   0.00000  Uiso   1.00
C15    C     0.77637   0.15056   0.23010   0.00000  Uiso   1.00
C16    C     0.79126   0.11843   0.14833   0.00000  Uiso   1.00
C17    C     0.86910   0.15010   0.13241   0.00000  Uiso   1.00
C18    C     0.66594   0.20731   0.28810   0.00000  Uiso   1.00
C19    C     0.58799   0.22289   0.25509   0.00000  Uiso   1.00
C20    C     0.57286   0.30233   0.28800   0.00000  Uiso   1.00
C21    C     0.72136   0.09457   0.34617   0.00000  Uiso   1.00
C22    C     0.68999   0.01537   0.36200   0.00000  Uiso   1.00
C23    C     0.72149   0.99989   0.44381   0.00000  Uiso   1.00
H24    H     0.85470   0.28622   0.42802   0.00000  Uiso   1.00
H25    H     0.96185   0.29151   0.32716   0.00000  Uiso   1.00
H26    H     0.75860   0.39595   0.43391   0.00000  Uiso   1.00
H27    H     0.86058   0.18846   0.54080   0.00000  Uiso   1.00
H28    H     0.05386   0.27024   0.18727   0.00000  Uiso   1.00
H29    H     0.62530   0.49045   0.41238   0.00000  Uiso   1.00
H30    H     0.84034   0.05291   0.63779   0.00000  Uiso   1.00
H31    H     0.64845   0.07698   0.21184   0.00000  Uiso   1.00
H32    H     0.74428   0.07078   0.09911   0.00000  Uiso   1.00
H33    H     0.54103   0.17522   0.20587   0.00000  Uiso   1.00
H34    H     0.64302   0.96773   0.31276   0.00000  Uiso   1.00
H35    H     0.87728   0.09109   0.00218   0.00000  Uiso   1.00
H36    H     0.44871   0.31130   0.22730   0.00000  Uiso   1.00
H37    H     0.66376   0.87376   0.45270   0.00000  Uiso   1.00
O38    O     0.03232   0.18039   0.02446   0.00000  Uiso   1.00
O39    O     0.47006   0.46928   0.31981   0.00000  Uiso   1.00
O40    O     0.75220   0.89525   0.61554   0.00000  Uiso   1.00
N41    N     0.99916   0.22892   0.15918   0.00000  Uiso   1.00
N42    N     0.59848   0.43480   0.36964   0.00000  Uiso   1.00
N43    N     0.79951   0.02575   0.58039   0.00000  Uiso   1.00
N44    N     0.90414   0.13252   0.05959   0.00000  Uiso   1.00
N45    N     0.50346   0.33840   0.27005   0.00000  Uiso   1.00
N46    N     0.70450   0.92935   0.48079   0.00000  Uiso   1.00
C47    C     0.37341   0.80685   0.23866   0.00000  Uiso   1.00
C48    C     0.29251   0.83725   0.21173   0.00000  Uiso   1.00
C49    C     0.27731   0.91662   0.24458   0.00000  Uiso   1.00
C50    C     0.19929   0.93212   0.21152   0.00000  Uiso   1.00
C51    C     0.08287   0.98870   0.17942   0.00000  Uiso   1.00
C52    C     0.34815   0.72473   0.27003   0.00000  Uiso   1.00
C53    C     0.37974   0.70950   0.35189   0.00000  Uiso   1.00
C54    C     0.34857   0.63027   0.36790   0.00000  Uiso   1.00
C55    C     0.31858   0.51213   0.42628   0.00000  Uiso   1.00
C56    C     0.40315   0.78071   0.15397   0.00000  Uiso   1.00
C57    C     0.48099   0.81252   0.13823   0.00000  Uiso   1.00
C58    C     0.49614   0.78040   0.05653   0.00000  Uiso   1.00
C59    C     0.55154   0.74918   0.93470   0.00000  Uiso   1.00
C60    C     0.26190   0.69324   0.12155   0.00000  Uiso   1.00
C61    C     0.23195   0.77554   0.14813   0.00000  Uiso   1.00
C62    C     0.15394   0.79092   0.11501   0.00000  Uiso   1.00
C63    C     0.13862   0.87030   0.14779   0.00000  Uiso   1.00
C64    C     0.28759   0.66302   0.20643   0.00000  Uiso   1.00
C65    C     0.25637   0.58380   0.22232   0.00000  Uiso   1.00
C66    C     0.28789   0.56845   0.30417   0.00000  Uiso   1.00
C67    C     0.34259   0.71900   0.09035   0.00000  Uiso   1.00
C68    C     0.35762   0.68682   0.00866   0.00000  Uiso   1.00
C69    C     0.43546   0.71858   0.99281   0.00000  Uiso   1.00
H70    H     0.42056   0.85489   0.28819   0.00000  Uiso   1.00
H71    H     0.32419   0.96436   0.29381   0.00000  Uiso   1.00
H72    H     0.42661   0.75726   0.40110   0.00000  Uiso   1.00
H73    H     0.52785   0.86027   0.18747   0.00000  Uiso   1.00
H74    H     0.19062   0.05850   0.27202   0.00000  Uiso   1.00
H75    H     0.40660   0.62181   0.49822   0.00000  Uiso   1.00
H76    H     0.62008   0.83903   0.04776   0.00000  Uiso   1.00
H77    H     0.21475   0.64519   0.07202   0.00000  Uiso   1.00
H78    H     0.10708   0.74315   0.06578   0.00000  Uiso   1.00
H79    H     0.20950   0.53606   0.17307   0.00000  Uiso   1.00
H80    H     0.31073   0.63907   0.95945   0.00000  Uiso   1.00
H81    H     0.01440   0.87896   0.08694   0.00000  Uiso   1.00
H82    H     0.23039   0.44227   0.31315   0.00000  Uiso   1.00
H83    H     0.44386   0.65949   0.86269   0.00000  Uiso   1.00
O84    O     0.03539   0.03694   0.17930   0.00000  Uiso   1.00
O85    O     0.31876   0.46403   0.47607   0.00000  Uiso   1.00
O86    O     0.59883   0.74902   0.88507   0.00000  Uiso   1.00
N87    N     0.16393   0.00280   0.22930   0.00000  Uiso   1.00
N88    N     0.36585   0.59453   0.44080   0.00000  Uiso   1.00
N89    N     0.56544   0.79760   0.01966   0.00000  Uiso   1.00
N90    N     0.06911   0.90620   0.12972   0.00000  Uiso   1.00
N91    N     0.27103   0.49793   0.34121   0.00000  Uiso   1.00
N92    N     0.47062   0.70099   0.92008   0.00000  Uiso   1.00
C93    C     0.23769   0.37509   0.80643   0.00000  Uiso   1.00
C94    C     0.21229   0.29288   0.83759   0.00000  Uiso   1.00
C95    C     0.24376   0.27745   0.91938   0.00000  Uiso   1.00
C96    C     0.21249   0.19817   0.93519   0.00000  Uiso   1.00
C97    C     0.18230   0.07986   0.99326   0.00000  Uiso   1.00
C98    C     0.26751   0.34908   0.72175   0.00000  Uiso   1.00
C99    C     0.34540   0.38092   0.70614   0.00000  Uiso   1.00
C100   C     0.36060   0.34895   0.62443   0.00000  Uiso   1.00
C101   C     0.41610   0.31795   0.50262   0.00000  Uiso   1.00
C102   C     0.15687   0.40561   0.77951   0.00000  Uiso   1.00
C103   C     0.14173   0.48500   0.81244   0.00000  Uiso   1.00
C104   C     0.06378   0.50064   0.77934   0.00000  Uiso   1.00
C105   C     0.94750   0.55741   0.74722   0.00000  Uiso   1.00
C106   C     0.12619   0.26172   0.68906   0.00000  Uiso   1.00
C107   C     0.15173   0.23130   0.77384   0.00000  Uiso   1.00
C108   C     0.12040   0.15202   0.78953   0.00000  Uiso   1.00
C109   C     0.15182   0.13648   0.87133   0.00000  Uiso   1.00
C110   C     0.20695   0.28750   0.65800   0.00000  Uiso   1.00
C111   C     0.22203   0.25548   0.57629   0.00000  Uiso   1.00
C112   C     0.29993   0.28726   0.56056   0.00000  Uiso   1.00
C113   C     0.09630   0.34403   0.71576   0.00000  Uiso   1.00
C114   C     0.01837   0.35956   0.68259   0.00000  Uiso   1.00
C115   C     0.00311   0.43895   0.71548   0.00000  Uiso   1.00
H116   H     0.28484   0.42303   0.85606   0.00000  Uiso   1.00
H117   H     0.29064   0.32512   0.96870   0.00000  Uiso   1.00
H118   H     0.39224   0.42858   0.75548   0.00000  Uiso   1.00
H119   H     0.18861   0.53263   0.86178   0.00000  Uiso   1.00
H120   H     0.27037   0.18940   0.06546   0.00000  Uiso   1.00
H121   H     0.48461   0.40757   0.61587   0.00000  Uiso   1.00
H122   H     0.05521   0.62699   0.84001   0.00000  Uiso   1.00
H123   H     0.07904   0.21377   0.63942   0.00000  Uiso   1.00
H124   H     0.07354   0.10438   0.74018   0.00000  Uiso   1.00
H125   H     0.17515   0.20783   0.52697   0.00000  Uiso   1.00
H126   H     0.97152   0.31189   0.63326   0.00000  Uiso   1.00
H127   H     0.09417   0.01023   0.87998   0.00000  Uiso   1.00
H128   H     0.30841   0.22841   0.43040   0.00000  Uiso   1.00
H129   H     0.87901   0.44783   0.65454   0.00000  Uiso   1.00
O130   O     0.18239   0.03162   0.04290   0.00000  Uiso   1.00
O131   O     0.46346   0.31786   0.45306   0.00000  Uiso   1.00
O132   O     0.90009   0.60574   0.74713   0.00000  Uiso   1.00
N133   N     0.22965   0.16225   0.00799   0.00000  Uiso   1.00
N134   N     0.42996   0.36622   0.58766   0.00000  Uiso   1.00
N135   N     0.02851   0.57137   0.79719   0.00000  Uiso   1.00
N136   N     0.13483   0.06584   0.90818   0.00000  Uiso   1.00
N137   N     0.33514   0.26981   0.48785   0.00000  Uiso   1.00
N138   N     0.93369   0.47496   0.69739   0.00000  Uiso   1.00
C139   C     0.19255   0.76172   0.62151   0.00000  Uiso   1.00
C140   C     0.16293   0.78787   0.70628   0.00000  Uiso   1.00
C141   C     0.08511   0.75615   0.72209   0.00000  Uiso   1.00
C142   C     0.07010   0.78822   0.80386   0.00000  Uiso   1.00
C143   C     0.01489   0.81942   0.92584   0.00000  Uiso   1.00
C144   C     0.27336   0.73112   0.64829   0.00000  Uiso   1.00
C145   C     0.28838   0.65169   0.61532   0.00000  Uiso   1.00
C146   C     0.36634   0.63599   0.64827   0.00000  Uiso   1.00
C147   C     0.48259   0.57911   0.68016   0.00000  Uiso   1.00
C148   C     0.21794   0.84385   0.59021   0.00000  Uiso   1.00
C149   C     0.18639   0.85921   0.50841   0.00000  Uiso   1.00
C150   C     0.21770   0.93842   0.49246   0.00000  Uiso   1.00
C151   C     0.24791   0.05658   0.43418   0.00000  Uiso   1.00
C152   C     0.30430   0.87508   0.73863   0.00000  Uiso   1.00
C153   C     0.22363   0.84944   0.76990   0.00000  Uiso   1.00
C154   C     0.20874   0.88157   0.85167   0.00000  Uiso   1.00
C155   C     0.13090   0.84990   0.86759   0.00000  Uiso   1.00
C156   C     0.33406   0.79269   0.71190   0.00000  Uiso   1.00
C157   C     0.41201   0.77711   0.74490   0.00000  Uiso   1.00
C158   C     0.42714   0.69767   0.71200   0.00000  Uiso   1.00
C159   C     0.27864   0.90543   0.65383   0.00000  Uiso   1.00
C160   C     0.31001   0.98463   0.63800   0.00000  Uiso   1.00
C161   C     0.27851   0.00011   0.55619   0.00000  Uiso   1.00
H162   H     0.14530   0.71378   0.57198   0.00000  Uiso   1.00
H163   H     0.03815   0.70849   0.67284   0.00000  Uiso   1.00
H164   H     0.24140   0.60405   0.56609   0.00000  Uiso   1.00
H165   H     0.13942   0.81154   0.45920   0.00000  Uiso   1.00
H166   H     0.94614   0.72976   0.81273   0.00000  Uiso   1.00
H167   H     0.37470   0.50955   0.58762   0.00000  Uiso   1.00
H168   H     0.15966   0.94709   0.36221   0.00000  Uiso   1.00
H169   H     0.35155   0.92302   0.78816   0.00000  Uiso   1.00
H170   H     0.25572   0.92922   0.90089   0.00000  Uiso   1.00
H171   H     0.45897   0.82478   0.79413   0.00000  Uiso   1.00
H172   H     0.35698   0.03227   0.68724   0.00000  Uiso   1.00
H173   H     0.12272   0.90891   0.99782   0.00000  Uiso   1.00
H174   H     0.55129   0.68870   0.77270   0.00000  Uiso   1.00
H175   H     0.33624   0.12624   0.54730   0.00000  Uiso   1.00
O176   O     0.96768   0.81961   0.97554   0.00000  Uiso   1.00
O177   O     0.52994   0.53072   0.68019   0.00000  Uiso   1.00
O178   O     0.24780   0.10475   0.38446   0.00000  Uiso   1.00
N179   N     0.00084   0.77108   0.84082   0.00000  Uiso   1.00
N180   N     0.40152   0.56520   0.63036   0.00000  Uiso   1.00
N181   N     0.20048   0.97425   0.41961   0.00000  Uiso   1.00
N182   N     0.09586   0.86748   0.94041   0.00000  Uiso   1.00
N183   N     0.49654   0.66160   0.72995   0.00000  Uiso   1.00
N184   N     0.29550   0.07065   0.51921   0.00000  Uiso   1.00
C185   C     0.62659   0.19315   0.76134   0.00000  Uiso   1.00
C186   C     0.70749   0.16275   0.78827   0.00000  Uiso   1.00
C187   C     0.72269   0.08338   0.75542   0.00000  Uiso   1.00
C188   C     0.80071   0.06788   0.78848   0.00000  Uiso   1.00
C189   C     0.91713   0.01130   0.82058   0.00000  Uiso   1.00
C190   C     0.65185   0.27527   0.72997   0.00000  Uiso   1.00
C191   C     0.62026   0.29050   0.64811   0.00000  Uiso   1.00
C192   C     0.65143   0.36973   0.63210   0.00000  Uiso   1.00
C193   C     0.68142   0.48787   0.57372   0.00000  Uiso   1.00
C194   C     0.59685   0.21929   0.84603   0.00000  Uiso   1.00
C195   C     0.51901   0.18748   0.86177   0.00000  Uiso   1.00
C196   C     0.50386   0.21960   0.94347   0.00000  Uiso   1.00
C197   C     0.44845   0.25082   0.06530   0.00000  Uiso   1.00
C198   C     0.73810   0.30676   0.87845   0.00000  Uiso   1.00
C199   C     0.76805   0.22446   0.85188   0.00000  Uiso   1.00
C200   C     0.84606   0.20908   0.88499   0.00000  Uiso   1.00
C201   C     0.86138   0.12970   0.85221   0.00000  Uiso   1.00
C202   C     0.71241   0.33698   0.79357   0.00000  Uiso   1.00
C203   C     0.74363   0.41620   0.77768   0.00000  Uiso   1.00
C204   C     0.71211   0.43155   0.69583   0.00000  Uiso   1.00
C205   C     0.65741   0.28100   0.90965   0.00000  Uiso   1.00
C206   C     0.64238   0.31318   0.99134   0.00000  Uiso   1.00
C207   C     0.56454   0.28142   0.00719   0.00000  Uiso   1.00
H208   H     0.57944   0.14511   0.71181   0.00000  Uiso   1.00
H209   H     0.67581   0.03564   0.70619   0.00000  Uiso   1.00
H210   H     0.57339   0.24274   0.59890   0.00000  Uiso   1.00
H211   H     0.47215   0.13973   0.81253   0.00000  Uiso   1.00
H212   H     0.80938   0.94150   0.72798   0.00000  Uiso   1.00
H213   H     0.59340   0.37819   0.50178   0.00000  Uiso   1.00
H214   H     0.37992   0.16097   0.95224   0.00000  Uiso   1.00
H215   H     0.78525   0.35481   0.92798   0.00000  Uiso   1.00
H216   H     0.89292   0.25685   0.93422   0.00000  Uiso   1.00
H217   H     0.79050   0.46394   0.82693   0.00000  Uiso   1.00
H218   H     0.68927   0.36093   0.04055   0.00000  Uiso   1.00
H219   H     0.98560   0.12104   0.91306   0.00000  Uiso   1.00
H220   H     0.76961   0.55773   0.68685   0.00000  Uiso   1.00
H221   H     0.55614   0.34051   0.13731   0.00000  Uiso   1.00
O222   O     0.96461   0.96306   0.82070   0.00000  Uiso   1.00
O223   O     0.68124   0.53597   0.52393   0.00000  Uiso   1.00
O224   O     0.40117   0.25098   0.11493   0.00000  Uiso   1.00
N225   N     0.83607   0.99720   0.77070   0.00000  Uiso   1.00
N226   N     0.63415   0.40547   0.55920   0.00000  Uiso   1.00
N227   N     0.43456   0.20240   0.98033   0.00000  Uiso   1.00
N228   N     0.93089   0.09380   0.87028   0.00000  Uiso   1.00
N229   N     0.72897   0.50207   0.65879   0.00000  Uiso   1.00
N230   N     0.52938   0.29901   0.07992   0.00000  Uiso   1.00
C231   C     0.76231   0.62491   0.19357   0.00000  Uiso   1.00
C232   C     0.78771   0.70712   0.16241   0.00000  Uiso   1.00
C233   C     0.75624   0.72255   0.08062   0.00000  Uiso   1.00
C234   C     0.78751   0.80183   0.06481   0.00000  Uiso   1.00
C235   C     0.81770   0.92014   0.00674   0.00000  Uiso   1.00
C236   C     0.73249   0.65092   0.27825   0.00000  Uiso   1.00
C237   C     0.65460   0.61908   0.29386   0.00000  Uiso   1.00
C238   C     0.63940   0.65105   0.37557   0.00000  Uiso   1.00
C239   C     0.58390   0.68205   0.49738   0.00000  Uiso   1.00
C240   C     0.84313   0.59439   0.22049   0.00000  Uiso   1.00
C241   C     0.85827   0.51500   0.18756   0.00000  Uiso   1.00
C242   C     0.93622   0.49936   0.22066   0.00000  Uiso   1.00
C243   C     0.05250   0.44259   0.25278   0.00000  Uiso   1.00
C244   C     0.87381   0.73828   0.31094   0.00000  Uiso   1.00
C245   C     0.84827   0.76870   0.22616   0.00000  Uiso   1.00
C246   C     0.87960   0.84798   0.21047   0.00000  Uiso   1.00
C247   C     0.84818   0.86352   0.12867   0.00000  Uiso   1.00
C248   C     0.79305   0.71250   0.34200   0.00000  Uiso   1.00
C249   C     0.77797   0.74452   0.42371   0.00000  Uiso   1.00
C250   C     0.70007   0.71274   0.43944   0.00000  Uiso   1.00
C251   C     0.90370   0.65597   0.28424   0.00000  Uiso   1.00
C252   C     0.98163   0.64044   0.31741   0.00000  Uiso   1.00
C253   C     0.99689   0.56106   0.28452   0.00000  Uiso   1.00
H254   H     0.71516   0.57697   0.14394   0.00000  Uiso   1.00
H255   H     0.70936   0.67488   0.03130   0.00000  Uiso   1.00
H256   H     0.60776   0.57142   0.24452   0.00000  Uiso   1.00
H257   H     0.81139   0.46737   0.13822   0.00000  Uiso   1.00
H258   H     0.72963   0.81060   0.93454   0.00000  Uiso   1.00
H259   H     0.51539   0.59243   0.38413   0.00000  Uiso   1.00
H260   H     0.94479   0.37301   0.15999   0.00000  Uiso   1.00
H261   H     0.92096   0.78623   0.36058   0.00000  Uiso   1.00
H262   H     0.92646   0.89563   0.25982   0.00000  Uiso   1.00
H263   H     0.82485   0.79217   0.47303   0.00000  Uiso   1.00
H264   H     0.02848   0.68811   0.36674   0.00000  Uiso   1.00
H265   H     0.90583   0.98977   0.12002   0.00000  Uiso   1.00
H266   H     0.69159   0.77160   0.56960   0.00000  Uiso   1.00
H267   H     0.12099   0.55217   0.34546   0.00000  Uiso   1.00
O268   O     0.81761   0.96838   0.95710   0.00000  Uiso   1.00
O269   O     0.53654   0.68214   0.54694   0.00000  Uiso   1.00
O270   O     0.09991   0.39427   0.25287   0.00000  Uiso   1.00
N271   N     0.77035   0.83775   0.99201   0.00000  Uiso   1.00
N272   N     0.57004   0.63379   0.41234   0.00000  Uiso   1.00
N273   N     0.97149   0.42863   0.20281   0.00000  Uiso   1.00
N274   N     0.86517   0.93416   0.09182   0.00000  Uiso   1.00
N275   N     0.66486   0.73019   0.51215   0.00000  Uiso   1.00
N276   N     0.06631   0.52504   0.30261   0.00000  Uiso   1.00
