data_job_03789
_audit_creation_date              2018-12-19
_audit_creation_method            'Materials Studio'
_symmetry_space_group_name_H-M    'P1'
_symmetry_Int_Tables_number       1
_symmetry_cell_setting            triclinic
loop_
_symmetry_equiv_pos_as_xyz
  x,y,z
_cell_length_a                    30.8554
_cell_length_b                    7.9041
_cell_length_c                    32.7139
_cell_angle_alpha                 90.0000
_cell_angle_beta                  121.5828
_cell_angle_gamma                 90.0000
loop_
_atom_site_label
_atom_site_type_symbol
_atom_site_fract_x
_atom_site_fract_y
_atom_site_fract_z
_atom_site_U_iso_or_equiv
_atom_site_adp_type
_atom_site_occupancy
C1     C     0.60420   0.29873   0.73495   0.00000  Uiso   1.00
C2     C     0.56398   0.16021   0.71802   0.00000  Uiso   1.00
C3     C     0.51191   0.18300   0.68796   0.00000  Uiso   1.00
C4     C     0.48147   0.04028   0.67669   0.00000  Uiso   1.00
C5     C     0.41584   0.84950   0.64766   0.00000  Uiso   1.00
C6     C     0.63378   0.29255   0.78963   0.00000  Uiso   1.00
C7     C     0.64040   0.42661   0.81978   0.00000  Uiso   1.00
C8     C     0.66873   0.39529   0.86879   0.00000  Uiso   1.00
C9     C     0.71149   0.40999   0.95094   0.00000  Uiso   1.00
C10    C     0.64124   0.24198   0.72010   0.00000  Uiso   1.00
C11    C     0.65415   0.33354   0.69180   0.00000  Uiso   1.00
C12    C     0.68878   0.25966   0.68228   0.00000  Uiso   1.00
C13    C     0.74313   0.19586   0.65648   0.00000  Uiso   1.00
C14    C     0.64274   0.00475   0.76838   0.00000  Uiso   1.00
C15    C     0.58492   0.00053   0.73618   0.00000  Uiso   1.00
C16    C     0.55455   0.85774   0.72495   0.00000  Uiso   1.00
C17    C     0.50245   0.88031   0.69488   0.00000  Uiso   1.00
C18    C     0.65471   0.13287   0.80779   0.00000  Uiso   1.00
C19    C     0.68304   0.10135   0.85677   0.00000  Uiso   1.00
C20    C     0.68970   0.23532   0.88698   0.00000  Uiso   1.00
C21    C     0.66218   0.08230   0.73826   0.00000  Uiso   1.00
C22    C     0.69680   0.00828   0.72879   0.00000  Uiso   1.00
C23    C     0.70975   0.09970   0.70047   0.00000  Uiso   1.00
H24    H     0.58790   0.42305   0.72081   0.00000  Uiso   1.00
H25    H     0.49572   0.30660   0.67392   0.00000  Uiso   1.00
H26    H     0.62419   0.55017   0.80571   0.00000  Uiso   1.00
H27    H     0.63794   0.45710   0.67775   0.00000  Uiso   1.00
H28    H     0.40276   0.10708   0.62995   0.00000  Uiso   1.00
H29    H     0.67366   0.62067   0.90785   0.00000  Uiso   1.00
H30    H     0.70266   0.42444   0.63802   0.00000  Uiso   1.00
H31    H     0.65904   0.88043   0.78252   0.00000  Uiso   1.00
H32    H     0.57077   0.73419   0.73901   0.00000  Uiso   1.00
H33    H     0.69924   0.97777   0.87081   0.00000  Uiso   1.00
H34    H     0.71299   0.88471   0.74285   0.00000  Uiso   1.00
H35    H     0.46367   0.64249   0.68278   0.00000  Uiso   1.00
H36    H     0.73458   0.15610   0.96068   0.00000  Uiso   1.00
H37    H     0.76357   0.95986   0.69085   0.00000  Uiso   1.00
O38    O     0.37386   0.78838   0.62664   0.00000  Uiso   1.00
O39    O     0.72929   0.46222   0.99123   0.00000  Uiso   1.00
O40    O     0.76732   0.20476   0.63723   0.00000  Uiso   1.00
N41    N     0.42921   0.01780   0.64835   0.00000  Uiso   1.00
N42    N     0.68248   0.49798   0.90817   0.00000  Uiso   1.00
N43    N     0.70960   0.31454   0.65591   0.00000  Uiso   1.00
N44    N     0.46198   0.76781   0.67678   0.00000  Uiso   1.00
N45    N     0.71526   0.24799   0.93659   0.00000  Uiso   1.00
N46    N     0.74238   0.06455   0.68434   0.00000  Uiso   1.00
C47    C     0.10420   0.79873   0.73495   0.00000  Uiso   1.00
C48    C     0.06398   0.66021   0.71802   0.00000  Uiso   1.00
C49    C     0.01191   0.68300   0.68796   0.00000  Uiso   1.00
C50    C     0.98147   0.54028   0.67669   0.00000  Uiso   1.00
C51    C     0.91584   0.34950   0.64766   0.00000  Uiso   1.00
C52    C     0.13378   0.79255   0.78963   0.00000  Uiso   1.00
C53    C     0.14040   0.92661   0.81978   0.00000  Uiso   1.00
C54    C     0.16873   0.89529   0.86879   0.00000  Uiso   1.00
C55    C     0.21149   0.90999   0.95094   0.00000  Uiso   1.00
C56    C     0.14124   0.74198   0.72010   0.00000  Uiso   1.00
C57    C     0.15415   0.83354   0.69180   0.00000  Uiso   1.00
C58    C     0.18878   0.75966   0.68228   0.00000  Uiso   1.00
C59    C     0.24313   0.69586   0.65648   0.00000  Uiso   1.00
C60    C     0.14274   0.50475   0.76838   0.00000  Uiso   1.00
C61    C     0.08492   0.50053   0.73618   0.00000  Uiso   1.00
C62    C     0.05455   0.35774   0.72495   0.00000  Uiso   1.00
C63    C     0.00245   0.38031   0.69488   0.00000  Uiso   1.00
C64    C     0.15471   0.63287   0.80779   0.00000  Uiso   1.00
C65    C     0.18304   0.60135   0.85677   0.00000  Uiso   1.00
C66    C     0.18970   0.73532   0.88698   0.00000  Uiso   1.00
C67    C     0.16218   0.58230   0.73826   0.00000  Uiso   1.00
C68    C     0.19680   0.50828   0.72879   0.00000  Uiso   1.00
C69    C     0.20975   0.59970   0.70047   0.00000  Uiso   1.00
H70    H     0.08790   0.92305   0.72081   0.00000  Uiso   1.00
H71    H     0.99572   0.80660   0.67392   0.00000  Uiso   1.00
H72    H     0.12419   0.05017   0.80571   0.00000  Uiso   1.00
H73    H     0.13794   0.95710   0.67775   0.00000  Uiso   1.00
H74    H     0.90276   0.60708   0.62995   0.00000  Uiso   1.00
H75    H     0.17366   0.12067   0.90785   0.00000  Uiso   1.00
H76    H     0.20266   0.92444   0.63802   0.00000  Uiso   1.00
H77    H     0.15904   0.38043   0.78252   0.00000  Uiso   1.00
H78    H     0.07077   0.23419   0.73901   0.00000  Uiso   1.00
H79    H     0.19924   0.47777   0.87081   0.00000  Uiso   1.00
H80    H     0.21299   0.38471   0.74285   0.00000  Uiso   1.00
H81    H     0.96367   0.14249   0.68278   0.00000  Uiso   1.00
H82    H     0.23458   0.65610   0.96068   0.00000  Uiso   1.00
H83    H     0.26357   0.45986   0.69085   0.00000  Uiso   1.00
O84    O     0.87386   0.28838   0.62664   0.00000  Uiso   1.00
O85    O     0.22929   0.96222   0.99123   0.00000  Uiso   1.00
O86    O     0.26732   0.70476   0.63723   0.00000  Uiso   1.00
N87    N     0.92921   0.51780   0.64835   0.00000  Uiso   1.00
N88    N     0.18248   0.99798   0.90817   0.00000  Uiso   1.00
N89    N     0.20960   0.81454   0.65591   0.00000  Uiso   1.00
N90    N     0.96198   0.26781   0.67678   0.00000  Uiso   1.00
N91    N     0.21526   0.74799   0.93659   0.00000  Uiso   1.00
N92    N     0.24238   0.56455   0.68434   0.00000  Uiso   1.00
C93    C     0.39580   0.29873   0.76505   0.00000  Uiso   1.00
C94    C     0.43602   0.16021   0.78198   0.00000  Uiso   1.00
C95    C     0.48809   0.18300   0.81204   0.00000  Uiso   1.00
C96    C     0.51853   0.04028   0.82331   0.00000  Uiso   1.00
C97    C     0.58416   0.84950   0.85234   0.00000  Uiso   1.00
C98    C     0.36622   0.29255   0.71037   0.00000  Uiso   1.00
C99    C     0.35960   0.42661   0.68022   0.00000  Uiso   1.00
C100   C     0.33127   0.39529   0.63121   0.00000  Uiso   1.00
C101   C     0.28851   0.40999   0.54906   0.00000  Uiso   1.00
C102   C     0.35876   0.24198   0.77990   0.00000  Uiso   1.00
C103   C     0.34585   0.33354   0.80820   0.00000  Uiso   1.00
C104   C     0.31122   0.25966   0.81772   0.00000  Uiso   1.00
C105   C     0.25687   0.19586   0.84352   0.00000  Uiso   1.00
C106   C     0.35726   0.00475   0.73162   0.00000  Uiso   1.00
C107   C     0.41508   0.00053   0.76382   0.00000  Uiso   1.00
C108   C     0.44545   0.85774   0.77505   0.00000  Uiso   1.00
C109   C     0.49755   0.88031   0.80512   0.00000  Uiso   1.00
C110   C     0.34529   0.13287   0.69221   0.00000  Uiso   1.00
C111   C     0.31696   0.10135   0.64323   0.00000  Uiso   1.00
C112   C     0.31030   0.23532   0.61302   0.00000  Uiso   1.00
C113   C     0.33782   0.08230   0.76174   0.00000  Uiso   1.00
C114   C     0.30320   0.00828   0.77121   0.00000  Uiso   1.00
C115   C     0.29025   0.09970   0.79953   0.00000  Uiso   1.00
H116   H     0.41210   0.42305   0.77919   0.00000  Uiso   1.00
H117   H     0.50428   0.30660   0.82608   0.00000  Uiso   1.00
H118   H     0.37581   0.55017   0.69429   0.00000  Uiso   1.00
H119   H     0.36206   0.45710   0.82225   0.00000  Uiso   1.00
H120   H     0.59724   0.10708   0.87005   0.00000  Uiso   1.00
H121   H     0.32634   0.62067   0.59215   0.00000  Uiso   1.00
H122   H     0.29734   0.42444   0.86198   0.00000  Uiso   1.00
H123   H     0.34096   0.88043   0.71748   0.00000  Uiso   1.00
H124   H     0.42923   0.73419   0.76099   0.00000  Uiso   1.00
H125   H     0.30076   0.97777   0.62919   0.00000  Uiso   1.00
H126   H     0.28701   0.88471   0.75715   0.00000  Uiso   1.00
H127   H     0.53633   0.64249   0.81722   0.00000  Uiso   1.00
H128   H     0.26542   0.15610   0.53932   0.00000  Uiso   1.00
H129   H     0.23643   0.95986   0.80915   0.00000  Uiso   1.00
O130   O     0.62614   0.78838   0.87336   0.00000  Uiso   1.00
O131   O     0.27071   0.46222   0.50877   0.00000  Uiso   1.00
O132   O     0.23268   0.20476   0.86277   0.00000  Uiso   1.00
N133   N     0.57079   0.01780   0.85165   0.00000  Uiso   1.00
N134   N     0.31752   0.49798   0.59183   0.00000  Uiso   1.00
N135   N     0.29040   0.31454   0.84409   0.00000  Uiso   1.00
N136   N     0.53802   0.76781   0.82322   0.00000  Uiso   1.00
N137   N     0.28474   0.24799   0.56341   0.00000  Uiso   1.00
N138   N     0.25762   0.06455   0.81566   0.00000  Uiso   1.00
C139   C     0.89580   0.79873   0.76505   0.00000  Uiso   1.00
C140   C     0.93602   0.66021   0.78198   0.00000  Uiso   1.00
C141   C     0.98809   0.68300   0.81204   0.00000  Uiso   1.00
C142   C     0.01853   0.54028   0.82331   0.00000  Uiso   1.00
C143   C     0.08416   0.34950   0.85234   0.00000  Uiso   1.00
C144   C     0.86622   0.79255   0.71037   0.00000  Uiso   1.00
C145   C     0.85960   0.92661   0.68022   0.00000  Uiso   1.00
C146   C     0.83127   0.89529   0.63121   0.00000  Uiso   1.00
C147   C     0.78851   0.90999   0.54906   0.00000  Uiso   1.00
C148   C     0.85876   0.74198   0.77990   0.00000  Uiso   1.00
C149   C     0.84585   0.83354   0.80820   0.00000  Uiso   1.00
C150   C     0.81122   0.75966   0.81772   0.00000  Uiso   1.00
C151   C     0.75687   0.69586   0.84352   0.00000  Uiso   1.00
C152   C     0.85726   0.50475   0.73162   0.00000  Uiso   1.00
C153   C     0.91508   0.50053   0.76382   0.00000  Uiso   1.00
C154   C     0.94545   0.35774   0.77505   0.00000  Uiso   1.00
C155   C     0.99755   0.38031   0.80512   0.00000  Uiso   1.00
C156   C     0.84529   0.63287   0.69221   0.00000  Uiso   1.00
C157   C     0.81696   0.60135   0.64323   0.00000  Uiso   1.00
C158   C     0.81030   0.73532   0.61302   0.00000  Uiso   1.00
C159   C     0.83782   0.58230   0.76174   0.00000  Uiso   1.00
C160   C     0.80320   0.50828   0.77121   0.00000  Uiso   1.00
C161   C     0.79025   0.59970   0.79953   0.00000  Uiso   1.00
H162   H     0.91210   0.92305   0.77919   0.00000  Uiso   1.00
H163   H     0.00428   0.80660   0.82608   0.00000  Uiso   1.00
H164   H     0.87581   0.05017   0.69429   0.00000  Uiso   1.00
H165   H     0.86206   0.95710   0.82225   0.00000  Uiso   1.00
H166   H     0.09724   0.60708   0.87005   0.00000  Uiso   1.00
H167   H     0.82634   0.12067   0.59215   0.00000  Uiso   1.00
H168   H     0.79734   0.92444   0.86198   0.00000  Uiso   1.00
H169   H     0.84096   0.38043   0.71748   0.00000  Uiso   1.00
H170   H     0.92923   0.23419   0.76099   0.00000  Uiso   1.00
H171   H     0.80076   0.47777   0.62919   0.00000  Uiso   1.00
H172   H     0.78701   0.38471   0.75715   0.00000  Uiso   1.00
H173   H     0.03633   0.14249   0.81722   0.00000  Uiso   1.00
H174   H     0.76542   0.65610   0.53932   0.00000  Uiso   1.00
H175   H     0.73643   0.45986   0.80915   0.00000  Uiso   1.00
O176   O     0.12614   0.28838   0.87336   0.00000  Uiso   1.00
O177   O     0.77071   0.96222   0.50877   0.00000  Uiso   1.00
O178   O     0.73268   0.70476   0.86277   0.00000  Uiso   1.00
N179   N     0.07079   0.51780   0.85165   0.00000  Uiso   1.00
N180   N     0.81752   0.99798   0.59183   0.00000  Uiso   1.00
N181   N     0.79040   0.81454   0.84409   0.00000  Uiso   1.00
N182   N     0.03802   0.26781   0.82322   0.00000  Uiso   1.00
N183   N     0.78474   0.74799   0.56341   0.00000  Uiso   1.00
N184   N     0.75762   0.56455   0.81566   0.00000  Uiso   1.00
C185   C     0.39580   0.70127   0.26505   0.00000  Uiso   1.00
C186   C     0.43602   0.83979   0.28198   0.00000  Uiso   1.00
C187   C     0.48809   0.81700   0.31204   0.00000  Uiso   1.00
C188   C     0.51853   0.95972   0.32331   0.00000  Uiso   1.00
C189   C     0.58416   0.15050   0.35234   0.00000  Uiso   1.00
C190   C     0.36622   0.70745   0.21037   0.00000  Uiso   1.00
C191   C     0.35960   0.57339   0.18022   0.00000  Uiso   1.00
C192   C     0.33127   0.60471   0.13121   0.00000  Uiso   1.00
C193   C     0.28851   0.59001   0.04906   0.00000  Uiso   1.00
C194   C     0.35876   0.75802   0.27990   0.00000  Uiso   1.00
C195   C     0.34585   0.66646   0.30820   0.00000  Uiso   1.00
C196   C     0.31122   0.74034   0.31772   0.00000  Uiso   1.00
C197   C     0.25687   0.80414   0.34352   0.00000  Uiso   1.00
C198   C     0.35726   0.99525   0.23162   0.00000  Uiso   1.00
C199   C     0.41508   0.99947   0.26382   0.00000  Uiso   1.00
C200   C     0.44545   0.14226   0.27505   0.00000  Uiso   1.00
C201   C     0.49755   0.11969   0.30512   0.00000  Uiso   1.00
C202   C     0.34529   0.86713   0.19221   0.00000  Uiso   1.00
C203   C     0.31696   0.89865   0.14323   0.00000  Uiso   1.00
C204   C     0.31030   0.76468   0.11302   0.00000  Uiso   1.00
C205   C     0.33782   0.91770   0.26174   0.00000  Uiso   1.00
C206   C     0.30320   0.99172   0.27121   0.00000  Uiso   1.00
C207   C     0.29025   0.90030   0.29953   0.00000  Uiso   1.00
H208   H     0.41210   0.57695   0.27919   0.00000  Uiso   1.00
H209   H     0.50428   0.69340   0.32608   0.00000  Uiso   1.00
H210   H     0.37581   0.44983   0.19429   0.00000  Uiso   1.00
H211   H     0.36206   0.54290   0.32225   0.00000  Uiso   1.00
H212   H     0.59724   0.89292   0.37005   0.00000  Uiso   1.00
H213   H     0.32634   0.37933   0.09215   0.00000  Uiso   1.00
H214   H     0.29734   0.57556   0.36198   0.00000  Uiso   1.00
H215   H     0.34096   0.11957   0.21748   0.00000  Uiso   1.00
H216   H     0.42923   0.26581   0.26099   0.00000  Uiso   1.00
H217   H     0.30076   0.02223   0.12919   0.00000  Uiso   1.00
H218   H     0.28701   0.11529   0.25715   0.00000  Uiso   1.00
H219   H     0.53633   0.35751   0.31722   0.00000  Uiso   1.00
H220   H     0.26542   0.84390   0.03932   0.00000  Uiso   1.00
H221   H     0.23643   0.04014   0.30915   0.00000  Uiso   1.00
O222   O     0.62614   0.21162   0.37336   0.00000  Uiso   1.00
O223   O     0.27071   0.53778   0.00877   0.00000  Uiso   1.00
O224   O     0.23268   0.79524   0.36277   0.00000  Uiso   1.00
N225   N     0.57079   0.98220   0.35165   0.00000  Uiso   1.00
N226   N     0.31752   0.50202   0.09183   0.00000  Uiso   1.00
N227   N     0.29040   0.68546   0.34409   0.00000  Uiso   1.00
N228   N     0.53802   0.23219   0.32322   0.00000  Uiso   1.00
N229   N     0.28474   0.75201   0.06341   0.00000  Uiso   1.00
N230   N     0.25762   0.93545   0.31566   0.00000  Uiso   1.00
C231   C     0.89580   0.20127   0.26505   0.00000  Uiso   1.00
C232   C     0.93602   0.33979   0.28198   0.00000  Uiso   1.00
C233   C     0.98809   0.31700   0.31204   0.00000  Uiso   1.00
C234   C     0.01853   0.45972   0.32331   0.00000  Uiso   1.00
C235   C     0.08416   0.65050   0.35234   0.00000  Uiso   1.00
C236   C     0.86622   0.20745   0.21037   0.00000  Uiso   1.00
C237   C     0.85960   0.07339   0.18022   0.00000  Uiso   1.00
C238   C     0.83127   0.10471   0.13121   0.00000  Uiso   1.00
C239   C     0.78851   0.09001   0.04906   0.00000  Uiso   1.00
C240   C     0.85876   0.25802   0.27990   0.00000  Uiso   1.00
C241   C     0.84585   0.16646   0.30820   0.00000  Uiso   1.00
C242   C     0.81122   0.24034   0.31772   0.00000  Uiso   1.00
C243   C     0.75687   0.30414   0.34352   0.00000  Uiso   1.00
C244   C     0.85726   0.49525   0.23162   0.00000  Uiso   1.00
C245   C     0.91508   0.49947   0.26382   0.00000  Uiso   1.00
C246   C     0.94545   0.64226   0.27505   0.00000  Uiso   1.00
C247   C     0.99755   0.61969   0.30512   0.00000  Uiso   1.00
C248   C     0.84529   0.36713   0.19221   0.00000  Uiso   1.00
C249   C     0.81696   0.39865   0.14323   0.00000  Uiso   1.00
C250   C     0.81030   0.26468   0.11302   0.00000  Uiso   1.00
C251   C     0.83782   0.41770   0.26174   0.00000  Uiso   1.00
C252   C     0.80320   0.49172   0.27121   0.00000  Uiso   1.00
C253   C     0.79025   0.40030   0.29953   0.00000  Uiso   1.00
H254   H     0.91210   0.07695   0.27919   0.00000  Uiso   1.00
H255   H     0.00428   0.19340   0.32608   0.00000  Uiso   1.00
H256   H     0.87581   0.94983   0.19429   0.00000  Uiso   1.00
H257   H     0.86206   0.04290   0.32225   0.00000  Uiso   1.00
H258   H     0.09724   0.39292   0.37005   0.00000  Uiso   1.00
H259   H     0.82634   0.87933   0.09215   0.00000  Uiso   1.00
H260   H     0.79734   0.07556   0.36198   0.00000  Uiso   1.00
H261   H     0.84096   0.61957   0.21748   0.00000  Uiso   1.00
H262   H     0.92923   0.76581   0.26099   0.00000  Uiso   1.00
H263   H     0.80076   0.52223   0.12919   0.00000  Uiso   1.00
H264   H     0.78701   0.61529   0.25715   0.00000  Uiso   1.00
H265   H     0.03633   0.85751   0.31722   0.00000  Uiso   1.00
H266   H     0.76542   0.34390   0.03932   0.00000  Uiso   1.00
H267   H     0.73643   0.54014   0.30915   0.00000  Uiso   1.00
O268   O     0.12614   0.71162   0.37336   0.00000  Uiso   1.00
O269   O     0.77071   0.03778   0.00877   0.00000  Uiso   1.00
O270   O     0.73268   0.29524   0.36277   0.00000  Uiso   1.00
N271   N     0.07079   0.48220   0.35165   0.00000  Uiso   1.00
N272   N     0.81752   0.00202   0.09183   0.00000  Uiso   1.00
N273   N     0.79040   0.18546   0.34409   0.00000  Uiso   1.00
N274   N     0.03802   0.73219   0.32322   0.00000  Uiso   1.00
N275   N     0.78474   0.25201   0.06341   0.00000  Uiso   1.00
N276   N     0.75762   0.43545   0.31566   0.00000  Uiso   1.00
C277   C     0.60420   0.70127   0.23495   0.00000  Uiso   1.00
C278   C     0.56398   0.83979   0.21802   0.00000  Uiso   1.00
C279   C     0.51191   0.81700   0.18796   0.00000  Uiso   1.00
C280   C     0.48147   0.95972   0.17669   0.00000  Uiso   1.00
C281   C     0.41584   0.15050   0.14766   0.00000  Uiso   1.00
C282   C     0.63378   0.70745   0.28963   0.00000  Uiso   1.00
C283   C     0.64040   0.57339   0.31978   0.00000  Uiso   1.00
C284   C     0.66873   0.60471   0.36879   0.00000  Uiso   1.00
C285   C     0.71149   0.59001   0.45094   0.00000  Uiso   1.00
C286   C     0.64124   0.75802   0.22010   0.00000  Uiso   1.00
C287   C     0.65415   0.66646   0.19180   0.00000  Uiso   1.00
C288   C     0.68878   0.74034   0.18228   0.00000  Uiso   1.00
C289   C     0.74313   0.80414   0.15648   0.00000  Uiso   1.00
C290   C     0.64274   0.99525   0.26838   0.00000  Uiso   1.00
C291   C     0.58492   0.99947   0.23618   0.00000  Uiso   1.00
C292   C     0.55455   0.14226   0.22495   0.00000  Uiso   1.00
C293   C     0.50245   0.11969   0.19488   0.00000  Uiso   1.00
C294   C     0.65471   0.86713   0.30779   0.00000  Uiso   1.00
C295   C     0.68304   0.89865   0.35677   0.00000  Uiso   1.00
C296   C     0.68970   0.76468   0.38698   0.00000  Uiso   1.00
C297   C     0.66218   0.91770   0.23826   0.00000  Uiso   1.00
C298   C     0.69680   0.99172   0.22879   0.00000  Uiso   1.00
C299   C     0.70975   0.90030   0.20047   0.00000  Uiso   1.00
H300   H     0.58790   0.57695   0.22081   0.00000  Uiso   1.00
H301   H     0.49572   0.69340   0.17392   0.00000  Uiso   1.00
H302   H     0.62419   0.44983   0.30571   0.00000  Uiso   1.00
H303   H     0.63794   0.54290   0.17775   0.00000  Uiso   1.00
H304   H     0.40276   0.89292   0.12995   0.00000  Uiso   1.00
H305   H     0.67366   0.37933   0.40785   0.00000  Uiso   1.00
H306   H     0.70266   0.57556   0.13802   0.00000  Uiso   1.00
H307   H     0.65904   0.11957   0.28252   0.00000  Uiso   1.00
H308   H     0.57077   0.26581   0.23901   0.00000  Uiso   1.00
H309   H     0.69924   0.02223   0.37081   0.00000  Uiso   1.00
H310   H     0.71299   0.11529   0.24285   0.00000  Uiso   1.00
H311   H     0.46367   0.35751   0.18278   0.00000  Uiso   1.00
H312   H     0.73458   0.84390   0.46068   0.00000  Uiso   1.00
H313   H     0.76357   0.04014   0.19085   0.00000  Uiso   1.00
O314   O     0.37386   0.21162   0.12664   0.00000  Uiso   1.00
O315   O     0.72929   0.53778   0.49123   0.00000  Uiso   1.00
O316   O     0.76732   0.79524   0.13723   0.00000  Uiso   1.00
N317   N     0.42921   0.98220   0.14835   0.00000  Uiso   1.00
N318   N     0.68248   0.50202   0.40817   0.00000  Uiso   1.00
N319   N     0.70960   0.68546   0.15591   0.00000  Uiso   1.00
N320   N     0.46198   0.23219   0.17678   0.00000  Uiso   1.00
N321   N     0.71526   0.75201   0.43659   0.00000  Uiso   1.00
N322   N     0.74238   0.93545   0.18434   0.00000  Uiso   1.00
C323   C     0.10420   0.20127   0.23495   0.00000  Uiso   1.00
C324   C     0.06398   0.33979   0.21802   0.00000  Uiso   1.00
C325   C     0.01191   0.31700   0.18796   0.00000  Uiso   1.00
C326   C     0.98147   0.45972   0.17669   0.00000  Uiso   1.00
C327   C     0.91584   0.65050   0.14766   0.00000  Uiso   1.00
C328   C     0.13378   0.20745   0.28963   0.00000  Uiso   1.00
C329   C     0.14040   0.07339   0.31978   0.00000  Uiso   1.00
C330   C     0.16873   0.10471   0.36879   0.00000  Uiso   1.00
C331   C     0.21149   0.09001   0.45094   0.00000  Uiso   1.00
C332   C     0.14124   0.25802   0.22010   0.00000  Uiso   1.00
C333   C     0.15415   0.16646   0.19180   0.00000  Uiso   1.00
C334   C     0.18878   0.24034   0.18228   0.00000  Uiso   1.00
C335   C     0.24313   0.30414   0.15648   0.00000  Uiso   1.00
C336   C     0.14274   0.49525   0.26838   0.00000  Uiso   1.00
C337   C     0.08492   0.49947   0.23618   0.00000  Uiso   1.00
C338   C     0.05455   0.64226   0.22495   0.00000  Uiso   1.00
C339   C     0.00245   0.61969   0.19488   0.00000  Uiso   1.00
C340   C     0.15471   0.36713   0.30779   0.00000  Uiso   1.00
C341   C     0.18304   0.39865   0.35677   0.00000  Uiso   1.00
C342   C     0.18970   0.26468   0.38698   0.00000  Uiso   1.00
C343   C     0.16218   0.41770   0.23826   0.00000  Uiso   1.00
C344   C     0.19680   0.49172   0.22879   0.00000  Uiso   1.00
C345   C     0.20975   0.40030   0.20047   0.00000  Uiso   1.00
H346   H     0.08790   0.07695   0.22081   0.00000  Uiso   1.00
H347   H     0.99572   0.19340   0.17392   0.00000  Uiso   1.00
H348   H     0.12419   0.94983   0.30571   0.00000  Uiso   1.00
H349   H     0.13794   0.04290   0.17775   0.00000  Uiso   1.00
H350   H     0.90276   0.39292   0.12995   0.00000  Uiso   1.00
H351   H     0.17366   0.87933   0.40785   0.00000  Uiso   1.00
H352   H     0.20266   0.07556   0.13802   0.00000  Uiso   1.00
H353   H     0.15904   0.61957   0.28252   0.00000  Uiso   1.00
H354   H     0.07077   0.76581   0.23901   0.00000  Uiso   1.00
H355   H     0.19924   0.52223   0.37081   0.00000  Uiso   1.00
H356   H     0.21299   0.61529   0.24285   0.00000  Uiso   1.00
H357   H     0.96367   0.85751   0.18278   0.00000  Uiso   1.00
H358   H     0.23458   0.34390   0.46068   0.00000  Uiso   1.00
H359   H     0.26357   0.54014   0.19085   0.00000  Uiso   1.00
O360   O     0.87386   0.71162   0.12664   0.00000  Uiso   1.00
O361   O     0.22929   0.03778   0.49123   0.00000  Uiso   1.00
O362   O     0.26732   0.29524   0.13723   0.00000  Uiso   1.00
N363   N     0.92921   0.48220   0.14835   0.00000  Uiso   1.00
N364   N     0.18248   0.00202   0.40817   0.00000  Uiso   1.00
N365   N     0.20960   0.18546   0.15591   0.00000  Uiso   1.00
N366   N     0.96198   0.73219   0.17678   0.00000  Uiso   1.00
N367   N     0.21526   0.25201   0.43659   0.00000  Uiso   1.00
N368   N     0.24238   0.43545   0.18434   0.00000  Uiso   1.00
