data_job_06702
_audit_creation_date              2018-12-19
_audit_creation_method            'Materials Studio'
_symmetry_space_group_name_H-M    'P1'
_symmetry_Int_Tables_number       1
_symmetry_cell_setting            triclinic
loop_
_symmetry_equiv_pos_as_xyz
  x,y,z
_cell_length_a                    22.7559
_cell_length_b                    23.7719
_cell_length_c                    25.5756
_cell_angle_alpha                 70.7682
_cell_angle_beta                  68.3967
_cell_angle_gamma                 62.1076
loop_
_atom_site_label
_atom_site_type_symbol
_atom_site_fract_x
_atom_site_fract_y
_atom_site_fract_z
_atom_site_U_iso_or_equiv
_atom_site_adp_type
_atom_site_occupancy
C1     C     0.24437   0.57958   0.43344   0.00000  Uiso   1.00
C2     C     0.18903   0.63497   0.40540   0.00000  Uiso   1.00
C3     C     0.18295   0.69881   0.38631   0.00000  Uiso   1.00
C4     C     0.12877   0.74221   0.36188   0.00000  Uiso   1.00
C5     C     0.04987   0.83123   0.31915   0.00000  Uiso   1.00
C6     C     0.20623   0.55154   0.49114   0.00000  Uiso   1.00
C7     C     0.21462   0.54523   0.54414   0.00000  Uiso   1.00
C8     C     0.17492   0.51839   0.59187   0.00000  Uiso   1.00
C9     C     0.12276   0.47785   0.68225   0.00000  Uiso   1.00
C10    C     0.27932   0.52724   0.39730   0.00000  Uiso   1.00
C11    C     0.34917   0.50048   0.37141   0.00000  Uiso   1.00
C12    C     0.37102   0.45317   0.34015   0.00000  Uiso   1.00
C13    C     0.43235   0.37490   0.28483   0.00000  Uiso   1.00
C14    C     0.15896   0.54312   0.42397   0.00000  Uiso   1.00
C15    C     0.14264   0.61516   0.40026   0.00000  Uiso   1.00
C16    C     0.08845   0.65847   0.37584   0.00000  Uiso   1.00
C17    C     0.08230   0.72237   0.35673   0.00000  Uiso   1.00
C18    C     0.15984   0.53174   0.48600   0.00000  Uiso   1.00
C19    C     0.12012   0.50490   0.53367   0.00000  Uiso   1.00
C20    C     0.12844   0.49855   0.58672   0.00000  Uiso   1.00
C21    C     0.23293   0.50744   0.39216   0.00000  Uiso   1.00
C22    C     0.25468   0.46015   0.36094   0.00000  Uiso   1.00
C23    C     0.32454   0.43333   0.33500   0.00000  Uiso   1.00
H24    H     0.28049   0.59499   0.43744   0.00000  Uiso   1.00
H25    H     0.21886   0.71412   0.39030   0.00000  Uiso   1.00
H26    H     0.25052   0.56056   0.54810   0.00000  Uiso   1.00
H27    H     0.38506   0.51582   0.37540   0.00000  Uiso   1.00
H28    H     0.13006   0.83746   0.33579   0.00000  Uiso   1.00
H29    H     0.19684   0.51365   0.66851   0.00000  Uiso   1.00
H30    H     0.48054   0.41931   0.30434   0.00000  Uiso   1.00
H31    H     0.12284   0.52770   0.41997   0.00000  Uiso   1.00
H32    H     0.05256   0.64314   0.37187   0.00000  Uiso   1.00
H33    H     0.08423   0.48957   0.52967   0.00000  Uiso   1.00
H34    H     0.21876   0.44484   0.35697   0.00000  Uiso   1.00
H35    H     0.99508   0.77985   0.32084   0.00000  Uiso   1.00
H36    H     0.06187   0.45604   0.65356   0.00000  Uiso   1.00
H37    H     0.34556   0.36170   0.28938   0.00000  Uiso   1.00
O38    O     0.01917   0.88581   0.29701   0.00000  Uiso   1.00
O39    O     0.10680   0.46097   0.73352   0.00000  Uiso   1.00
O40    O     0.47900   0.33721   0.25573   0.00000  Uiso   1.00
N41    N     0.10794   0.80806   0.33886   0.00000  Uiso   1.00
N42    N     0.17038   0.50532   0.64994   0.00000  Uiso   1.00
N43    N     0.43561   0.41711   0.30948   0.00000  Uiso   1.00
N44    N     0.03532   0.77706   0.33082   0.00000  Uiso   1.00
N45    N     0.09775   0.47432   0.64189   0.00000  Uiso   1.00
N46    N     0.36298   0.38611   0.30143   0.00000  Uiso   1.00
C47    C     0.62845   0.70251   0.40309   0.00000  Uiso   1.00
C48    C     0.68532   0.72804   0.37928   0.00000  Uiso   1.00
C49    C     0.75535   0.69035   0.37059   0.00000  Uiso   1.00
C50    C     0.79907   0.72294   0.34843   0.00000  Uiso   1.00
C51    C     0.89125   0.75226   0.31346   0.00000  Uiso   1.00
C52    C     0.58066   0.73328   0.45521   0.00000  Uiso   1.00
C53    C     0.56268   0.69999   0.51037   0.00000  Uiso   1.00
C54    C     0.51829   0.73699   0.55213   0.00000  Uiso   1.00
C55    C     0.44794   0.77444   0.63504   0.00000  Uiso   1.00
C56    C     0.58723   0.73180   0.35839   0.00000  Uiso   1.00
C57    C     0.57476   0.69727   0.33215   0.00000  Uiso   1.00
C58    C     0.53588   0.73302   0.29240   0.00000  Uiso   1.00
C59    C     0.47574   0.76818   0.22499   0.00000  Uiso   1.00
C60    C     0.58157   0.82740   0.37918   0.00000  Uiso   1.00
C61    C     0.65986   0.79588   0.36629   0.00000  Uiso   1.00
C62    C     0.70348   0.82853   0.34414   0.00000  Uiso   1.00
C63    C     0.77356   0.79090   0.33542   0.00000  Uiso   1.00
C64    C     0.55520   0.80111   0.44223   0.00000  Uiso   1.00
C65    C     0.51082   0.83817   0.48391   0.00000  Uiso   1.00
C66    C     0.49278   0.80494   0.53912   0.00000  Uiso   1.00
C67    C     0.56177   0.79964   0.34540   0.00000  Uiso   1.00
C68    C     0.52290   0.83545   0.30569   0.00000  Uiso   1.00
C69    C     0.51037   0.80098   0.27939   0.00000  Uiso   1.00
H70    H     0.64827   0.64970   0.41320   0.00000  Uiso   1.00
H71    H     0.77503   0.63785   0.38065   0.00000  Uiso   1.00
H72    H     0.58239   0.64749   0.52040   0.00000  Uiso   1.00
H73    H     0.59447   0.64477   0.34221   0.00000  Uiso   1.00
H74    H     0.90434   0.65464   0.33886   0.00000  Uiso   1.00
H75    H     0.49813   0.67496   0.63353   0.00000  Uiso   1.00
H76    H     0.52360   0.66923   0.25778   0.00000  Uiso   1.00
H77    H     0.56174   0.88022   0.36907   0.00000  Uiso   1.00
H78    H     0.68376   0.88103   0.33409   0.00000  Uiso   1.00
H79    H     0.49112   0.89066   0.47385   0.00000  Uiso   1.00
H80    H     0.50320   0.88794   0.29565   0.00000  Uiso   1.00
H81    H     0.83027   0.85201   0.30107   0.00000  Uiso   1.00
H82    H     0.42405   0.87233   0.59574   0.00000  Uiso   1.00
H83    H     0.44952   0.86659   0.21999   0.00000  Uiso   1.00
O84    O     0.94913   0.74970   0.29777   0.00000  Uiso   1.00
O85    O     0.41618   0.77636   0.68436   0.00000  Uiso   1.00
O86    O     0.44961   0.76883   0.19139   0.00000  Uiso   1.00
N87    N     0.87016   0.70098   0.33475   0.00000  Uiso   1.00
N88    N     0.49038   0.71998   0.61026   0.00000  Uiso   1.00
N89    N     0.51418   0.71462   0.25897   0.00000  Uiso   1.00
N90    N     0.83030   0.80718   0.31442   0.00000  Uiso   1.00
N91    N     0.45053   0.82618   0.58992   0.00000  Uiso   1.00
N92    N     0.47433   0.82082   0.23864   0.00000  Uiso   1.00
C93    C     0.74474   0.18325   0.41020   0.00000  Uiso   1.00
C94    C     0.77817   0.12325   0.38345   0.00000  Uiso   1.00
C95    C     0.74820   0.10719   0.35512   0.00000  Uiso   1.00
C96    C     0.78722   0.05022   0.33371   0.00000  Uiso   1.00
C97    C     0.82899   0.96304   0.29118   0.00000  Uiso   1.00
C98    C     0.74659   0.15839   0.47291   0.00000  Uiso   1.00
C99    C     0.69007   0.17189   0.51978   0.00000  Uiso   1.00
C100   C     0.70252   0.14451   0.57368   0.00000  Uiso   1.00
C101   C     0.69526   0.11193   0.67003   0.00000  Uiso   1.00
C102   C     0.79347   0.21835   0.38272   0.00000  Uiso   1.00
C103   C     0.77637   0.28226   0.35377   0.00000  Uiso   1.00
C104   C     0.82829   0.30536   0.33174   0.00000  Uiso   1.00
C105   C     0.89383   0.36587   0.28805   0.00000  Uiso   1.00
C106   C     0.86734   0.11064   0.42257   0.00000  Uiso   1.00
C107   C     0.84476   0.08381   0.39018   0.00000  Uiso   1.00
C108   C     0.88384   0.02685   0.36880   0.00000  Uiso   1.00
C109   C     0.85394   0.01071   0.34044   0.00000  Uiso   1.00
C110   C     0.81318   0.11895   0.47963   0.00000  Uiso   1.00
C111   C     0.82571   0.09155   0.53347   0.00000  Uiso   1.00
C112   C     0.76923   0.10500   0.58041   0.00000  Uiso   1.00
C113   C     0.86007   0.17890   0.38944   0.00000  Uiso   1.00
C114   C     0.91202   0.20192   0.36745   0.00000  Uiso   1.00
C115   C     0.89500   0.26585   0.33847   0.00000  Uiso   1.00
H116   H     0.69289   0.21396   0.40497   0.00000  Uiso   1.00
H117   H     0.69666   0.13773   0.34993   0.00000  Uiso   1.00
H118   H     0.63854   0.20242   0.51457   0.00000  Uiso   1.00
H119   H     0.72484   0.31277   0.34857   0.00000  Uiso   1.00
H120   H     0.73019   0.03580   0.29189   0.00000  Uiso   1.00
H121   H     0.60766   0.17223   0.63903   0.00000  Uiso   1.00
H122   H     0.78962   0.40493   0.28901   0.00000  Uiso   1.00
H123   H     0.91918   0.07993   0.42781   0.00000  Uiso   1.00
H124   H     0.93537   0.99634   0.37401   0.00000  Uiso   1.00
H125   H     0.87725   0.06103   0.53865   0.00000  Uiso   1.00
H126   H     0.96354   0.17138   0.37266   0.00000  Uiso   1.00
H127   H     0.92394   0.92104   0.31144   0.00000  Uiso   1.00
H128   H     0.80140   0.05748   0.65859   0.00000  Uiso   1.00
H129   H     0.98336   0.29017   0.30856   0.00000  Uiso   1.00
O130   O     0.83362   0.92584   0.26588   0.00000  Uiso   1.00
O131   O     0.67286   0.10485   0.72132   0.00000  Uiso   1.00
O132   O     0.91158   0.41013   0.26209   0.00000  Uiso   1.00
N133   N     0.77358   0.02027   0.30386   0.00000  Uiso   1.00
N134   N     0.65901   0.14782   0.62842   0.00000  Uiso   1.00
N135   N     0.82912   0.36537   0.30119   0.00000  Uiso   1.00
N136   N     0.87783   0.95852   0.31438   0.00000  Uiso   1.00
N137   N     0.76326   0.08607   0.63894   0.00000  Uiso   1.00
N138   N     0.93337   0.30362   0.31171   0.00000  Uiso   1.00
C139   C     0.71797   0.35497   0.88035   0.00000  Uiso   1.00
C140   C     0.65789   0.37967   0.85419   0.00000  Uiso   1.00
C141   C     0.63284   0.34137   0.84522   0.00000  Uiso   1.00
C142   C     0.57747   0.37325   0.82076   0.00000  Uiso   1.00
C143   C     0.48860   0.40131   0.78244   0.00000  Uiso   1.00
C144   C     0.68999   0.38786   0.93153   0.00000  Uiso   1.00
C145   C     0.69194   0.35644   0.98760   0.00000  Uiso   1.00
C146   C     0.66360   0.39521   0.02825   0.00000  Uiso   1.00
C147   C     0.62461   0.43598   0.11000   0.00000  Uiso   1.00
C148   C     0.76918   0.38283   0.83649   0.00000  Uiso   1.00
C149   C     0.83772   0.34719   0.81264   0.00000  Uiso   1.00
C150   C     0.87607   0.38173   0.77328   0.00000  Uiso   1.00
C151   C     0.96003   0.41470   0.70746   0.00000  Uiso   1.00
C152   C     0.66419   0.47968   0.85285   0.00000  Uiso   1.00
C153   C     0.62868   0.44742   0.83926   0.00000  Uiso   1.00
C154   C     0.57334   0.47936   0.81480   0.00000  Uiso   1.00
C155   C     0.54821   0.44111   0.80580   0.00000  Uiso   1.00
C156   C     0.66078   0.45560   0.91660   0.00000  Uiso   1.00
C157   C     0.63243   0.49443   0.95718   0.00000  Uiso   1.00
C158   C     0.63434   0.46308   0.01329   0.00000  Uiso   1.00
C159   C     0.73997   0.45058   0.82155   0.00000  Uiso   1.00
C160   C     0.77822   0.48518   0.78222   0.00000  Uiso   1.00
C161   C     0.84680   0.44960   0.75832   0.00000  Uiso   1.00
H162   H     0.74071   0.30223   0.89198   0.00000  Uiso   1.00
H163   H     0.65546   0.28895   0.85679   0.00000  Uiso   1.00
H164   H     0.71455   0.30402   0.99914   0.00000  Uiso   1.00
H165   H     0.86031   0.29477   0.82421   0.00000  Uiso   1.00
H166   H     0.54803   0.30410   0.81121   0.00000  Uiso   1.00
H167   H     0.67266   0.33588   0.11136   0.00000  Uiso   1.00
H168   H     0.98002   0.31637   0.74249   0.00000  Uiso   1.00
H169   H     0.64145   0.53243   0.84123   0.00000  Uiso   1.00
H170   H     0.55074   0.53178   0.80325   0.00000  Uiso   1.00
H171   H     0.60984   0.54685   0.94561   0.00000  Uiso   1.00
H172   H     0.75559   0.53760   0.77068   0.00000  Uiso   1.00
H173   H     0.46304   0.50119   0.76776   0.00000  Uiso   1.00
H174   H     0.58767   0.53297   0.06792   0.00000  Uiso   1.00
H175   H     0.89503   0.51347   0.69904   0.00000  Uiso   1.00
O176   O     0.44764   0.39807   0.76544   0.00000  Uiso   1.00
O177   O     0.61116   0.43976   0.15922   0.00000  Uiso   1.00
O178   O     0.01441   0.41417   0.67527   0.00000  Uiso   1.00
N179   N     0.54049   0.35058   0.80618   0.00000  Uiso   1.00
N180   N     0.65700   0.38028   0.08681   0.00000  Uiso   1.00
N181   N     0.94436   0.36205   0.74196   0.00000  Uiso   1.00
N182   N     0.49475   0.45663   0.78280   0.00000  Uiso   1.00
N183   N     0.61126   0.48634   0.06343   0.00000  Uiso   1.00
N184   N     0.89863   0.46810   0.71858   0.00000  Uiso   1.00
C185   C     0.13285   0.83039   0.84449   0.00000  Uiso   1.00
C186   C     0.18725   0.77242   0.81704   0.00000  Uiso   1.00
C187   C     0.25595   0.76208   0.79139   0.00000  Uiso   1.00
C188   C     0.29744   0.70608   0.76877   0.00000  Uiso   1.00
C189   C     0.38592   0.62276   0.72572   0.00000  Uiso   1.00
C190   C     0.10277   0.80234   0.90590   0.00000  Uiso   1.00
C191   C     0.10043   0.81716   0.95497   0.00000  Uiso   1.00
C192   C     0.07080   0.78635   0.00716   0.00000  Uiso   1.00
C193   C     0.02807   0.74952   0.10207   0.00000  Uiso   1.00
C194   C     0.07533   0.86084   0.81426   0.00000  Uiso   1.00
C195   C     0.04990   0.92486   0.78629   0.00000  Uiso   1.00
C196   C     0.99715   0.94331   0.76133   0.00000  Uiso   1.00
C197   C     0.91182   0.99730   0.71396   0.00000  Uiso   1.00
C198   C     0.08439   0.74933   0.84992   0.00000  Uiso   1.00
C199   C     0.16092   0.72840   0.81999   0.00000  Uiso   1.00
C200   C     0.20232   0.67240   0.79740   0.00000  Uiso   1.00
C201   C     0.27107   0.66197   0.77172   0.00000  Uiso   1.00
C202   C     0.07645   0.75832   0.90886   0.00000  Uiso   1.00
C203   C     0.04681   0.72748   0.96098   0.00000  Uiso   1.00
C204   C     0.04442   0.74225   0.01011   0.00000  Uiso   1.00
C205   C     0.04900   0.81682   0.81721   0.00000  Uiso   1.00
C206   C     0.99628   0.83517   0.79230   0.00000  Uiso   1.00
C207   C     0.97078   0.89920   0.76429   0.00000  Uiso   1.00
H208   H     0.15335   0.86466   0.84220   0.00000  Uiso   1.00
H209   H     0.27630   0.79616   0.78912   0.00000  Uiso   1.00
H210   H     0.12080   0.85124   0.95268   0.00000  Uiso   1.00
H211   H     0.07028   0.95891   0.78402   0.00000  Uiso   1.00
H212   H     0.40101   0.70078   0.73159   0.00000  Uiso   1.00
H213   H     0.07311   0.81694   0.07645   0.00000  Uiso   1.00
H214   H     0.96658   0.04399   0.72081   0.00000  Uiso   1.00
H215   H     0.06389   0.71505   0.85222   0.00000  Uiso   1.00
H216   H     0.18194   0.63834   0.79969   0.00000  Uiso   1.00
H217   H     0.02644   0.69342   0.96324   0.00000  Uiso   1.00
H218   H     0.97592   0.80109   0.79459   0.00000  Uiso   1.00
H219   H     0.32443   0.57268   0.74017   0.00000  Uiso   1.00
H220   H     0.99652   0.68884   0.08503   0.00000  Uiso   1.00
H221   H     0.89000   0.91590   0.72939   0.00000  Uiso   1.00
O222   O     0.44199   0.58895   0.70116   0.00000  Uiso   1.00
O223   O     0.01178   0.74136   0.15360   0.00000  Uiso   1.00
O224   O     0.87203   0.03925   0.68700   0.00000  Uiso   1.00
N225   N     0.36678   0.68117   0.74081   0.00000  Uiso   1.00
N226   N     0.06022   0.78976   0.06324   0.00000  Uiso   1.00
N227   N     0.96062   0.00204   0.73075   0.00000  Uiso   1.00
N228   N     0.32557   0.61224   0.74543   0.00000  Uiso   1.00
N229   N     0.01901   0.72083   0.06785   0.00000  Uiso   1.00
N230   N     0.91941   0.93312   0.73536   0.00000  Uiso   1.00
C231   C     0.19330   0.23406   0.88818   0.00000  Uiso   1.00
C232   C     0.22376   0.28517   0.85858   0.00000  Uiso   1.00
C233   C     0.18894   0.34881   0.83422   0.00000  Uiso   1.00
C234   C     0.22591   0.38796   0.80922   0.00000  Uiso   1.00
C235   C     0.26267   0.47093   0.76338   0.00000  Uiso   1.00
C236   C     0.20469   0.20988   0.94819   0.00000  Uiso   1.00
C237   C     0.15383   0.21022   0.99916   0.00000  Uiso   1.00
C238   C     0.17475   0.18599   0.04958   0.00000  Uiso   1.00
C239   C     0.18189   0.15204   0.14286   0.00000  Uiso   1.00
C240   C     0.23887   0.17722   0.85703   0.00000  Uiso   1.00
C241   C     0.21675   0.15009   0.83137   0.00000  Uiso   1.00
C242   C     0.26645   0.09835   0.80506   0.00000  Uiso   1.00
C243   C     0.32667   0.01369   0.75680   0.00000  Uiso   1.00
C244   C     0.32088   0.19042   0.88710   0.00000  Uiso   1.00
C245   C     0.29306   0.26146   0.85800   0.00000  Uiso   1.00
C246   C     0.33010   0.30053   0.83303   0.00000  Uiso   1.00
C247   C     0.29534   0.36422   0.80863   0.00000  Uiso   1.00
C248   C     0.27398   0.18618   0.94760   0.00000  Uiso   1.00
C249   C     0.29498   0.16194   0.99796   0.00000  Uiso   1.00
C250   C     0.24417   0.16225   0.04900   0.00000  Uiso   1.00
C251   C     0.30817   0.15352   0.85644   0.00000  Uiso   1.00
C252   C     0.35791   0.10181   0.83017   0.00000  Uiso   1.00
C253   C     0.33587   0.07461   0.80447   0.00000  Uiso   1.00
H254   H     0.13934   0.25251   0.88864   0.00000  Uiso   1.00
H255   H     0.13531   0.36713   0.83469   0.00000  Uiso   1.00
H256   H     0.10021   0.22856   0.99960   0.00000  Uiso   1.00
H257   H     0.16312   0.16844   0.83183   0.00000  Uiso   1.00
H258   H     0.16139   0.48377   0.77463   0.00000  Uiso   1.00
H259   H     0.08737   0.19156   0.12236   0.00000  Uiso   1.00
H260   H     0.22004   0.06479   0.76859   0.00000  Uiso   1.00
H261   H     0.37483   0.17197   0.88664   0.00000  Uiso   1.00
H262   H     0.38372   0.28217   0.83258   0.00000  Uiso   1.00
H263   H     0.34861   0.14360   0.99749   0.00000  Uiso   1.00
H264   H     0.41153   0.08348   0.82973   0.00000  Uiso   1.00
H265   H     0.36301   0.41482   0.77292   0.00000  Uiso   1.00
H266   H     0.28899   0.12260   0.12065   0.00000  Uiso   1.00
H267   H     0.42166   0.99583   0.76688   0.00000  Uiso   1.00
O268   O     0.26380   0.52325   0.73827   0.00000  Uiso   1.00
O269   O     0.16669   0.13987   0.19447   0.00000  Uiso   1.00
O270   O     0.34074   0.97355   0.73033   0.00000  Uiso   1.00
N271   N     0.20763   0.45241   0.78164   0.00000  Uiso   1.00
N272   N     0.13842   0.17922   0.10674   0.00000  Uiso   1.00
N273   N     0.26245   0.06069   0.77601   0.00000  Uiso   1.00
N274   N     0.31612   0.41531   0.78072   0.00000  Uiso   1.00
N275   N     0.24691   0.14212   0.10582   0.00000  Uiso   1.00
N276   N     0.37094   0.02359   0.77509   0.00000  Uiso   1.00
C277   C     0.75563   0.42042   0.56656   0.00000  Uiso   1.00
C278   C     0.81097   0.36503   0.59460   0.00000  Uiso   1.00
C279   C     0.81705   0.30119   0.61369   0.00000  Uiso   1.00
C280   C     0.87123   0.25779   0.63812   0.00000  Uiso   1.00
C281   C     0.95013   0.16877   0.68085   0.00000  Uiso   1.00
C282   C     0.79377   0.44846   0.50886   0.00000  Uiso   1.00
C283   C     0.78538   0.45477   0.45586   0.00000  Uiso   1.00
C284   C     0.82508   0.48161   0.40813   0.00000  Uiso   1.00
C285   C     0.87724   0.52215   0.31775   0.00000  Uiso   1.00
C286   C     0.72068   0.47276   0.60270   0.00000  Uiso   1.00
C287   C     0.65083   0.49952   0.62859   0.00000  Uiso   1.00
C288   C     0.62898   0.54683   0.65985   0.00000  Uiso   1.00
C289   C     0.56765   0.62510   0.71517   0.00000  Uiso   1.00
C290   C     0.84104   0.45688   0.57603   0.00000  Uiso   1.00
C291   C     0.85736   0.38484   0.59974   0.00000  Uiso   1.00
C292   C     0.91155   0.34153   0.62416   0.00000  Uiso   1.00
C293   C     0.91770   0.27763   0.64327   0.00000  Uiso   1.00
C294   C     0.84016   0.46826   0.51400   0.00000  Uiso   1.00
C295   C     0.87988   0.49510   0.46633   0.00000  Uiso   1.00
C296   C     0.87156   0.50145   0.41328   0.00000  Uiso   1.00
C297   C     0.76707   0.49256   0.60784   0.00000  Uiso   1.00
C298   C     0.74532   0.53985   0.63906   0.00000  Uiso   1.00
C299   C     0.67546   0.56667   0.66500   0.00000  Uiso   1.00
H300   H     0.71951   0.40501   0.56256   0.00000  Uiso   1.00
H301   H     0.78114   0.28588   0.60970   0.00000  Uiso   1.00
H302   H     0.74948   0.43944   0.45190   0.00000  Uiso   1.00
H303   H     0.61494   0.48418   0.62460   0.00000  Uiso   1.00
H304   H     0.86994   0.16254   0.66421   0.00000  Uiso   1.00
H305   H     0.80316   0.48635   0.33149   0.00000  Uiso   1.00
H306   H     0.51946   0.58069   0.69566   0.00000  Uiso   1.00
H307   H     0.87716   0.47230   0.58003   0.00000  Uiso   1.00
H308   H     0.94744   0.35686   0.62813   0.00000  Uiso   1.00
H309   H     0.91577   0.51043   0.47033   0.00000  Uiso   1.00
H310   H     0.78124   0.55516   0.64303   0.00000  Uiso   1.00
H311   H     0.00492   0.22015   0.67916   0.00000  Uiso   1.00
H312   H     0.93813   0.54396   0.34644   0.00000  Uiso   1.00
H313   H     0.65444   0.63830   0.71062   0.00000  Uiso   1.00
O314   O     0.98083   0.11419   0.70299   0.00000  Uiso   1.00
O315   O     0.89320   0.53903   0.26648   0.00000  Uiso   1.00
O316   O     0.52100   0.66279   0.74427   0.00000  Uiso   1.00
N317   N     0.89206   0.19194   0.66114   0.00000  Uiso   1.00
N318   N     0.82962   0.49468   0.35006   0.00000  Uiso   1.00
N319   N     0.56439   0.58289   0.69052   0.00000  Uiso   1.00
N320   N     0.96468   0.22294   0.66918   0.00000  Uiso   1.00
N321   N     0.90225   0.52568   0.35811   0.00000  Uiso   1.00
N322   N     0.63702   0.61389   0.69857   0.00000  Uiso   1.00
C323   C     0.37155   0.29749   0.59691   0.00000  Uiso   1.00
C324   C     0.31468   0.27196   0.62072   0.00000  Uiso   1.00
C325   C     0.24465   0.30965   0.62941   0.00000  Uiso   1.00
C326   C     0.20093   0.27706   0.65157   0.00000  Uiso   1.00
C327   C     0.10875   0.24774   0.68654   0.00000  Uiso   1.00
C328   C     0.41934   0.26672   0.54479   0.00000  Uiso   1.00
C329   C     0.43732   0.30001   0.48963   0.00000  Uiso   1.00
C330   C     0.48171   0.26301   0.44787   0.00000  Uiso   1.00
C331   C     0.55206   0.22556   0.36496   0.00000  Uiso   1.00
C332   C     0.41277   0.26820   0.64161   0.00000  Uiso   1.00
C333   C     0.42524   0.30273   0.66785   0.00000  Uiso   1.00
C334   C     0.46412   0.26698   0.70760   0.00000  Uiso   1.00
C335   C     0.52426   0.23182   0.77501   0.00000  Uiso   1.00
C336   C     0.41843   0.17260   0.62082   0.00000  Uiso   1.00
C337   C     0.34014   0.20412   0.63371   0.00000  Uiso   1.00
C338   C     0.29652   0.17147   0.65586   0.00000  Uiso   1.00
C339   C     0.22644   0.20910   0.66458   0.00000  Uiso   1.00
C340   C     0.44480   0.19889   0.55777   0.00000  Uiso   1.00
C341   C     0.48918   0.16183   0.51609   0.00000  Uiso   1.00
C342   C     0.50722   0.19506   0.46088   0.00000  Uiso   1.00
C343   C     0.43823   0.20036   0.65460   0.00000  Uiso   1.00
C344   C     0.47710   0.16455   0.69431   0.00000  Uiso   1.00
C345   C     0.48963   0.19902   0.72061   0.00000  Uiso   1.00
H346   H     0.35173   0.35030   0.58680   0.00000  Uiso   1.00
H347   H     0.22497   0.36215   0.61935   0.00000  Uiso   1.00
H348   H     0.41761   0.35251   0.47960   0.00000  Uiso   1.00
H349   H     0.40553   0.35523   0.65779   0.00000  Uiso   1.00
H350   H     0.09566   0.34536   0.66114   0.00000  Uiso   1.00
H351   H     0.50187   0.32504   0.36647   0.00000  Uiso   1.00
H352   H     0.47640   0.33077   0.74222   0.00000  Uiso   1.00
H353   H     0.43826   0.11978   0.63093   0.00000  Uiso   1.00
H354   H     0.31624   0.11897   0.66591   0.00000  Uiso   1.00
H355   H     0.50888   0.10934   0.52615   0.00000  Uiso   1.00
H356   H     0.49680   0.11206   0.70435   0.00000  Uiso   1.00
H357   H     0.16973   0.14799   0.69893   0.00000  Uiso   1.00
H358   H     0.57595   0.12767   0.40426   0.00000  Uiso   1.00
H359   H     0.55048   0.13341   0.78001   0.00000  Uiso   1.00
O360   O     0.05087   0.25030   0.70223   0.00000  Uiso   1.00
O361   O     0.58382   0.22364   0.31564   0.00000  Uiso   1.00
O362   O     0.55039   0.23117   0.80861   0.00000  Uiso   1.00
N363   N     0.12984   0.29902   0.66525   0.00000  Uiso   1.00
N364   N     0.50962   0.28002   0.38974   0.00000  Uiso   1.00
N365   N     0.48582   0.28538   0.74103   0.00000  Uiso   1.00
N366   N     0.16970   0.19282   0.68558   0.00000  Uiso   1.00
N367   N     0.54947   0.17382   0.41008   0.00000  Uiso   1.00
N368   N     0.52567   0.17918   0.76136   0.00000  Uiso   1.00
C369   C     0.25526   0.81675   0.58980   0.00000  Uiso   1.00
C370   C     0.22183   0.87675   0.61655   0.00000  Uiso   1.00
C371   C     0.25180   0.89281   0.64488   0.00000  Uiso   1.00
C372   C     0.21278   0.94978   0.66629   0.00000  Uiso   1.00
C373   C     0.17101   0.03696   0.70882   0.00000  Uiso   1.00
C374   C     0.25341   0.84161   0.52709   0.00000  Uiso   1.00
C375   C     0.30993   0.82811   0.48022   0.00000  Uiso   1.00
C376   C     0.29748   0.85549   0.42632   0.00000  Uiso   1.00
C377   C     0.30474   0.88807   0.32997   0.00000  Uiso   1.00
C378   C     0.20653   0.78165   0.61728   0.00000  Uiso   1.00
C379   C     0.22363   0.71774   0.64623   0.00000  Uiso   1.00
C380   C     0.17171   0.69464   0.66826   0.00000  Uiso   1.00
C381   C     0.10617   0.63413   0.71195   0.00000  Uiso   1.00
C382   C     0.13266   0.88936   0.57743   0.00000  Uiso   1.00
C383   C     0.15524   0.91619   0.60982   0.00000  Uiso   1.00
C384   C     0.11616   0.97315   0.63120   0.00000  Uiso   1.00
C385   C     0.14606   0.98929   0.65956   0.00000  Uiso   1.00
C386   C     0.18682   0.88105   0.52037   0.00000  Uiso   1.00
C387   C     0.17429   0.90845   0.46653   0.00000  Uiso   1.00
C388   C     0.23077   0.89500   0.41959   0.00000  Uiso   1.00
C389   C     0.13993   0.82110   0.61056   0.00000  Uiso   1.00
C390   C     0.08798   0.79808   0.63255   0.00000  Uiso   1.00
C391   C     0.10500   0.73415   0.66153   0.00000  Uiso   1.00
H392   H     0.30711   0.78604   0.59503   0.00000  Uiso   1.00
H393   H     0.30334   0.86227   0.65007   0.00000  Uiso   1.00
H394   H     0.36146   0.79758   0.48543   0.00000  Uiso   1.00
H395   H     0.27516   0.68723   0.65143   0.00000  Uiso   1.00
H396   H     0.26981   0.96420   0.70811   0.00000  Uiso   1.00
H397   H     0.39234   0.82777   0.36097   0.00000  Uiso   1.00
H398   H     0.21038   0.59507   0.71099   0.00000  Uiso   1.00
H399   H     0.08082   0.92007   0.57219   0.00000  Uiso   1.00
H400   H     0.06463   0.00366   0.62599   0.00000  Uiso   1.00
H401   H     0.12275   0.93897   0.46135   0.00000  Uiso   1.00
H402   H     0.03646   0.82862   0.62734   0.00000  Uiso   1.00
H403   H     0.07606   0.07896   0.68856   0.00000  Uiso   1.00
H404   H     0.19860   0.94252   0.34141   0.00000  Uiso   1.00
H405   H     0.01664   0.70983   0.69144   0.00000  Uiso   1.00
O406   O     0.16638   0.07416   0.73412   0.00000  Uiso   1.00
O407   O     0.32714   0.89515   0.27868   0.00000  Uiso   1.00
O408   O     0.08842   0.58987   0.73791   0.00000  Uiso   1.00
N409   N     0.22642   0.97973   0.69614   0.00000  Uiso   1.00
N410   N     0.34099   0.85218   0.37158   0.00000  Uiso   1.00
N411   N     0.17088   0.63463   0.69881   0.00000  Uiso   1.00
N412   N     0.12217   0.04148   0.68562   0.00000  Uiso   1.00
N413   N     0.23674   0.91393   0.36106   0.00000  Uiso   1.00
N414   N     0.06663   0.69638   0.68829   0.00000  Uiso   1.00
C415   C     0.28203   0.64503   0.11965   0.00000  Uiso   1.00
C416   C     0.34211   0.62033   0.14581   0.00000  Uiso   1.00
C417   C     0.36716   0.65863   0.15478   0.00000  Uiso   1.00
C418   C     0.42253   0.62675   0.17924   0.00000  Uiso   1.00
C419   C     0.51140   0.59869   0.21756   0.00000  Uiso   1.00
C420   C     0.31001   0.61214   0.06847   0.00000  Uiso   1.00
C421   C     0.30806   0.64356   0.01240   0.00000  Uiso   1.00
C422   C     0.33640   0.60479   0.97175   0.00000  Uiso   1.00
C423   C     0.37539   0.56402   0.89000   0.00000  Uiso   1.00
C424   C     0.23082   0.61717   0.16351   0.00000  Uiso   1.00
C425   C     0.16228   0.65281   0.18736   0.00000  Uiso   1.00
C426   C     0.12393   0.61827   0.22672   0.00000  Uiso   1.00
C427   C     0.03997   0.58530   0.29254   0.00000  Uiso   1.00
C428   C     0.33581   0.52032   0.14715   0.00000  Uiso   1.00
C429   C     0.37132   0.55258   0.16074   0.00000  Uiso   1.00
C430   C     0.42666   0.52064   0.18520   0.00000  Uiso   1.00
C431   C     0.45179   0.55889   0.19420   0.00000  Uiso   1.00
C432   C     0.33922   0.54440   0.08340   0.00000  Uiso   1.00
C433   C     0.36757   0.50557   0.04282   0.00000  Uiso   1.00
C434   C     0.36566   0.53692   0.98671   0.00000  Uiso   1.00
C435   C     0.26003   0.54942   0.17845   0.00000  Uiso   1.00
C436   C     0.22178   0.51482   0.21778   0.00000  Uiso   1.00
C437   C     0.15320   0.55040   0.24168   0.00000  Uiso   1.00
H438   H     0.25929   0.69777   0.10802   0.00000  Uiso   1.00
H439   H     0.34454   0.71105   0.14321   0.00000  Uiso   1.00
H440   H     0.28545   0.69598   0.00086   0.00000  Uiso   1.00
H441   H     0.13969   0.70523   0.17579   0.00000  Uiso   1.00
H442   H     0.45197   0.69590   0.18879   0.00000  Uiso   1.00
H443   H     0.32734   0.66412   0.88864   0.00000  Uiso   1.00
H444   H     0.01998   0.68363   0.25751   0.00000  Uiso   1.00
H445   H     0.35855   0.46757   0.15877   0.00000  Uiso   1.00
H446   H     0.44926   0.46822   0.19675   0.00000  Uiso   1.00
H447   H     0.39016   0.45315   0.05439   0.00000  Uiso   1.00
H448   H     0.24441   0.46240   0.22932   0.00000  Uiso   1.00
H449   H     0.53696   0.49881   0.23224   0.00000  Uiso   1.00
H450   H     0.41233   0.46703   0.93208   0.00000  Uiso   1.00
H451   H     0.10497   0.48653   0.30096   0.00000  Uiso   1.00
O452   O     0.55236   0.60193   0.23456   0.00000  Uiso   1.00
O453   O     0.38884   0.56024   0.84078   0.00000  Uiso   1.00
O454   O     0.98559   0.58583   0.32473   0.00000  Uiso   1.00
N455   N     0.45951   0.64942   0.19382   0.00000  Uiso   1.00
N456   N     0.34300   0.61972   0.91319   0.00000  Uiso   1.00
N457   N     0.05564   0.63795   0.25804   0.00000  Uiso   1.00
N458   N     0.50525   0.54337   0.21720   0.00000  Uiso   1.00
N459   N     0.38874   0.51366   0.93657   0.00000  Uiso   1.00
N460   N     0.10137   0.53190   0.28142   0.00000  Uiso   1.00
C461   C     0.86715   0.16961   0.15551   0.00000  Uiso   1.00
C462   C     0.81275   0.22758   0.18296   0.00000  Uiso   1.00
C463   C     0.74405   0.23792   0.20861   0.00000  Uiso   1.00
C464   C     0.70256   0.29392   0.23123   0.00000  Uiso   1.00
C465   C     0.61408   0.37724   0.27428   0.00000  Uiso   1.00
C466   C     0.89723   0.19766   0.09410   0.00000  Uiso   1.00
C467   C     0.89957   0.18284   0.04503   0.00000  Uiso   1.00
C468   C     0.92920   0.21365   0.99284   0.00000  Uiso   1.00
C469   C     0.97193   0.25048   0.89793   0.00000  Uiso   1.00
C470   C     0.92467   0.13916   0.18574   0.00000  Uiso   1.00
C471   C     0.95010   0.07514   0.21371   0.00000  Uiso   1.00
C472   C     0.00285   0.05669   0.23867   0.00000  Uiso   1.00
C473   C     0.08818   0.00270   0.28604   0.00000  Uiso   1.00
C474   C     0.91561   0.25067   0.15008   0.00000  Uiso   1.00
C475   C     0.83908   0.27160   0.18001   0.00000  Uiso   1.00
C476   C     0.79768   0.32760   0.20260   0.00000  Uiso   1.00
C477   C     0.72893   0.33803   0.22828   0.00000  Uiso   1.00
C478   C     0.92355   0.24168   0.09114   0.00000  Uiso   1.00
C479   C     0.95319   0.27252   0.03902   0.00000  Uiso   1.00
C480   C     0.95558   0.25775   0.98989   0.00000  Uiso   1.00
C481   C     0.95100   0.18318   0.18279   0.00000  Uiso   1.00
C482   C     0.00372   0.16483   0.20770   0.00000  Uiso   1.00
C483   C     0.02922   0.10080   0.23571   0.00000  Uiso   1.00
H484   H     0.84665   0.13534   0.15780   0.00000  Uiso   1.00
H485   H     0.72370   0.20384   0.21088   0.00000  Uiso   1.00
H486   H     0.87920   0.14876   0.04732   0.00000  Uiso   1.00
H487   H     0.92972   0.04109   0.21598   0.00000  Uiso   1.00
H488   H     0.59899   0.29922   0.26841   0.00000  Uiso   1.00
H489   H     0.92689   0.18306   0.92355   0.00000  Uiso   1.00
H490   H     0.03342   0.95601   0.27919   0.00000  Uiso   1.00
H491   H     0.93611   0.28495   0.14778   0.00000  Uiso   1.00
H492   H     0.81806   0.36166   0.20031   0.00000  Uiso   1.00
H493   H     0.97356   0.30658   0.03676   0.00000  Uiso   1.00
H494   H     0.02408   0.19891   0.20541   0.00000  Uiso   1.00
H495   H     0.67557   0.42732   0.25983   0.00000  Uiso   1.00
H496   H     0.00348   0.31116   0.91497   0.00000  Uiso   1.00
H497   H     0.11000   0.08410   0.27061   0.00000  Uiso   1.00
O498   O     0.55801   0.41105   0.29884   0.00000  Uiso   1.00
O499   O     0.98822   0.25864   0.84640   0.00000  Uiso   1.00
O500   O     0.12797   0.96075   0.31300   0.00000  Uiso   1.00
N501   N     0.63322   0.31883   0.25919   0.00000  Uiso   1.00
N502   N     0.93978   0.21024   0.93676   0.00000  Uiso   1.00
N503   N     0.03938   0.99796   0.26925   0.00000  Uiso   1.00
N504   N     0.67443   0.38776   0.25457   0.00000  Uiso   1.00
N505   N     0.98099   0.27917   0.93215   0.00000  Uiso   1.00
N506   N     0.08059   0.06688   0.26464   0.00000  Uiso   1.00
C507   C     0.80670   0.76594   0.11182   0.00000  Uiso   1.00
C508   C     0.77624   0.71483   0.14142   0.00000  Uiso   1.00
C509   C     0.81106   0.65119   0.16578   0.00000  Uiso   1.00
C510   C     0.77409   0.61204   0.19078   0.00000  Uiso   1.00
C511   C     0.73733   0.52907   0.23662   0.00000  Uiso   1.00
C512   C     0.79531   0.79012   0.05181   0.00000  Uiso   1.00
C513   C     0.84617   0.78978   0.00084   0.00000  Uiso   1.00
C514   C     0.82525   0.81401   0.95042   0.00000  Uiso   1.00
C515   C     0.81811   0.84796   0.85714   0.00000  Uiso   1.00
C516   C     0.76113   0.82278   0.14297   0.00000  Uiso   1.00
C517   C     0.78325   0.84991   0.16863   0.00000  Uiso   1.00
C518   C     0.73355   0.90165   0.19494   0.00000  Uiso   1.00
C519   C     0.67333   0.98631   0.24320   0.00000  Uiso   1.00
C520   C     0.67912   0.80958   0.11290   0.00000  Uiso   1.00
C521   C     0.70694   0.73854   0.14200   0.00000  Uiso   1.00
C522   C     0.66990   0.69947   0.16697   0.00000  Uiso   1.00
C523   C     0.70466   0.63578   0.19137   0.00000  Uiso   1.00
C524   C     0.72602   0.81382   0.05240   0.00000  Uiso   1.00
C525   C     0.70502   0.83806   0.00204   0.00000  Uiso   1.00
C526   C     0.75583   0.83775   0.95100   0.00000  Uiso   1.00
C527   C     0.69183   0.84648   0.14356   0.00000  Uiso   1.00
C528   C     0.64209   0.89819   0.16983   0.00000  Uiso   1.00
C529   C     0.66413   0.92539   0.19553   0.00000  Uiso   1.00
H530   H     0.86066   0.74749   0.11136   0.00000  Uiso   1.00
H531   H     0.86469   0.63287   0.16531   0.00000  Uiso   1.00
H532   H     0.89979   0.77144   0.00040   0.00000  Uiso   1.00
H533   H     0.83688   0.83156   0.16817   0.00000  Uiso   1.00
H534   H     0.83861   0.51623   0.22537   0.00000  Uiso   1.00
H535   H     0.91263   0.80844   0.87764   0.00000  Uiso   1.00
H536   H     0.77996   0.93521   0.23141   0.00000  Uiso   1.00
H537   H     0.62517   0.82803   0.11336   0.00000  Uiso   1.00
H538   H     0.61628   0.71783   0.16742   0.00000  Uiso   1.00
H539   H     0.65139   0.85640   0.00251   0.00000  Uiso   1.00
H540   H     0.58847   0.91652   0.17027   0.00000  Uiso   1.00
H541   H     0.63699   0.58518   0.22708   0.00000  Uiso   1.00
H542   H     0.71101   0.87740   0.87935   0.00000  Uiso   1.00
H543   H     0.57834   0.00417   0.23312   0.00000  Uiso   1.00
O544   O     0.73620   0.47675   0.26173   0.00000  Uiso   1.00
O545   O     0.83331   0.86013   0.80553   0.00000  Uiso   1.00
O546   O     0.65926   0.02645   0.26967   0.00000  Uiso   1.00
N547   N     0.79237   0.54759   0.21836   0.00000  Uiso   1.00
N548   N     0.86158   0.82078   0.89326   0.00000  Uiso   1.00
N549   N     0.73755   0.93931   0.22399   0.00000  Uiso   1.00
N550   N     0.68388   0.58469   0.21928   0.00000  Uiso   1.00
N551   N     0.75309   0.85788   0.89418   0.00000  Uiso   1.00
N552   N     0.62906   0.97641   0.22491   0.00000  Uiso   1.00
