data_job_05268
_audit_creation_date              2018-12-19
_audit_creation_method            'Materials Studio'
_symmetry_space_group_name_H-M    'P1'
_symmetry_Int_Tables_number       1
_symmetry_cell_setting            triclinic
loop_
_symmetry_equiv_pos_as_xyz
  x,y,z
_cell_length_a                    7.6333
_cell_length_b                    12.5047
_cell_length_c                    20.5240
_cell_angle_alpha                 85.4893
_cell_angle_beta                  95.2685
_cell_angle_gamma                 103.1143
loop_
_atom_site_label
_atom_site_type_symbol
_atom_site_fract_x
_atom_site_fract_y
_atom_site_fract_z
_atom_site_U_iso_or_equiv
_atom_site_adp_type
_atom_site_occupancy
C1     C     0.79955   0.93246   0.81624   0.00000  Uiso   1.00
C2     C     0.66558   0.99241   0.83935   0.00000  Uiso   1.00
C3     C     0.70970   0.08931   0.87180   0.00000  Uiso   1.00
C4     C     0.56753   0.13105   0.88882   0.00000  Uiso   1.00
C5     C     0.38685   0.23222   0.92700   0.00000  Uiso   1.00
C6     C     0.75317   0.81593   0.84770   0.00000  Uiso   1.00
C7     C     0.87097   0.76445   0.88718   0.00000  Uiso   1.00
C8     C     0.80253   0.65763   0.91123   0.00000  Uiso   1.00
C9     C     0.75789   0.48478   0.96234   0.00000  Uiso   1.00
C10    C     0.75308   0.92175   0.74284   0.00000  Uiso   1.00
C11    C     0.87080   0.95922   0.69414   0.00000  Uiso   1.00
C12    C     0.80229   0.94147   0.62990   0.00000  Uiso   1.00
C13    C     0.75751   0.93293   0.51820   0.00000  Uiso   1.00
C14    C     0.46858   0.83428   0.78875   0.00000  Uiso   1.00
C15    C     0.48581   0.93908   0.82441   0.00000  Uiso   1.00
C16    C     0.34353   0.98069   0.84138   0.00000  Uiso   1.00
C17    C     0.38744   0.07763   0.87386   0.00000  Uiso   1.00
C18    C     0.57342   0.76261   0.83277   0.00000  Uiso   1.00
C19    C     0.50479   0.65583   0.85676   0.00000  Uiso   1.00
C20    C     0.62244   0.60420   0.89627   0.00000  Uiso   1.00
C21    C     0.57331   0.86843   0.72790   0.00000  Uiso   1.00
C22    C     0.50462   0.85060   0.66373   0.00000  Uiso   1.00
C23    C     0.62220   0.88804   0.61494   0.00000  Uiso   1.00
H24    H     0.93950   0.97397   0.82787   0.00000  Uiso   1.00
H25    H     0.84884   0.13055   0.88336   0.00000  Uiso   1.00
H26    H     0.01008   0.80574   0.89872   0.00000  Uiso   1.00
H27    H     0.00990   0.00048   0.70572   0.00000  Uiso   1.00
H28    H     0.66905   0.28060   0.93831   0.00000  Uiso   1.00
H29    H     0.00904   0.59571   0.97069   0.00000  Uiso   1.00
H30    H     0.00868   0.00636   0.56371   0.00000  Uiso   1.00
H31    H     0.32862   0.79276   0.77712   0.00000  Uiso   1.00
H32    H     0.20443   0.93940   0.82982   0.00000  Uiso   1.00
H33    H     0.36567   0.61459   0.84519   0.00000  Uiso   1.00
H34    H     0.36550   0.80933   0.65219   0.00000  Uiso   1.00
H35    H     0.14602   0.12546   0.89486   0.00000  Uiso   1.00
H36    H     0.48602   0.44056   0.92724   0.00000  Uiso   1.00
H37    H     0.48565   0.85122   0.52026   0.00000  Uiso   1.00
O38    O     0.33686   0.30274   0.95219   0.00000  Uiso   1.00
O39    O     0.78294   0.40418   0.99466   0.00000  Uiso   1.00
O40    O     0.78246   0.94296   0.46071   0.00000  Uiso   1.00
N41    N     0.56299   0.22397   0.92084   0.00000  Uiso   1.00
N42    N     0.88087   0.58365   0.95112   0.00000  Uiso   1.00
N43    N     0.88054   0.96755   0.57063   0.00000  Uiso   1.00
N44    N     0.28156   0.14049   0.89746   0.00000  Uiso   1.00
N45    N     0.59943   0.50017   0.92774   0.00000  Uiso   1.00
N46    N     0.59910   0.88407   0.54725   0.00000  Uiso   1.00
C47    C     0.20045   0.06754   0.18376   0.00000  Uiso   1.00
C48    C     0.33442   0.00759   0.16065   0.00000  Uiso   1.00
C49    C     0.29030   0.91069   0.12820   0.00000  Uiso   1.00
C50    C     0.43247   0.86895   0.11118   0.00000  Uiso   1.00
C51    C     0.61315   0.76778   0.07300   0.00000  Uiso   1.00
C52    C     0.24683   0.18407   0.15230   0.00000  Uiso   1.00
C53    C     0.12903   0.23555   0.11282   0.00000  Uiso   1.00
C54    C     0.19747   0.34237   0.08877   0.00000  Uiso   1.00
C55    C     0.24211   0.51522   0.03766   0.00000  Uiso   1.00
C56    C     0.24692   0.07825   0.25716   0.00000  Uiso   1.00
C57    C     0.12920   0.04078   0.30586   0.00000  Uiso   1.00
C58    C     0.19771   0.05853   0.37010   0.00000  Uiso   1.00
C59    C     0.24249   0.06707   0.48180   0.00000  Uiso   1.00
C60    C     0.53142   0.16572   0.21125   0.00000  Uiso   1.00
C61    C     0.51419   0.06092   0.17559   0.00000  Uiso   1.00
C62    C     0.65647   0.01931   0.15862   0.00000  Uiso   1.00
C63    C     0.61256   0.92237   0.12614   0.00000  Uiso   1.00
C64    C     0.42658   0.23739   0.16723   0.00000  Uiso   1.00
C65    C     0.49521   0.34417   0.14324   0.00000  Uiso   1.00
C66    C     0.37756   0.39580   0.10373   0.00000  Uiso   1.00
C67    C     0.42669   0.13157   0.27210   0.00000  Uiso   1.00
C68    C     0.49538   0.14940   0.33627   0.00000  Uiso   1.00
C69    C     0.37780   0.11196   0.38506   0.00000  Uiso   1.00
H70    H     0.06050   0.02603   0.17213   0.00000  Uiso   1.00
H71    H     0.15116   0.86945   0.11664   0.00000  Uiso   1.00
H72    H     0.98992   0.19426   0.10128   0.00000  Uiso   1.00
H73    H     0.99010   0.99952   0.29428   0.00000  Uiso   1.00
H74    H     0.33095   0.71940   0.06169   0.00000  Uiso   1.00
H75    H     0.99096   0.40429   0.02931   0.00000  Uiso   1.00
H76    H     0.99132   0.99364   0.43629   0.00000  Uiso   1.00
H77    H     0.67138   0.20724   0.22288   0.00000  Uiso   1.00
H78    H     0.79557   0.06060   0.17018   0.00000  Uiso   1.00
H79    H     0.63433   0.38541   0.15481   0.00000  Uiso   1.00
H80    H     0.63450   0.19067   0.34781   0.00000  Uiso   1.00
H81    H     0.85398   0.87454   0.10514   0.00000  Uiso   1.00
H82    H     0.51398   0.55944   0.07276   0.00000  Uiso   1.00
H83    H     0.51435   0.14878   0.47974   0.00000  Uiso   1.00
O84    O     0.66314   0.69726   0.04781   0.00000  Uiso   1.00
O85    O     0.21706   0.59582   0.00534   0.00000  Uiso   1.00
O86    O     0.21754   0.05704   0.53929   0.00000  Uiso   1.00
N87    N     0.43701   0.77603   0.07916   0.00000  Uiso   1.00
N88    N     0.11913   0.41635   0.04888   0.00000  Uiso   1.00
N89    N     0.11946   0.03245   0.42937   0.00000  Uiso   1.00
N90    N     0.71844   0.85951   0.10254   0.00000  Uiso   1.00
N91    N     0.40057   0.49983   0.07226   0.00000  Uiso   1.00
N92    N     0.40090   0.11593   0.45275   0.00000  Uiso   1.00
