data_job_06345
_audit_creation_date              2018-12-19
_audit_creation_method            'Materials Studio'
_symmetry_space_group_name_H-M    'P1'
_symmetry_Int_Tables_number       1
_symmetry_cell_setting            triclinic
loop_
_symmetry_equiv_pos_as_xyz
  x,y,z
_cell_length_a                    17.0750
_cell_length_b                    17.3678
_cell_length_c                    17.3977
_cell_angle_alpha                 109.8057
_cell_angle_beta                  70.4450
_cell_angle_gamma                 72.0595
loop_
_atom_site_label
_atom_site_type_symbol
_atom_site_fract_x
_atom_site_fract_y
_atom_site_fract_z
_atom_site_U_iso_or_equiv
_atom_site_adp_type
_atom_site_occupancy
C1     C     0.65363   0.72854   0.40143   0.00000  Uiso   1.00
C2     C     0.55930   0.75505   0.48033   0.00000  Uiso   1.00
C3     C     0.47673   0.77023   0.47566   0.00000  Uiso   1.00
C4     C     0.39792   0.79390   0.55541   0.00000  Uiso   1.00
C5     C     0.25088   0.83386   0.66555   0.00000  Uiso   1.00
C6     C     0.68084   0.80247   0.44128   0.00000  Uiso   1.00
C7     C     0.70048   0.85752   0.40377   0.00000  Uiso   1.00
C8     C     0.72400   0.92110   0.45064   0.00000  Uiso   1.00
C9     C     0.76571   0.03465   0.50013   0.00000  Uiso   1.00
C10    C     0.72545   0.63840   0.38541   0.00000  Uiso   1.00
C11    C     0.78262   0.55550   0.30092   0.00000  Uiso   1.00
C12    C     0.84371   0.48095   0.30074   0.00000  Uiso   1.00
C13    C     0.95469   0.33975   0.26347   0.00000  Uiso   1.00
C14    C     0.66050   0.74356   0.55135   0.00000  Uiso   1.00
C15    C     0.56303   0.76321   0.56176   0.00000  Uiso   1.00
C16    C     0.48433   0.78685   0.64153   0.00000  Uiso   1.00
C17    C     0.40166   0.80207   0.63698   0.00000  Uiso   1.00
C18    C     0.68457   0.81063   0.52271   0.00000  Uiso   1.00
C19    C     0.70808   0.87414   0.56964   0.00000  Uiso   1.00
C20    C     0.72774   0.92928   0.53222   0.00000  Uiso   1.00
C21    C     0.72918   0.64656   0.46684   0.00000  Uiso   1.00
C22    C     0.79021   0.57212   0.46679   0.00000  Uiso   1.00
C23    C     0.84745   0.48913   0.38232   0.00000  Uiso   1.00
H24    H     0.65073   0.72219   0.33803   0.00000  Uiso   1.00
H25    H     0.47387   0.76392   0.41263   0.00000  Uiso   1.00
H26    H     0.69759   0.85119   0.34075   0.00000  Uiso   1.00
H27    H     0.77971   0.54921   0.23791   0.00000  Uiso   1.00
H28    H     0.27943   0.81381   0.53127   0.00000  Uiso   1.00
H29    H     0.75119   0.99780   0.37968   0.00000  Uiso   1.00
H30    H     0.92435   0.36103   0.16283   0.00000  Uiso   1.00
H31    H     0.66341   0.74991   0.61475   0.00000  Uiso   1.00
H32    H     0.48724   0.79316   0.70454   0.00000  Uiso   1.00
H33    H     0.71096   0.88043   0.63266   0.00000  Uiso   1.00
H34    H     0.79308   0.57846   0.52982   0.00000  Uiso   1.00
H35    H     0.29028   0.83755   0.76819   0.00000  Uiso   1.00
H36    H     0.76204   0.02154   0.61660   0.00000  Uiso   1.00
H37    H     0.93520   0.38477   0.39976   0.00000  Uiso   1.00
O38    O     0.16873   0.85366   0.70382   0.00000  Uiso   1.00
O39    O     0.78768   0.09503   0.50493   0.00000  Uiso   1.00
O40    O     0.01486   0.25961   0.22043   0.00000  Uiso   1.00
N41    N     0.30617   0.81345   0.57470   0.00000  Uiso   1.00
N42    N     0.74722   0.98547   0.43298   0.00000  Uiso   1.00
N43    N     0.90913   0.39016   0.23024   0.00000  Uiso   1.00
N44    N     0.31200   0.82622   0.70219   0.00000  Uiso   1.00
N45    N     0.75305   0.99825   0.56047   0.00000  Uiso   1.00
N46    N     0.91497   0.40293   0.35773   0.00000  Uiso   1.00
C47    C     0.39980   0.32656   0.94453   0.00000  Uiso   1.00
C48    C     0.47896   0.27583   0.95941   0.00000  Uiso   1.00
C49    C     0.47499   0.29620   0.04538   0.00000  Uiso   1.00
C50    C     0.55486   0.24169   0.04413   0.00000  Uiso   1.00
C51    C     0.66550   0.17393   0.08005   0.00000  Uiso   1.00
C52    C     0.44168   0.36037   0.87893   0.00000  Uiso   1.00
C53    C     0.40637   0.45181   0.89723   0.00000  Uiso   1.00
C54    C     0.45486   0.46846   0.82822   0.00000  Uiso   1.00
C55    C     0.50758   0.53195   0.73916   0.00000  Uiso   1.00
C56    C     0.38079   0.25232   0.88897   0.00000  Uiso   1.00
C57    C     0.29427   0.25294   0.91570   0.00000  Uiso   1.00
C58    C     0.29149   0.17863   0.85513   0.00000  Uiso   1.00
C59    C     0.24967   0.07436   0.78166   0.00000  Uiso   1.00
C60    C     0.54870   0.19353   0.78943   0.00000  Uiso   1.00
C61    C     0.55984   0.20357   0.87516   0.00000  Uiso   1.00
C62    C     0.63974   0.14901   0.87378   0.00000  Uiso   1.00
C63    C     0.63589   0.16929   0.95974   0.00000  Uiso   1.00
C64    C     0.52256   0.28811   0.79468   0.00000  Uiso   1.00
C65    C     0.57111   0.30463   0.72563   0.00000  Uiso   1.00
C66    C     0.53588   0.39607   0.74382   0.00000  Uiso   1.00
C67    C     0.46167   0.18006   0.80472   0.00000  Uiso   1.00
C68    C     0.45902   0.10574   0.74410   0.00000  Uiso   1.00
C69    C     0.37251   0.10624   0.77074   0.00000  Uiso   1.00
H70    H     0.33683   0.38282   0.01012   0.00000  Uiso   1.00
H71    H     0.41239   0.35213   0.11056   0.00000  Uiso   1.00
H72    H     0.34377   0.50771   0.96243   0.00000  Uiso   1.00
H73    H     0.23170   0.30886   0.98090   0.00000  Uiso   1.00
H74    H     0.53184   0.28626   0.18477   0.00000  Uiso   1.00
H75    H     0.38714   0.61431   0.87241   0.00000  Uiso   1.00
H76    H     0.15080   0.19501   0.91136   0.00000  Uiso   1.00
H77    H     0.61167   0.13727   0.72383   0.00000  Uiso   1.00
H78    H     0.70232   0.09310   0.80857   0.00000  Uiso   1.00
H79    H     0.63370   0.24869   0.66044   0.00000  Uiso   1.00
H80    H     0.52162   0.04984   0.67891   0.00000  Uiso   1.00
H81    H     0.76716   0.07602   0.93966   0.00000  Uiso   1.00
H82    H     0.62245   0.40408   0.62730   0.00000  Uiso   1.00
H83    H     0.38612   0.98477   0.66625   0.00000  Uiso   1.00
O84    O     0.70418   0.15653   0.12313   0.00000  Uiso   1.00
O85    O     0.51432   0.58693   0.71331   0.00000  Uiso   1.00
O86    O     0.20426   0.03681   0.76441   0.00000  Uiso   1.00
N87    N     0.57478   0.24283   0.11546   0.00000  Uiso   1.00
N88    N     0.43949   0.54955   0.82342   0.00000  Uiso   1.00
N89    N     0.21854   0.15754   0.85982   0.00000  Uiso   1.00
N90    N     0.70140   0.12970   0.98357   0.00000  Uiso   1.00
N91    N     0.56612   0.43642   0.69153   0.00000  Uiso   1.00
N92    N     0.34516   0.04441   0.72793   0.00000  Uiso   1.00
C93    C     0.94419   0.38281   0.65482   0.00000  Uiso   1.00
C94    C     0.95708   0.31713   0.56178   0.00000  Uiso   1.00
C95    C     0.04288   0.25257   0.48071   0.00000  Uiso   1.00
C96    C     0.03967   0.19904   0.40291   0.00000  Uiso   1.00
C97    C     0.07275   0.09547   0.25793   0.00000  Uiso   1.00
C98    C     0.88031   0.48070   0.67888   0.00000  Uiso   1.00
C99    C     0.90156   0.55367   0.69627   0.00000  Uiso   1.00
C100   C     0.83372   0.63784   0.71706   0.00000  Uiso   1.00
C101   C     0.74759   0.78823   0.75395   0.00000  Uiso   1.00
C102   C     0.88673   0.36412   0.72790   0.00000  Uiso   1.00
C103   C     0.91336   0.33910   0.78655   0.00000  Uiso   1.00
C104   C     0.85092   0.32514   0.84862   0.00000  Uiso   1.00
C105   C     0.77476   0.29452   0.96163   0.00000  Uiso   1.00
C106   C     0.78593   0.40255   0.66081   0.00000  Uiso   1.00
C107   C     0.87111   0.32786   0.56503   0.00000  Uiso   1.00
C108   C     0.86777   0.27441   0.48733   0.00000  Uiso   1.00
C109   C     0.95355   0.20978   0.40616   0.00000  Uiso   1.00
C110   C     0.79435   0.49143   0.68213   0.00000  Uiso   1.00
C111   C     0.72646   0.57552   0.70290   0.00000  Uiso   1.00
C112   C     0.74760   0.64859   0.72032   0.00000  Uiso   1.00
C113   C     0.80077   0.37485   0.73116   0.00000  Uiso   1.00
C114   C     0.73826   0.36094   0.79316   0.00000  Uiso   1.00
C115   C     0.76480   0.33588   0.85188   0.00000  Uiso   1.00
H116   H     0.01111   0.37446   0.65229   0.00000  Uiso   1.00
H117   H     0.10939   0.24430   0.47821   0.00000  Uiso   1.00
H118   H     0.96808   0.54535   0.69376   0.00000  Uiso   1.00
H119   H     0.97989   0.33080   0.78401   0.00000  Uiso   1.00
H120   H     0.18043   0.10474   0.28665   0.00000  Uiso   1.00
H121   H     0.88247   0.73954   0.74117   0.00000  Uiso   1.00
H122   H     0.90737   0.28712   0.93148   0.00000  Uiso   1.00
H123   H     0.71900   0.41090   0.66334   0.00000  Uiso   1.00
H124   H     0.80124   0.28273   0.48987   0.00000  Uiso   1.00
H125   H     0.65994   0.58379   0.70542   0.00000  Uiso   1.00
H126   H     0.67175   0.36924   0.79566   0.00000  Uiso   1.00
H127   H     0.93033   0.13593   0.29611   0.00000  Uiso   1.00
H128   H     0.63237   0.77074   0.75063   0.00000  Uiso   1.00
H129   H     0.65727   0.31832   0.94094   0.00000  Uiso   1.00
O130   O     0.11475   0.03538   0.17706   0.00000  Uiso   1.00
O131   O     0.72384   0.86822   0.77339   0.00000  Uiso   1.00
O132   O     0.75651   0.27466   0.02306   0.00000  Uiso   1.00
N133   N     0.11028   0.12966   0.31269   0.00000  Uiso   1.00
N134   N     0.83172   0.72315   0.73762   0.00000  Uiso   1.00
N135   N     0.85498   0.30021   0.91556   0.00000  Uiso   1.00
N136   N     0.97570   0.14644   0.31778   0.00000  Uiso   1.00
N137   N     0.69714   0.73994   0.74271   0.00000  Uiso   1.00
N138   N     0.72040   0.31699   0.92065   0.00000  Uiso   1.00
C139   C     0.34637   0.27146   0.59857   0.00000  Uiso   1.00
C140   C     0.44070   0.24495   0.51967   0.00000  Uiso   1.00
C141   C     0.52327   0.22977   0.52434   0.00000  Uiso   1.00
C142   C     0.60208   0.20610   0.44459   0.00000  Uiso   1.00
C143   C     0.74912   0.16614   0.33445   0.00000  Uiso   1.00
C144   C     0.31916   0.19753   0.55872   0.00000  Uiso   1.00
C145   C     0.29952   0.14248   0.59623   0.00000  Uiso   1.00
C146   C     0.27600   0.07890   0.54936   0.00000  Uiso   1.00
C147   C     0.23429   0.96535   0.49987   0.00000  Uiso   1.00
C148   C     0.27455   0.36160   0.61459   0.00000  Uiso   1.00
C149   C     0.21738   0.44450   0.69908   0.00000  Uiso   1.00
C150   C     0.15629   0.51905   0.69926   0.00000  Uiso   1.00
C151   C     0.04531   0.66025   0.73652   0.00000  Uiso   1.00
C152   C     0.33950   0.25644   0.44865   0.00000  Uiso   1.00
C153   C     0.43697   0.23679   0.43824   0.00000  Uiso   1.00
C154   C     0.51567   0.21315   0.35847   0.00000  Uiso   1.00
C155   C     0.59834   0.19793   0.36301   0.00000  Uiso   1.00
C156   C     0.31543   0.18937   0.47729   0.00000  Uiso   1.00
C157   C     0.29192   0.12586   0.43036   0.00000  Uiso   1.00
C158   C     0.27226   0.07072   0.46778   0.00000  Uiso   1.00
C159   C     0.27082   0.35344   0.53316   0.00000  Uiso   1.00
C160   C     0.20979   0.42788   0.53321   0.00000  Uiso   1.00
C161   C     0.15255   0.51087   0.61768   0.00000  Uiso   1.00
H162   H     0.34927   0.27781   0.66197   0.00000  Uiso   1.00
H163   H     0.52613   0.23608   0.58737   0.00000  Uiso   1.00
H164   H     0.30241   0.14881   0.65925   0.00000  Uiso   1.00
H165   H     0.22029   0.45078   0.76208   0.00000  Uiso   1.00
H166   H     0.72057   0.18619   0.46873   0.00000  Uiso   1.00
H167   H     0.24881   0.00220   0.62032   0.00000  Uiso   1.00
H168   H     0.07565   0.63897   0.83717   0.00000  Uiso   1.00
H169   H     0.33659   0.25008   0.38525   0.00000  Uiso   1.00
H170   H     0.51276   0.20684   0.29546   0.00000  Uiso   1.00
H171   H     0.28904   0.11957   0.36734   0.00000  Uiso   1.00
H172   H     0.20692   0.42154   0.47018   0.00000  Uiso   1.00
H173   H     0.70972   0.16245   0.23181   0.00000  Uiso   1.00
H174   H     0.23796   0.97846   0.38340   0.00000  Uiso   1.00
H175   H     0.06480   0.61523   0.60024   0.00000  Uiso   1.00
O176   O     0.83127   0.14634   0.29618   0.00000  Uiso   1.00
O177   O     0.21232   0.90497   0.49507   0.00000  Uiso   1.00
O178   O     0.98514   0.74039   0.77957   0.00000  Uiso   1.00
N179   N     0.69383   0.18655   0.42530   0.00000  Uiso   1.00
N180   N     0.25278   0.01452   0.56702   0.00000  Uiso   1.00
N181   N     0.09087   0.60984   0.76976   0.00000  Uiso   1.00
N182   N     0.68800   0.17378   0.29781   0.00000  Uiso   1.00
N183   N     0.24695   0.00175   0.43953   0.00000  Uiso   1.00
N184   N     0.08503   0.59707   0.64227   0.00000  Uiso   1.00
C185   C     0.60020   0.67344   0.05547   0.00000  Uiso   1.00
C186   C     0.52104   0.72417   0.04059   0.00000  Uiso   1.00
C187   C     0.52501   0.70380   0.95462   0.00000  Uiso   1.00
C188   C     0.44513   0.75831   0.95587   0.00000  Uiso   1.00
C189   C     0.33450   0.82607   0.91995   0.00000  Uiso   1.00
C190   C     0.55832   0.63963   0.12107   0.00000  Uiso   1.00
C191   C     0.59363   0.54819   0.10277   0.00000  Uiso   1.00
C192   C     0.54514   0.53154   0.17178   0.00000  Uiso   1.00
C193   C     0.49242   0.46805   0.26084   0.00000  Uiso   1.00
C194   C     0.61921   0.74768   0.11103   0.00000  Uiso   1.00
C195   C     0.70573   0.74706   0.08430   0.00000  Uiso   1.00
C196   C     0.70851   0.82137   0.14486   0.00000  Uiso   1.00
C197   C     0.75033   0.92564   0.21834   0.00000  Uiso   1.00
C198   C     0.45130   0.80647   0.21057   0.00000  Uiso   1.00
C199   C     0.44016   0.79643   0.12484   0.00000  Uiso   1.00
C200   C     0.36026   0.85099   0.12622   0.00000  Uiso   1.00
C201   C     0.36411   0.83071   0.04026   0.00000  Uiso   1.00
C202   C     0.47744   0.71189   0.20532   0.00000  Uiso   1.00
C203   C     0.42889   0.69537   0.27437   0.00000  Uiso   1.00
C204   C     0.46412   0.60393   0.25618   0.00000  Uiso   1.00
C205   C     0.53833   0.81994   0.19528   0.00000  Uiso   1.00
C206   C     0.54098   0.89425   0.25590   0.00000  Uiso   1.00
C207   C     0.62749   0.89376   0.22926   0.00000  Uiso   1.00
H208   H     0.66317   0.61718   0.98988   0.00000  Uiso   1.00
H209   H     0.58761   0.64787   0.88943   0.00000  Uiso   1.00
H210   H     0.65623   0.49229   0.03757   0.00000  Uiso   1.00
H211   H     0.76830   0.69114   0.01910   0.00000  Uiso   1.00
H212   H     0.46816   0.71374   0.81523   0.00000  Uiso   1.00
H213   H     0.61286   0.38569   0.12759   0.00000  Uiso   1.00
H214   H     0.84920   0.80499   0.08864   0.00000  Uiso   1.00
H215   H     0.38833   0.86273   0.27617   0.00000  Uiso   1.00
H216   H     0.29768   0.90690   0.19143   0.00000  Uiso   1.00
H217   H     0.36630   0.75131   0.33956   0.00000  Uiso   1.00
H218   H     0.47838   0.95016   0.32109   0.00000  Uiso   1.00
H219   H     0.23284   0.92398   0.06033   0.00000  Uiso   1.00
H220   H     0.37755   0.59592   0.37270   0.00000  Uiso   1.00
H221   H     0.61388   0.01523   0.33375   0.00000  Uiso   1.00
O222   O     0.29582   0.84346   0.87687   0.00000  Uiso   1.00
O223   O     0.48568   0.41307   0.28669   0.00000  Uiso   1.00
O224   O     0.79574   0.96319   0.23559   0.00000  Uiso   1.00
N225   N     0.42522   0.75717   0.88454   0.00000  Uiso   1.00
N226   N     0.56051   0.45045   0.17658   0.00000  Uiso   1.00
N227   N     0.78146   0.84246   0.14017   0.00000  Uiso   1.00
N228   N     0.29860   0.87030   0.01643   0.00000  Uiso   1.00
N229   N     0.43388   0.56358   0.30847   0.00000  Uiso   1.00
N230   N     0.65484   0.95559   0.27207   0.00000  Uiso   1.00
C231   C     0.05581   0.61719   0.34518   0.00000  Uiso   1.00
C232   C     0.04292   0.68287   0.43822   0.00000  Uiso   1.00
C233   C     0.95712   0.74743   0.51929   0.00000  Uiso   1.00
C234   C     0.96033   0.80096   0.59709   0.00000  Uiso   1.00
C235   C     0.92725   0.90453   0.74207   0.00000  Uiso   1.00
C236   C     0.11969   0.51930   0.32112   0.00000  Uiso   1.00
C237   C     0.09844   0.44633   0.30372   0.00000  Uiso   1.00
C238   C     0.16628   0.36216   0.28294   0.00000  Uiso   1.00
C239   C     0.25241   0.21177   0.24605   0.00000  Uiso   1.00
C240   C     0.11327   0.63588   0.27210   0.00000  Uiso   1.00
C241   C     0.08664   0.66090   0.21345   0.00000  Uiso   1.00
C242   C     0.14908   0.67486   0.15138   0.00000  Uiso   1.00
C243   C     0.22524   0.70548   0.03836   0.00000  Uiso   1.00
C244   C     0.21407   0.59745   0.33919   0.00000  Uiso   1.00
C245   C     0.12889   0.67214   0.43497   0.00000  Uiso   1.00
C246   C     0.13222   0.72559   0.51267   0.00000  Uiso   1.00
C247   C     0.04644   0.79022   0.59384   0.00000  Uiso   1.00
C248   C     0.20565   0.50857   0.31787   0.00000  Uiso   1.00
C249   C     0.27354   0.42448   0.29710   0.00000  Uiso   1.00
C250   C     0.25240   0.35141   0.27968   0.00000  Uiso   1.00
C251   C     0.19923   0.62515   0.26884   0.00000  Uiso   1.00
C252   C     0.26173   0.63906   0.20683   0.00000  Uiso   1.00
C253   C     0.23520   0.66412   0.14811   0.00000  Uiso   1.00
H254   H     0.98889   0.62554   0.34771   0.00000  Uiso   1.00
H255   H     0.89061   0.75570   0.52178   0.00000  Uiso   1.00
H256   H     0.03192   0.45465   0.30624   0.00000  Uiso   1.00
H257   H     0.02011   0.66920   0.21599   0.00000  Uiso   1.00
H258   H     0.81957   0.89526   0.71335   0.00000  Uiso   1.00
H259   H     0.11753   0.26046   0.25883   0.00000  Uiso   1.00
H260   H     0.09263   0.71288   0.06852   0.00000  Uiso   1.00
H261   H     0.28100   0.58910   0.33666   0.00000  Uiso   1.00
H262   H     0.19876   0.71727   0.51013   0.00000  Uiso   1.00
H263   H     0.34006   0.41621   0.29458   0.00000  Uiso   1.00
H264   H     0.32825   0.63076   0.20433   0.00000  Uiso   1.00
H265   H     0.06967   0.86406   0.70389   0.00000  Uiso   1.00
H266   H     0.36763   0.22926   0.24937   0.00000  Uiso   1.00
H267   H     0.34273   0.68168   0.05906   0.00000  Uiso   1.00
O268   O     0.88525   0.96461   0.82294   0.00000  Uiso   1.00
O269   O     0.27616   0.13178   0.22661   0.00000  Uiso   1.00
O270   O     0.24349   0.72534   0.97694   0.00000  Uiso   1.00
N271   N     0.88972   0.87034   0.68731   0.00000  Uiso   1.00
N272   N     0.16828   0.27685   0.26238   0.00000  Uiso   1.00
N273   N     0.14502   0.69979   0.08444   0.00000  Uiso   1.00
N274   N     0.02430   0.85356   0.68222   0.00000  Uiso   1.00
N275   N     0.30286   0.26006   0.25729   0.00000  Uiso   1.00
N276   N     0.27960   0.68301   0.07935   0.00000  Uiso   1.00
