data_job_02561
_audit_creation_date              2018-12-19
_audit_creation_method            'Materials Studio'
_symmetry_space_group_name_H-M    'P1'
_symmetry_Int_Tables_number       1
_symmetry_cell_setting            triclinic
loop_
_symmetry_equiv_pos_as_xyz
  x,y,z
_cell_length_a                    12.2702
_cell_length_b                    21.9936
_cell_length_c                    23.6550
_cell_angle_alpha                 90.0000
_cell_angle_beta                  90.0000
_cell_angle_gamma                 90.0000
loop_
_atom_site_label
_atom_site_type_symbol
_atom_site_fract_x
_atom_site_fract_y
_atom_site_fract_z
_atom_site_U_iso_or_equiv
_atom_site_adp_type
_atom_site_occupancy
C1     C     0.42226   0.84658   0.55300   0.00000  Uiso   1.00
C2     C     0.52421   0.88353   0.56638   0.00000  Uiso   1.00
C3     C     0.52589   0.94240   0.58749   0.00000  Uiso   1.00
C4     C     0.62747   0.96830   0.59690   0.00000  Uiso   1.00
C5     C     0.77112   0.03053   0.61936   0.00000  Uiso   1.00
C6     C     0.43230   0.82793   0.49113   0.00000  Uiso   1.00
C7     C     0.35670   0.84005   0.44897   0.00000  Uiso   1.00
C8     C     0.38092   0.81914   0.39503   0.00000  Uiso   1.00
C9     C     0.38184   0.79502   0.30068   0.00000  Uiso   1.00
C10    C     0.43184   0.78807   0.58722   0.00000  Uiso   1.00
C11    C     0.35584   0.76665   0.62584   0.00000  Uiso   1.00
C12    C     0.37966   0.71216   0.65279   0.00000  Uiso   1.00
C13    C     0.37986   0.62614   0.70763   0.00000  Uiso   1.00
C14    C     0.59967   0.78789   0.53218   0.00000  Uiso   1.00
C15    C     0.62057   0.85165   0.55507   0.00000  Uiso   1.00
C16    C     0.72218   0.87747   0.56445   0.00000  Uiso   1.00
C17    C     0.72401   0.93636   0.58557   0.00000  Uiso   1.00
C18    C     0.52866   0.79606   0.47982   0.00000  Uiso   1.00
C19    C     0.55299   0.77512   0.42593   0.00000  Uiso   1.00
C20    C     0.47746   0.78721   0.38370   0.00000  Uiso   1.00
C21    C     0.52821   0.75619   0.57591   0.00000  Uiso   1.00
C22    C     0.55214   0.70172   0.60280   0.00000  Uiso   1.00
C23    C     0.47620   0.68023   0.64146   0.00000  Uiso   1.00
H24    H     0.34723   0.87140   0.56181   0.00000  Uiso   1.00
H25    H     0.45130   0.96705   0.59623   0.00000  Uiso   1.00
H26    H     0.28213   0.86471   0.45774   0.00000  Uiso   1.00
H27    H     0.28128   0.79133   0.63458   0.00000  Uiso   1.00
H28    H     0.60917   0.05905   0.62939   0.00000  Uiso   1.00
H29    H     0.25246   0.84325   0.33737   0.00000  Uiso   1.00
H30    H     0.25066   0.68850   0.71028   0.00000  Uiso   1.00
H31    H     0.67470   0.76308   0.52337   0.00000  Uiso   1.00
H32    H     0.79674   0.85279   0.55569   0.00000  Uiso   1.00
H33    H     0.62757   0.75045   0.41720   0.00000  Uiso   1.00
H34    H     0.62672   0.67706   0.59404   0.00000  Uiso   1.00
H35    H     0.88954   0.96632   0.59649   0.00000  Uiso   1.00
H36    H     0.53283   0.75051   0.30447   0.00000  Uiso   1.00
H37    H     0.53103   0.59576   0.67737   0.00000  Uiso   1.00
O38    O     0.82373   0.07366   0.63487   0.00000  Uiso   1.00
O39    O     0.35573   0.79053   0.25176   0.00000  Uiso   1.00
O40    O     0.35337   0.58750   0.74101   0.00000  Uiso   1.00
N41    N     0.65841   0.02491   0.61722   0.00000  Uiso   1.00
N42    N     0.32491   0.82316   0.34420   0.00000  Uiso   1.00
N43    N     0.32321   0.67847   0.69283   0.00000  Uiso   1.00
N44    N     0.80928   0.97501   0.59952   0.00000  Uiso   1.00
N45    N     0.47578   0.77326   0.32650   0.00000  Uiso   1.00
N46    N     0.47408   0.62857   0.67512   0.00000  Uiso   1.00
C47    C     0.07774   0.65342   0.05300   0.00000  Uiso   1.00
C48    C     0.97579   0.61647   0.06638   0.00000  Uiso   1.00
C49    C     0.97411   0.55760   0.08749   0.00000  Uiso   1.00
C50    C     0.87253   0.53170   0.09690   0.00000  Uiso   1.00
C51    C     0.72888   0.46947   0.11936   0.00000  Uiso   1.00
C52    C     0.06770   0.67207   0.99113   0.00000  Uiso   1.00
C53    C     0.14330   0.65995   0.94897   0.00000  Uiso   1.00
C54    C     0.11908   0.68086   0.89503   0.00000  Uiso   1.00
C55    C     0.11816   0.70498   0.80068   0.00000  Uiso   1.00
C56    C     0.06816   0.71193   0.08722   0.00000  Uiso   1.00
C57    C     0.14416   0.73335   0.12584   0.00000  Uiso   1.00
C58    C     0.12034   0.78784   0.15279   0.00000  Uiso   1.00
C59    C     0.12014   0.87386   0.20763   0.00000  Uiso   1.00
C60    C     0.90033   0.71211   0.03218   0.00000  Uiso   1.00
C61    C     0.87943   0.64835   0.05507   0.00000  Uiso   1.00
C62    C     0.77782   0.62253   0.06445   0.00000  Uiso   1.00
C63    C     0.77599   0.56364   0.08557   0.00000  Uiso   1.00
C64    C     0.97134   0.70394   0.97982   0.00000  Uiso   1.00
C65    C     0.94701   0.72488   0.92593   0.00000  Uiso   1.00
C66    C     0.02254   0.71279   0.88370   0.00000  Uiso   1.00
C67    C     0.97179   0.74381   0.07591   0.00000  Uiso   1.00
C68    C     0.94786   0.79828   0.10280   0.00000  Uiso   1.00
C69    C     0.02380   0.81977   0.14146   0.00000  Uiso   1.00
H70    H     0.15277   0.62860   0.06181   0.00000  Uiso   1.00
H71    H     0.04870   0.53295   0.09623   0.00000  Uiso   1.00
H72    H     0.21787   0.63529   0.95774   0.00000  Uiso   1.00
H73    H     0.21872   0.70867   0.13458   0.00000  Uiso   1.00
H74    H     0.89083   0.44095   0.12939   0.00000  Uiso   1.00
H75    H     0.24754   0.65675   0.83737   0.00000  Uiso   1.00
H76    H     0.24934   0.81150   0.21028   0.00000  Uiso   1.00
H77    H     0.82530   0.73692   0.02337   0.00000  Uiso   1.00
H78    H     0.70326   0.64721   0.05569   0.00000  Uiso   1.00
H79    H     0.87243   0.74955   0.91720   0.00000  Uiso   1.00
H80    H     0.87328   0.82294   0.09404   0.00000  Uiso   1.00
H81    H     0.61046   0.53368   0.09649   0.00000  Uiso   1.00
H82    H     0.96717   0.74949   0.80447   0.00000  Uiso   1.00
H83    H     0.96897   0.90424   0.17737   0.00000  Uiso   1.00
O84    O     0.67627   0.42634   0.13487   0.00000  Uiso   1.00
O85    O     0.14427   0.70947   0.75176   0.00000  Uiso   1.00
O86    O     0.14663   0.91250   0.24101   0.00000  Uiso   1.00
N87    N     0.84159   0.47509   0.11722   0.00000  Uiso   1.00
N88    N     0.17509   0.67684   0.84420   0.00000  Uiso   1.00
N89    N     0.17679   0.82153   0.19283   0.00000  Uiso   1.00
N90    N     0.69072   0.52499   0.09952   0.00000  Uiso   1.00
N91    N     0.02422   0.72674   0.82650   0.00000  Uiso   1.00
N92    N     0.02592   0.87143   0.17512   0.00000  Uiso   1.00
C93    C     0.57774   0.84658   0.94700   0.00000  Uiso   1.00
C94    C     0.47579   0.88353   0.93362   0.00000  Uiso   1.00
C95    C     0.47411   0.94240   0.91251   0.00000  Uiso   1.00
C96    C     0.37253   0.96830   0.90310   0.00000  Uiso   1.00
C97    C     0.22888   0.03053   0.88064   0.00000  Uiso   1.00
C98    C     0.56770   0.82793   0.00887   0.00000  Uiso   1.00
C99    C     0.64330   0.84005   0.05103   0.00000  Uiso   1.00
C100   C     0.61908   0.81914   0.10497   0.00000  Uiso   1.00
C101   C     0.61816   0.79502   0.19932   0.00000  Uiso   1.00
C102   C     0.56816   0.78807   0.91278   0.00000  Uiso   1.00
C103   C     0.64416   0.76665   0.87416   0.00000  Uiso   1.00
C104   C     0.62034   0.71216   0.84721   0.00000  Uiso   1.00
C105   C     0.62014   0.62614   0.79237   0.00000  Uiso   1.00
C106   C     0.40033   0.78789   0.96782   0.00000  Uiso   1.00
C107   C     0.37943   0.85165   0.94493   0.00000  Uiso   1.00
C108   C     0.27782   0.87747   0.93555   0.00000  Uiso   1.00
C109   C     0.27599   0.93636   0.91443   0.00000  Uiso   1.00
C110   C     0.47134   0.79606   0.02018   0.00000  Uiso   1.00
C111   C     0.44701   0.77512   0.07407   0.00000  Uiso   1.00
C112   C     0.52254   0.78721   0.11630   0.00000  Uiso   1.00
C113   C     0.47179   0.75619   0.92409   0.00000  Uiso   1.00
C114   C     0.44786   0.70172   0.89720   0.00000  Uiso   1.00
C115   C     0.52380   0.68023   0.85854   0.00000  Uiso   1.00
H116   H     0.65277   0.87140   0.93819   0.00000  Uiso   1.00
H117   H     0.54870   0.96705   0.90377   0.00000  Uiso   1.00
H118   H     0.71787   0.86471   0.04226   0.00000  Uiso   1.00
H119   H     0.71872   0.79133   0.86542   0.00000  Uiso   1.00
H120   H     0.39083   0.05905   0.87061   0.00000  Uiso   1.00
H121   H     0.74754   0.84325   0.16263   0.00000  Uiso   1.00
H122   H     0.74934   0.68850   0.78972   0.00000  Uiso   1.00
H123   H     0.32530   0.76308   0.97663   0.00000  Uiso   1.00
H124   H     0.20326   0.85279   0.94431   0.00000  Uiso   1.00
H125   H     0.37243   0.75045   0.08280   0.00000  Uiso   1.00
H126   H     0.37328   0.67706   0.90596   0.00000  Uiso   1.00
H127   H     0.11046   0.96632   0.90351   0.00000  Uiso   1.00
H128   H     0.46717   0.75051   0.19553   0.00000  Uiso   1.00
H129   H     0.46897   0.59576   0.82263   0.00000  Uiso   1.00
O130   O     0.17627   0.07366   0.86513   0.00000  Uiso   1.00
O131   O     0.64427   0.79053   0.24824   0.00000  Uiso   1.00
O132   O     0.64663   0.58750   0.75899   0.00000  Uiso   1.00
N133   N     0.34159   0.02491   0.88278   0.00000  Uiso   1.00
N134   N     0.67509   0.82316   0.15580   0.00000  Uiso   1.00
N135   N     0.67679   0.67847   0.80717   0.00000  Uiso   1.00
N136   N     0.19072   0.97501   0.90048   0.00000  Uiso   1.00
N137   N     0.52422   0.77326   0.17350   0.00000  Uiso   1.00
N138   N     0.52592   0.62857   0.82488   0.00000  Uiso   1.00
C139   C     0.92226   0.65342   0.44700   0.00000  Uiso   1.00
C140   C     0.02421   0.61647   0.43362   0.00000  Uiso   1.00
C141   C     0.02589   0.55760   0.41251   0.00000  Uiso   1.00
C142   C     0.12747   0.53170   0.40310   0.00000  Uiso   1.00
C143   C     0.27112   0.46947   0.38064   0.00000  Uiso   1.00
C144   C     0.93230   0.67207   0.50887   0.00000  Uiso   1.00
C145   C     0.85670   0.65995   0.55103   0.00000  Uiso   1.00
C146   C     0.88092   0.68086   0.60497   0.00000  Uiso   1.00
C147   C     0.88184   0.70498   0.69932   0.00000  Uiso   1.00
C148   C     0.93184   0.71193   0.41278   0.00000  Uiso   1.00
C149   C     0.85584   0.73335   0.37416   0.00000  Uiso   1.00
C150   C     0.87966   0.78784   0.34721   0.00000  Uiso   1.00
C151   C     0.87986   0.87386   0.29237   0.00000  Uiso   1.00
C152   C     0.09967   0.71211   0.46782   0.00000  Uiso   1.00
C153   C     0.12057   0.64835   0.44493   0.00000  Uiso   1.00
C154   C     0.22218   0.62253   0.43555   0.00000  Uiso   1.00
C155   C     0.22401   0.56364   0.41443   0.00000  Uiso   1.00
C156   C     0.02866   0.70394   0.52018   0.00000  Uiso   1.00
C157   C     0.05299   0.72488   0.57407   0.00000  Uiso   1.00
C158   C     0.97746   0.71279   0.61630   0.00000  Uiso   1.00
C159   C     0.02821   0.74381   0.42409   0.00000  Uiso   1.00
C160   C     0.05214   0.79828   0.39720   0.00000  Uiso   1.00
C161   C     0.97620   0.81977   0.35854   0.00000  Uiso   1.00
H162   H     0.84723   0.62860   0.43819   0.00000  Uiso   1.00
H163   H     0.95130   0.53295   0.40377   0.00000  Uiso   1.00
H164   H     0.78213   0.63529   0.54226   0.00000  Uiso   1.00
H165   H     0.78128   0.70867   0.36542   0.00000  Uiso   1.00
H166   H     0.10917   0.44095   0.37061   0.00000  Uiso   1.00
H167   H     0.75246   0.65675   0.66263   0.00000  Uiso   1.00
H168   H     0.75066   0.81150   0.28972   0.00000  Uiso   1.00
H169   H     0.17470   0.73692   0.47663   0.00000  Uiso   1.00
H170   H     0.29674   0.64721   0.44431   0.00000  Uiso   1.00
H171   H     0.12757   0.74955   0.58280   0.00000  Uiso   1.00
H172   H     0.12672   0.82294   0.40596   0.00000  Uiso   1.00
H173   H     0.38954   0.53368   0.40351   0.00000  Uiso   1.00
H174   H     0.03283   0.74949   0.69553   0.00000  Uiso   1.00
H175   H     0.03103   0.90424   0.32263   0.00000  Uiso   1.00
O176   O     0.32373   0.42634   0.36513   0.00000  Uiso   1.00
O177   O     0.85573   0.70947   0.74824   0.00000  Uiso   1.00
O178   O     0.85337   0.91250   0.25899   0.00000  Uiso   1.00
N179   N     0.15841   0.47509   0.38278   0.00000  Uiso   1.00
N180   N     0.82491   0.67684   0.65580   0.00000  Uiso   1.00
N181   N     0.82321   0.82153   0.30717   0.00000  Uiso   1.00
N182   N     0.30928   0.52499   0.40048   0.00000  Uiso   1.00
N183   N     0.97578   0.72674   0.67350   0.00000  Uiso   1.00
N184   N     0.97408   0.87143   0.32488   0.00000  Uiso   1.00
C185   C     0.57774   0.15342   0.44700   0.00000  Uiso   1.00
C186   C     0.47579   0.11647   0.43362   0.00000  Uiso   1.00
C187   C     0.47411   0.05760   0.41251   0.00000  Uiso   1.00
C188   C     0.37253   0.03170   0.40310   0.00000  Uiso   1.00
C189   C     0.22888   0.96947   0.38064   0.00000  Uiso   1.00
C190   C     0.56770   0.17207   0.50887   0.00000  Uiso   1.00
C191   C     0.64330   0.15995   0.55103   0.00000  Uiso   1.00
C192   C     0.61908   0.18086   0.60497   0.00000  Uiso   1.00
C193   C     0.61816   0.20498   0.69932   0.00000  Uiso   1.00
C194   C     0.56816   0.21193   0.41278   0.00000  Uiso   1.00
C195   C     0.64416   0.23335   0.37416   0.00000  Uiso   1.00
C196   C     0.62034   0.28784   0.34721   0.00000  Uiso   1.00
C197   C     0.62014   0.37386   0.29237   0.00000  Uiso   1.00
C198   C     0.40033   0.21211   0.46782   0.00000  Uiso   1.00
C199   C     0.37943   0.14835   0.44493   0.00000  Uiso   1.00
C200   C     0.27782   0.12253   0.43555   0.00000  Uiso   1.00
C201   C     0.27599   0.06364   0.41443   0.00000  Uiso   1.00
C202   C     0.47134   0.20394   0.52018   0.00000  Uiso   1.00
C203   C     0.44701   0.22488   0.57407   0.00000  Uiso   1.00
C204   C     0.52254   0.21279   0.61630   0.00000  Uiso   1.00
C205   C     0.47179   0.24381   0.42409   0.00000  Uiso   1.00
C206   C     0.44786   0.29828   0.39720   0.00000  Uiso   1.00
C207   C     0.52380   0.31977   0.35854   0.00000  Uiso   1.00
H208   H     0.65277   0.12860   0.43819   0.00000  Uiso   1.00
H209   H     0.54870   0.03295   0.40377   0.00000  Uiso   1.00
H210   H     0.71787   0.13529   0.54226   0.00000  Uiso   1.00
H211   H     0.71872   0.20867   0.36542   0.00000  Uiso   1.00
H212   H     0.39083   0.94095   0.37061   0.00000  Uiso   1.00
H213   H     0.74754   0.15675   0.66263   0.00000  Uiso   1.00
H214   H     0.74934   0.31150   0.28972   0.00000  Uiso   1.00
H215   H     0.32530   0.23692   0.47663   0.00000  Uiso   1.00
H216   H     0.20326   0.14721   0.44431   0.00000  Uiso   1.00
H217   H     0.37243   0.24955   0.58280   0.00000  Uiso   1.00
H218   H     0.37328   0.32294   0.40596   0.00000  Uiso   1.00
H219   H     0.11046   0.03368   0.40351   0.00000  Uiso   1.00
H220   H     0.46717   0.24949   0.69553   0.00000  Uiso   1.00
H221   H     0.46897   0.40424   0.32263   0.00000  Uiso   1.00
O222   O     0.17627   0.92634   0.36513   0.00000  Uiso   1.00
O223   O     0.64427   0.20947   0.74824   0.00000  Uiso   1.00
O224   O     0.64663   0.41250   0.25899   0.00000  Uiso   1.00
N225   N     0.34159   0.97509   0.38278   0.00000  Uiso   1.00
N226   N     0.67509   0.17684   0.65580   0.00000  Uiso   1.00
N227   N     0.67679   0.32153   0.30717   0.00000  Uiso   1.00
N228   N     0.19072   0.02499   0.40048   0.00000  Uiso   1.00
N229   N     0.52422   0.22674   0.67350   0.00000  Uiso   1.00
N230   N     0.52592   0.37143   0.32488   0.00000  Uiso   1.00
C231   C     0.92226   0.34658   0.94700   0.00000  Uiso   1.00
C232   C     0.02421   0.38353   0.93362   0.00000  Uiso   1.00
C233   C     0.02589   0.44240   0.91251   0.00000  Uiso   1.00
C234   C     0.12747   0.46830   0.90310   0.00000  Uiso   1.00
C235   C     0.27112   0.53053   0.88064   0.00000  Uiso   1.00
C236   C     0.93230   0.32793   0.00887   0.00000  Uiso   1.00
C237   C     0.85670   0.34005   0.05103   0.00000  Uiso   1.00
C238   C     0.88092   0.31914   0.10497   0.00000  Uiso   1.00
C239   C     0.88184   0.29502   0.19932   0.00000  Uiso   1.00
C240   C     0.93184   0.28807   0.91278   0.00000  Uiso   1.00
C241   C     0.85584   0.26665   0.87416   0.00000  Uiso   1.00
C242   C     0.87966   0.21216   0.84721   0.00000  Uiso   1.00
C243   C     0.87986   0.12614   0.79237   0.00000  Uiso   1.00
C244   C     0.09967   0.28789   0.96782   0.00000  Uiso   1.00
C245   C     0.12057   0.35165   0.94493   0.00000  Uiso   1.00
C246   C     0.22218   0.37747   0.93555   0.00000  Uiso   1.00
C247   C     0.22401   0.43636   0.91443   0.00000  Uiso   1.00
C248   C     0.02866   0.29606   0.02018   0.00000  Uiso   1.00
C249   C     0.05299   0.27512   0.07407   0.00000  Uiso   1.00
C250   C     0.97746   0.28721   0.11630   0.00000  Uiso   1.00
C251   C     0.02821   0.25619   0.92409   0.00000  Uiso   1.00
C252   C     0.05214   0.20172   0.89720   0.00000  Uiso   1.00
C253   C     0.97620   0.18023   0.85854   0.00000  Uiso   1.00
H254   H     0.84723   0.37140   0.93819   0.00000  Uiso   1.00
H255   H     0.95130   0.46705   0.90377   0.00000  Uiso   1.00
H256   H     0.78213   0.36471   0.04226   0.00000  Uiso   1.00
H257   H     0.78128   0.29133   0.86542   0.00000  Uiso   1.00
H258   H     0.10917   0.55905   0.87061   0.00000  Uiso   1.00
H259   H     0.75246   0.34325   0.16263   0.00000  Uiso   1.00
H260   H     0.75066   0.18850   0.78972   0.00000  Uiso   1.00
H261   H     0.17470   0.26308   0.97663   0.00000  Uiso   1.00
H262   H     0.29674   0.35279   0.94431   0.00000  Uiso   1.00
H263   H     0.12757   0.25045   0.08280   0.00000  Uiso   1.00
H264   H     0.12672   0.17706   0.90596   0.00000  Uiso   1.00
H265   H     0.38954   0.46632   0.90351   0.00000  Uiso   1.00
H266   H     0.03283   0.25051   0.19553   0.00000  Uiso   1.00
H267   H     0.03103   0.09576   0.82263   0.00000  Uiso   1.00
O268   O     0.32373   0.57366   0.86513   0.00000  Uiso   1.00
O269   O     0.85573   0.29053   0.24824   0.00000  Uiso   1.00
O270   O     0.85337   0.08750   0.75899   0.00000  Uiso   1.00
N271   N     0.15841   0.52491   0.88278   0.00000  Uiso   1.00
N272   N     0.82491   0.32316   0.15580   0.00000  Uiso   1.00
N273   N     0.82321   0.17847   0.80717   0.00000  Uiso   1.00
N274   N     0.30928   0.47501   0.90048   0.00000  Uiso   1.00
N275   N     0.97578   0.27326   0.17350   0.00000  Uiso   1.00
N276   N     0.97408   0.12857   0.82488   0.00000  Uiso   1.00
C277   C     0.42226   0.15342   0.05300   0.00000  Uiso   1.00
C278   C     0.52421   0.11647   0.06638   0.00000  Uiso   1.00
C279   C     0.52589   0.05760   0.08749   0.00000  Uiso   1.00
C280   C     0.62747   0.03170   0.09690   0.00000  Uiso   1.00
C281   C     0.77112   0.96947   0.11936   0.00000  Uiso   1.00
C282   C     0.43230   0.17207   0.99113   0.00000  Uiso   1.00
C283   C     0.35670   0.15995   0.94897   0.00000  Uiso   1.00
C284   C     0.38092   0.18086   0.89503   0.00000  Uiso   1.00
C285   C     0.38184   0.20498   0.80068   0.00000  Uiso   1.00
C286   C     0.43184   0.21193   0.08722   0.00000  Uiso   1.00
C287   C     0.35584   0.23335   0.12584   0.00000  Uiso   1.00
C288   C     0.37966   0.28784   0.15279   0.00000  Uiso   1.00
C289   C     0.37986   0.37386   0.20763   0.00000  Uiso   1.00
C290   C     0.59967   0.21211   0.03218   0.00000  Uiso   1.00
C291   C     0.62057   0.14835   0.05507   0.00000  Uiso   1.00
C292   C     0.72218   0.12253   0.06445   0.00000  Uiso   1.00
C293   C     0.72401   0.06364   0.08557   0.00000  Uiso   1.00
C294   C     0.52866   0.20394   0.97982   0.00000  Uiso   1.00
C295   C     0.55299   0.22488   0.92593   0.00000  Uiso   1.00
C296   C     0.47746   0.21279   0.88370   0.00000  Uiso   1.00
C297   C     0.52821   0.24381   0.07591   0.00000  Uiso   1.00
C298   C     0.55214   0.29828   0.10280   0.00000  Uiso   1.00
C299   C     0.47620   0.31977   0.14146   0.00000  Uiso   1.00
H300   H     0.34723   0.12860   0.06181   0.00000  Uiso   1.00
H301   H     0.45130   0.03295   0.09623   0.00000  Uiso   1.00
H302   H     0.28213   0.13529   0.95774   0.00000  Uiso   1.00
H303   H     0.28128   0.20867   0.13458   0.00000  Uiso   1.00
H304   H     0.60917   0.94095   0.12939   0.00000  Uiso   1.00
H305   H     0.25246   0.15675   0.83737   0.00000  Uiso   1.00
H306   H     0.25066   0.31150   0.21028   0.00000  Uiso   1.00
H307   H     0.67470   0.23692   0.02337   0.00000  Uiso   1.00
H308   H     0.79674   0.14721   0.05569   0.00000  Uiso   1.00
H309   H     0.62757   0.24955   0.91720   0.00000  Uiso   1.00
H310   H     0.62672   0.32294   0.09404   0.00000  Uiso   1.00
H311   H     0.88954   0.03368   0.09649   0.00000  Uiso   1.00
H312   H     0.53283   0.24949   0.80447   0.00000  Uiso   1.00
H313   H     0.53103   0.40424   0.17737   0.00000  Uiso   1.00
O314   O     0.82373   0.92634   0.13487   0.00000  Uiso   1.00
O315   O     0.35573   0.20947   0.75176   0.00000  Uiso   1.00
O316   O     0.35337   0.41250   0.24101   0.00000  Uiso   1.00
N317   N     0.65841   0.97509   0.11722   0.00000  Uiso   1.00
N318   N     0.32491   0.17684   0.84420   0.00000  Uiso   1.00
N319   N     0.32321   0.32153   0.19283   0.00000  Uiso   1.00
N320   N     0.80928   0.02499   0.09952   0.00000  Uiso   1.00
N321   N     0.47578   0.22674   0.82650   0.00000  Uiso   1.00
N322   N     0.47408   0.37143   0.17512   0.00000  Uiso   1.00
C323   C     0.07774   0.34658   0.55300   0.00000  Uiso   1.00
C324   C     0.97579   0.38353   0.56638   0.00000  Uiso   1.00
C325   C     0.97411   0.44240   0.58749   0.00000  Uiso   1.00
C326   C     0.87253   0.46830   0.59690   0.00000  Uiso   1.00
C327   C     0.72888   0.53053   0.61936   0.00000  Uiso   1.00
C328   C     0.06770   0.32793   0.49113   0.00000  Uiso   1.00
C329   C     0.14330   0.34005   0.44897   0.00000  Uiso   1.00
C330   C     0.11908   0.31914   0.39503   0.00000  Uiso   1.00
C331   C     0.11816   0.29502   0.30068   0.00000  Uiso   1.00
C332   C     0.06816   0.28807   0.58722   0.00000  Uiso   1.00
C333   C     0.14416   0.26665   0.62584   0.00000  Uiso   1.00
C334   C     0.12034   0.21216   0.65279   0.00000  Uiso   1.00
C335   C     0.12014   0.12614   0.70763   0.00000  Uiso   1.00
C336   C     0.90033   0.28789   0.53218   0.00000  Uiso   1.00
C337   C     0.87943   0.35165   0.55507   0.00000  Uiso   1.00
C338   C     0.77782   0.37747   0.56445   0.00000  Uiso   1.00
C339   C     0.77599   0.43636   0.58557   0.00000  Uiso   1.00
C340   C     0.97134   0.29606   0.47982   0.00000  Uiso   1.00
C341   C     0.94701   0.27512   0.42593   0.00000  Uiso   1.00
C342   C     0.02254   0.28721   0.38370   0.00000  Uiso   1.00
C343   C     0.97179   0.25619   0.57591   0.00000  Uiso   1.00
C344   C     0.94786   0.20172   0.60280   0.00000  Uiso   1.00
C345   C     0.02380   0.18023   0.64146   0.00000  Uiso   1.00
H346   H     0.15277   0.37140   0.56181   0.00000  Uiso   1.00
H347   H     0.04870   0.46705   0.59623   0.00000  Uiso   1.00
H348   H     0.21787   0.36471   0.45774   0.00000  Uiso   1.00
H349   H     0.21872   0.29133   0.63458   0.00000  Uiso   1.00
H350   H     0.89083   0.55905   0.62939   0.00000  Uiso   1.00
H351   H     0.24754   0.34325   0.33737   0.00000  Uiso   1.00
H352   H     0.24934   0.18850   0.71028   0.00000  Uiso   1.00
H353   H     0.82530   0.26308   0.52337   0.00000  Uiso   1.00
H354   H     0.70326   0.35279   0.55569   0.00000  Uiso   1.00
H355   H     0.87243   0.25045   0.41720   0.00000  Uiso   1.00
H356   H     0.87328   0.17706   0.59404   0.00000  Uiso   1.00
H357   H     0.61046   0.46632   0.59649   0.00000  Uiso   1.00
H358   H     0.96717   0.25051   0.30447   0.00000  Uiso   1.00
H359   H     0.96897   0.09576   0.67737   0.00000  Uiso   1.00
O360   O     0.67627   0.57366   0.63487   0.00000  Uiso   1.00
O361   O     0.14427   0.29053   0.25176   0.00000  Uiso   1.00
O362   O     0.14663   0.08750   0.74101   0.00000  Uiso   1.00
N363   N     0.84159   0.52491   0.61722   0.00000  Uiso   1.00
N364   N     0.17509   0.32316   0.34420   0.00000  Uiso   1.00
N365   N     0.17679   0.17847   0.69283   0.00000  Uiso   1.00
N366   N     0.69072   0.47501   0.59952   0.00000  Uiso   1.00
N367   N     0.02422   0.27326   0.32650   0.00000  Uiso   1.00
N368   N     0.02592   0.12857   0.67512   0.00000  Uiso   1.00
