data_job_01196
_audit_creation_date              2018-12-19
_audit_creation_method            'Materials Studio'
_symmetry_space_group_name_H-M    'P1'
_symmetry_Int_Tables_number       1
_symmetry_cell_setting            triclinic
loop_
_symmetry_equiv_pos_as_xyz
  x,y,z
_cell_length_a                    11.8212
_cell_length_b                    12.7351
_cell_length_c                    21.2666
_cell_angle_alpha                 90.0000
_cell_angle_beta                  130.3552
_cell_angle_gamma                 90.0000
loop_
_atom_site_label
_atom_site_type_symbol
_atom_site_fract_x
_atom_site_fract_y
_atom_site_fract_z
_atom_site_U_iso_or_equiv
_atom_site_adp_type
_atom_site_occupancy
C1     C     0.66295   0.18524   0.94599   0.00000  Uiso   1.00
C2     C     0.57509   0.21179   0.97355   0.00000  Uiso   1.00
C3     C     0.43391   0.17543   0.93715   0.00000  Uiso   1.00
C4     C     0.37254   0.20880   0.97152   0.00000  Uiso   1.00
C5     C     0.22433   0.23983   0.00390   0.00000  Uiso   1.00
C6     C     0.70149   0.29005   0.92927   0.00000  Uiso   1.00
C7     C     0.66661   0.31948   0.85564   0.00000  Uiso   1.00
C8     C     0.71167   0.41873   0.85274   0.00000  Uiso   1.00
C9     C     0.75981   0.57123   0.81639   0.00000  Uiso   1.00
C10    C     0.80964   0.13881   0.02132   0.00000  Uiso   1.00
C11    C     0.86571   0.04108   0.02508   0.00000  Uiso   1.00
C12    C     0.00184   0.01301   0.09967   0.00000  Uiso   1.00
C13    C     0.21789   0.93069   0.20625   0.00000  Uiso   1.00
C14    C     0.80503   0.30917   0.07175   0.00000  Uiso   1.00
C15    C     0.65226   0.27911   0.04186   0.00000  Uiso   1.00
C16    C     0.59109   0.31254   0.07629   0.00000  Uiso   1.00
C17    C     0.44984   0.27623   0.03995   0.00000  Uiso   1.00
C18    C     0.77866   0.35737   0.99758   0.00000  Uiso   1.00
C19    C     0.82379   0.45659   0.99478   0.00000  Uiso   1.00
C20    C     0.78898   0.48616   0.92117   0.00000  Uiso   1.00
C21    C     0.88681   0.20613   0.08963   0.00000  Uiso   1.00
C22    C     0.02288   0.17820   0.16423   0.00000  Uiso   1.00
C23    C     0.07915   0.08045   0.16810   0.00000  Uiso   1.00
H24    H     0.60288   0.13284   0.89281   0.00000  Uiso   1.00
H25    H     0.37422   0.12334   0.88428   0.00000  Uiso   1.00
H26    H     0.60690   0.26736   0.80279   0.00000  Uiso   1.00
H27    H     0.80596   0.98901   0.97221   0.00000  Uiso   1.00
H28    H     0.15471   0.14253   0.90494   0.00000  Uiso   1.00
H29    H     0.64539   0.44620   0.73312   0.00000  Uiso   1.00
H30    H     0.06515   0.85924   0.09037   0.00000  Uiso   1.00
H31    H     0.86511   0.36158   0.12493   0.00000  Uiso   1.00
H32    H     0.65083   0.36464   0.12915   0.00000  Uiso   1.00
H33    H     0.88351   0.50866   0.04766   0.00000  Uiso   1.00
H34    H     0.08257   0.23031   0.21707   0.00000  Uiso   1.00
H35    H     0.37922   0.33838   0.10368   0.00000  Uiso   1.00
H36    H     0.86990   0.64205   0.93186   0.00000  Uiso   1.00
H37    H     0.28965   0.05509   0.28911   0.00000  Uiso   1.00
O38    O     0.12126   0.23837   0.00288   0.00000  Uiso   1.00
O39    O     0.76503   0.63675   0.77746   0.00000  Uiso   1.00
O40    O     0.31573   0.86668   0.24616   0.00000  Uiso   1.00
N41    N     0.23697   0.18819   0.95115   0.00000  Uiso   1.00
N42    N     0.69570   0.47210   0.79050   0.00000  Uiso   1.00
N43    N     0.08816   0.92336   0.12449   0.00000  Uiso   1.00
N44    N     0.35778   0.29357   0.05809   0.00000  Uiso   1.00
N45    N     0.81650   0.57749   0.89744   0.00000  Uiso   1.00
N46    N     0.20896   0.02874   0.23143   0.00000  Uiso   1.00
C47    C     0.33705   0.18524   0.55401   0.00000  Uiso   1.00
C48    C     0.42491   0.21179   0.52645   0.00000  Uiso   1.00
C49    C     0.56609   0.17543   0.56285   0.00000  Uiso   1.00
C50    C     0.62746   0.20880   0.52848   0.00000  Uiso   1.00
C51    C     0.77567   0.23983   0.49610   0.00000  Uiso   1.00
C52    C     0.29851   0.29005   0.57073   0.00000  Uiso   1.00
C53    C     0.33339   0.31948   0.64436   0.00000  Uiso   1.00
C54    C     0.28833   0.41873   0.64726   0.00000  Uiso   1.00
C55    C     0.24019   0.57123   0.68361   0.00000  Uiso   1.00
C56    C     0.19036   0.13881   0.47868   0.00000  Uiso   1.00
C57    C     0.13429   0.04108   0.47492   0.00000  Uiso   1.00
C58    C     0.99816   0.01301   0.40033   0.00000  Uiso   1.00
C59    C     0.78211   0.93069   0.29375   0.00000  Uiso   1.00
C60    C     0.19497   0.30917   0.42825   0.00000  Uiso   1.00
C61    C     0.34774   0.27911   0.45814   0.00000  Uiso   1.00
C62    C     0.40891   0.31254   0.42371   0.00000  Uiso   1.00
C63    C     0.55016   0.27623   0.46005   0.00000  Uiso   1.00
C64    C     0.22134   0.35737   0.50242   0.00000  Uiso   1.00
C65    C     0.17621   0.45659   0.50522   0.00000  Uiso   1.00
C66    C     0.21102   0.48616   0.57883   0.00000  Uiso   1.00
C67    C     0.11319   0.20613   0.41037   0.00000  Uiso   1.00
C68    C     0.97712   0.17820   0.33577   0.00000  Uiso   1.00
C69    C     0.92085   0.08045   0.33190   0.00000  Uiso   1.00
H70    H     0.39712   0.13284   0.60719   0.00000  Uiso   1.00
H71    H     0.62578   0.12334   0.61572   0.00000  Uiso   1.00
H72    H     0.39310   0.26736   0.69721   0.00000  Uiso   1.00
H73    H     0.19404   0.98901   0.52779   0.00000  Uiso   1.00
H74    H     0.84529   0.14253   0.59506   0.00000  Uiso   1.00
H75    H     0.35461   0.44620   0.76688   0.00000  Uiso   1.00
H76    H     0.93485   0.85924   0.40963   0.00000  Uiso   1.00
H77    H     0.13489   0.36158   0.37507   0.00000  Uiso   1.00
H78    H     0.34917   0.36464   0.37085   0.00000  Uiso   1.00
H79    H     0.11649   0.50866   0.45234   0.00000  Uiso   1.00
H80    H     0.91743   0.23031   0.28293   0.00000  Uiso   1.00
H81    H     0.62078   0.33838   0.39632   0.00000  Uiso   1.00
H82    H     0.13010   0.64205   0.56814   0.00000  Uiso   1.00
H83    H     0.71035   0.05509   0.21089   0.00000  Uiso   1.00
O84    O     0.87874   0.23837   0.49712   0.00000  Uiso   1.00
O85    O     0.23497   0.63675   0.72254   0.00000  Uiso   1.00
O86    O     0.68427   0.86668   0.25384   0.00000  Uiso   1.00
N87    N     0.76303   0.18819   0.54885   0.00000  Uiso   1.00
N88    N     0.30430   0.47210   0.70950   0.00000  Uiso   1.00
N89    N     0.91184   0.92336   0.37551   0.00000  Uiso   1.00
N90    N     0.64222   0.29357   0.44191   0.00000  Uiso   1.00
N91    N     0.18350   0.57749   0.60256   0.00000  Uiso   1.00
N92    N     0.79104   0.02874   0.26857   0.00000  Uiso   1.00
C93    C     0.33705   0.81476   0.05401   0.00000  Uiso   1.00
C94    C     0.42491   0.78821   0.02645   0.00000  Uiso   1.00
C95    C     0.56609   0.82457   0.06285   0.00000  Uiso   1.00
C96    C     0.62746   0.79120   0.02848   0.00000  Uiso   1.00
C97    C     0.77567   0.76017   0.99610   0.00000  Uiso   1.00
C98    C     0.29851   0.70995   0.07073   0.00000  Uiso   1.00
C99    C     0.33339   0.68052   0.14436   0.00000  Uiso   1.00
C100   C     0.28833   0.58127   0.14726   0.00000  Uiso   1.00
C101   C     0.24019   0.42877   0.18361   0.00000  Uiso   1.00
C102   C     0.19036   0.86119   0.97868   0.00000  Uiso   1.00
C103   C     0.13429   0.95892   0.97492   0.00000  Uiso   1.00
C104   C     0.99816   0.98699   0.90033   0.00000  Uiso   1.00
C105   C     0.78211   0.06931   0.79375   0.00000  Uiso   1.00
C106   C     0.19497   0.69083   0.92825   0.00000  Uiso   1.00
C107   C     0.34774   0.72089   0.95814   0.00000  Uiso   1.00
C108   C     0.40891   0.68746   0.92371   0.00000  Uiso   1.00
C109   C     0.55016   0.72377   0.96005   0.00000  Uiso   1.00
C110   C     0.22134   0.64263   0.00242   0.00000  Uiso   1.00
C111   C     0.17621   0.54341   0.00522   0.00000  Uiso   1.00
C112   C     0.21102   0.51384   0.07883   0.00000  Uiso   1.00
C113   C     0.11319   0.79387   0.91037   0.00000  Uiso   1.00
C114   C     0.97712   0.82180   0.83577   0.00000  Uiso   1.00
C115   C     0.92085   0.91955   0.83190   0.00000  Uiso   1.00
H116   H     0.39712   0.86716   0.10719   0.00000  Uiso   1.00
H117   H     0.62578   0.87666   0.11572   0.00000  Uiso   1.00
H118   H     0.39310   0.73264   0.19721   0.00000  Uiso   1.00
H119   H     0.19404   0.01099   0.02779   0.00000  Uiso   1.00
H120   H     0.84529   0.85747   0.09506   0.00000  Uiso   1.00
H121   H     0.35461   0.55380   0.26688   0.00000  Uiso   1.00
H122   H     0.93485   0.14076   0.90963   0.00000  Uiso   1.00
H123   H     0.13489   0.63842   0.87507   0.00000  Uiso   1.00
H124   H     0.34917   0.63536   0.87085   0.00000  Uiso   1.00
H125   H     0.11649   0.49134   0.95234   0.00000  Uiso   1.00
H126   H     0.91743   0.76969   0.78293   0.00000  Uiso   1.00
H127   H     0.62078   0.66162   0.89632   0.00000  Uiso   1.00
H128   H     0.13010   0.35795   0.06814   0.00000  Uiso   1.00
H129   H     0.71035   0.94491   0.71089   0.00000  Uiso   1.00
O130   O     0.87874   0.76163   0.99712   0.00000  Uiso   1.00
O131   O     0.23497   0.36325   0.22254   0.00000  Uiso   1.00
O132   O     0.68427   0.13332   0.75384   0.00000  Uiso   1.00
N133   N     0.76303   0.81181   0.04885   0.00000  Uiso   1.00
N134   N     0.30430   0.52790   0.20950   0.00000  Uiso   1.00
N135   N     0.91184   0.07664   0.87551   0.00000  Uiso   1.00
N136   N     0.64222   0.70643   0.94191   0.00000  Uiso   1.00
N137   N     0.18350   0.42251   0.10256   0.00000  Uiso   1.00
N138   N     0.79104   0.97126   0.76857   0.00000  Uiso   1.00
C139   C     0.66295   0.81476   0.44599   0.00000  Uiso   1.00
C140   C     0.57509   0.78821   0.47355   0.00000  Uiso   1.00
C141   C     0.43391   0.82457   0.43715   0.00000  Uiso   1.00
C142   C     0.37254   0.79120   0.47152   0.00000  Uiso   1.00
C143   C     0.22433   0.76017   0.50390   0.00000  Uiso   1.00
C144   C     0.70149   0.70995   0.42927   0.00000  Uiso   1.00
C145   C     0.66661   0.68052   0.35564   0.00000  Uiso   1.00
C146   C     0.71167   0.58127   0.35274   0.00000  Uiso   1.00
C147   C     0.75981   0.42877   0.31639   0.00000  Uiso   1.00
C148   C     0.80964   0.86119   0.52132   0.00000  Uiso   1.00
C149   C     0.86571   0.95892   0.52508   0.00000  Uiso   1.00
C150   C     0.00184   0.98699   0.59967   0.00000  Uiso   1.00
C151   C     0.21789   0.06931   0.70625   0.00000  Uiso   1.00
C152   C     0.80503   0.69083   0.57175   0.00000  Uiso   1.00
C153   C     0.65226   0.72089   0.54186   0.00000  Uiso   1.00
C154   C     0.59109   0.68746   0.57629   0.00000  Uiso   1.00
C155   C     0.44984   0.72377   0.53995   0.00000  Uiso   1.00
C156   C     0.77866   0.64263   0.49758   0.00000  Uiso   1.00
C157   C     0.82379   0.54341   0.49478   0.00000  Uiso   1.00
C158   C     0.78898   0.51384   0.42117   0.00000  Uiso   1.00
C159   C     0.88681   0.79387   0.58963   0.00000  Uiso   1.00
C160   C     0.02288   0.82180   0.66423   0.00000  Uiso   1.00
C161   C     0.07915   0.91955   0.66810   0.00000  Uiso   1.00
H162   H     0.60288   0.86716   0.39281   0.00000  Uiso   1.00
H163   H     0.37422   0.87666   0.38428   0.00000  Uiso   1.00
H164   H     0.60690   0.73264   0.30279   0.00000  Uiso   1.00
H165   H     0.80596   0.01099   0.47221   0.00000  Uiso   1.00
H166   H     0.15471   0.85747   0.40494   0.00000  Uiso   1.00
H167   H     0.64539   0.55380   0.23312   0.00000  Uiso   1.00
H168   H     0.06515   0.14076   0.59037   0.00000  Uiso   1.00
H169   H     0.86511   0.63842   0.62493   0.00000  Uiso   1.00
H170   H     0.65083   0.63536   0.62915   0.00000  Uiso   1.00
H171   H     0.88351   0.49134   0.54766   0.00000  Uiso   1.00
H172   H     0.08257   0.76969   0.71707   0.00000  Uiso   1.00
H173   H     0.37922   0.66162   0.60368   0.00000  Uiso   1.00
H174   H     0.86990   0.35795   0.43186   0.00000  Uiso   1.00
H175   H     0.28965   0.94491   0.78911   0.00000  Uiso   1.00
O176   O     0.12126   0.76163   0.50288   0.00000  Uiso   1.00
O177   O     0.76503   0.36325   0.27746   0.00000  Uiso   1.00
O178   O     0.31573   0.13332   0.74616   0.00000  Uiso   1.00
N179   N     0.23697   0.81181   0.45115   0.00000  Uiso   1.00
N180   N     0.69570   0.52790   0.29050   0.00000  Uiso   1.00
N181   N     0.08816   0.07664   0.62449   0.00000  Uiso   1.00
N182   N     0.35778   0.70643   0.55809   0.00000  Uiso   1.00
N183   N     0.81650   0.42251   0.39744   0.00000  Uiso   1.00
N184   N     0.20896   0.97126   0.73143   0.00000  Uiso   1.00
