data_job_03421
_audit_creation_date              2018-12-19
_audit_creation_method            'Materials Studio'
_symmetry_space_group_name_H-M    'P1'
_symmetry_Int_Tables_number       1
_symmetry_cell_setting            triclinic
loop_
_symmetry_equiv_pos_as_xyz
  x,y,z
_cell_length_a                    9.8341
_cell_length_b                    22.7882
_cell_length_c                    16.7692
_cell_angle_alpha                 90.0000
_cell_angle_beta                  76.5927
_cell_angle_gamma                 90.0000
loop_
_atom_site_label
_atom_site_type_symbol
_atom_site_fract_x
_atom_site_fract_y
_atom_site_fract_z
_atom_site_U_iso_or_equiv
_atom_site_adp_type
_atom_site_occupancy
C1     C     0.27237   0.13197   0.50871   0.00000  Uiso   1.00
C2     C     0.22846   0.19628   0.51647   0.00000  Uiso   1.00
C3     C     0.16412   0.22648   0.46342   0.00000  Uiso   1.00
C4     C     0.13232   0.28510   0.48111   0.00000  Uiso   1.00
C5     C     0.05941   0.38081   0.48274   0.00000  Uiso   1.00
C6     C     0.42827   0.13121   0.50647   0.00000  Uiso   1.00
C7     C     0.53193   0.10668   0.44502   0.00000  Uiso   1.00
C8     C     0.66832   0.11052   0.45430   0.00000  Uiso   1.00
C9     C     0.90561   0.10516   0.44044   0.00000  Uiso   1.00
C10    C     0.20009   0.10297   0.58936   0.00000  Uiso   1.00
C11    C     0.11192   0.05468   0.59761   0.00000  Uiso   1.00
C12    C     0.05622   0.03473   0.67668   0.00000  Uiso   1.00
C13    C     0.93922   0.98552   0.79151   0.00000  Uiso   1.00
C14    C     0.33028   0.18239   0.63445   0.00000  Uiso   1.00
C15    C     0.25992   0.22367   0.58477   0.00000  Uiso   1.00
C16    C     0.22820   0.28226   0.60254   0.00000  Uiso   1.00
C17    C     0.16382   0.31254   0.54953   0.00000  Uiso   1.00
C18    C     0.45973   0.15860   0.57476   0.00000  Uiso   1.00
C19    C     0.59600   0.16247   0.58414   0.00000  Uiso   1.00
C20    C     0.69984   0.13796   0.52273   0.00000  Uiso   1.00
C21    C     0.23154   0.13035   0.65766   0.00000  Uiso   1.00
C22    C     0.17598   0.11047   0.73673   0.00000  Uiso   1.00
C23    C     0.08774   0.06217   0.74510   0.00000  Uiso   1.00
H24    H     0.24789   0.11064   0.45554   0.00000  Uiso   1.00
H25    H     0.13981   0.20527   0.41057   0.00000  Uiso   1.00
H26    H     0.50755   0.08549   0.39218   0.00000  Uiso   1.00
H27    H     0.08760   0.03350   0.54474   0.00000  Uiso   1.00
H28    H     0.03390   0.32226   0.39082   0.00000  Uiso   1.00
H29    H     0.80930   0.06968   0.35206   0.00000  Uiso   1.00
H30    H     0.92375   0.96005   0.67376   0.00000  Uiso   1.00
H31    H     0.35478   0.20371   0.68763   0.00000  Uiso   1.00
H32    H     0.25255   0.30345   0.65540   0.00000  Uiso   1.00
H33    H     0.62030   0.18366   0.63701   0.00000  Uiso   1.00
H34    H     0.20035   0.13168   0.78957   0.00000  Uiso   1.00
H35    H     0.12541   0.40195   0.58953   0.00000  Uiso   1.00
H36    H     0.90081   0.14936   0.55077   0.00000  Uiso   1.00
H37    H     0.01526   0.03973   0.87247   0.00000  Uiso   1.00
O38    O     0.01053   0.42604   0.46477   0.00000  Uiso   1.00
O39    O     0.02781   0.09464   0.41392   0.00000  Uiso   1.00
O40    O     0.86599   0.95082   0.83599   0.00000  Uiso   1.00
N41    N     0.06944   0.32732   0.44202   0.00000  Uiso   1.00
N42    N     0.79440   0.09118   0.40577   0.00000  Uiso   1.00
N43    N     0.96651   0.98868   0.70654   0.00000  Uiso   1.00
N44    N     0.11868   0.37020   0.54894   0.00000  Uiso   1.00
N45    N     0.84364   0.13406   0.51270   0.00000  Uiso   1.00
N46    N     0.01575   0.03156   0.81346   0.00000  Uiso   1.00
C47    C     0.72763   0.63197   0.99129   0.00000  Uiso   1.00
C48    C     0.77154   0.69628   0.98353   0.00000  Uiso   1.00
C49    C     0.83588   0.72648   0.03658   0.00000  Uiso   1.00
C50    C     0.86768   0.78510   0.01889   0.00000  Uiso   1.00
C51    C     0.94059   0.88081   0.01726   0.00000  Uiso   1.00
C52    C     0.57173   0.63121   0.99353   0.00000  Uiso   1.00
C53    C     0.46807   0.60668   0.05498   0.00000  Uiso   1.00
C54    C     0.33168   0.61052   0.04570   0.00000  Uiso   1.00
C55    C     0.09439   0.60516   0.05956   0.00000  Uiso   1.00
C56    C     0.79991   0.60297   0.91064   0.00000  Uiso   1.00
C57    C     0.88808   0.55468   0.90239   0.00000  Uiso   1.00
C58    C     0.94378   0.53473   0.82332   0.00000  Uiso   1.00
C59    C     0.06078   0.48552   0.70849   0.00000  Uiso   1.00
C60    C     0.66972   0.68239   0.86555   0.00000  Uiso   1.00
C61    C     0.74008   0.72367   0.91523   0.00000  Uiso   1.00
C62    C     0.77180   0.78226   0.89746   0.00000  Uiso   1.00
C63    C     0.83618   0.81254   0.95047   0.00000  Uiso   1.00
C64    C     0.54027   0.65860   0.92524   0.00000  Uiso   1.00
C65    C     0.40400   0.66247   0.91586   0.00000  Uiso   1.00
C66    C     0.30016   0.63796   0.97727   0.00000  Uiso   1.00
C67    C     0.76846   0.63035   0.84234   0.00000  Uiso   1.00
C68    C     0.82402   0.61047   0.76327   0.00000  Uiso   1.00
C69    C     0.91226   0.56217   0.75490   0.00000  Uiso   1.00
H70    H     0.75211   0.61064   0.04446   0.00000  Uiso   1.00
H71    H     0.86019   0.70527   0.08943   0.00000  Uiso   1.00
H72    H     0.49245   0.58549   0.10782   0.00000  Uiso   1.00
H73    H     0.91240   0.53350   0.95526   0.00000  Uiso   1.00
H74    H     0.96610   0.82226   0.10918   0.00000  Uiso   1.00
H75    H     0.19070   0.56968   0.14794   0.00000  Uiso   1.00
H76    H     0.07625   0.46005   0.82624   0.00000  Uiso   1.00
H77    H     0.64522   0.70371   0.81237   0.00000  Uiso   1.00
H78    H     0.74745   0.80345   0.84460   0.00000  Uiso   1.00
H79    H     0.37970   0.68366   0.86299   0.00000  Uiso   1.00
H80    H     0.79965   0.63168   0.71043   0.00000  Uiso   1.00
H81    H     0.87459   0.90195   0.91047   0.00000  Uiso   1.00
H82    H     0.09919   0.64936   0.94923   0.00000  Uiso   1.00
H83    H     0.98474   0.53973   0.62753   0.00000  Uiso   1.00
O84    O     0.98947   0.92604   0.03523   0.00000  Uiso   1.00
O85    O     0.97219   0.59464   0.08608   0.00000  Uiso   1.00
O86    O     0.13401   0.45082   0.66401   0.00000  Uiso   1.00
N87    N     0.93056   0.82732   0.05798   0.00000  Uiso   1.00
N88    N     0.20560   0.59118   0.09423   0.00000  Uiso   1.00
N89    N     0.03349   0.48868   0.79346   0.00000  Uiso   1.00
N90    N     0.88132   0.87020   0.95106   0.00000  Uiso   1.00
N91    N     0.15636   0.63406   0.98730   0.00000  Uiso   1.00
N92    N     0.98425   0.53156   0.68654   0.00000  Uiso   1.00
C93    C     0.72763   0.86803   0.49129   0.00000  Uiso   1.00
C94    C     0.77154   0.80372   0.48353   0.00000  Uiso   1.00
C95    C     0.83588   0.77352   0.53658   0.00000  Uiso   1.00
C96    C     0.86768   0.71490   0.51889   0.00000  Uiso   1.00
C97    C     0.94059   0.61919   0.51726   0.00000  Uiso   1.00
C98    C     0.57173   0.86879   0.49353   0.00000  Uiso   1.00
C99    C     0.46807   0.89332   0.55498   0.00000  Uiso   1.00
C100   C     0.33168   0.88948   0.54570   0.00000  Uiso   1.00
C101   C     0.09439   0.89484   0.55956   0.00000  Uiso   1.00
C102   C     0.79991   0.89703   0.41064   0.00000  Uiso   1.00
C103   C     0.88808   0.94532   0.40239   0.00000  Uiso   1.00
C104   C     0.94378   0.96527   0.32332   0.00000  Uiso   1.00
C105   C     0.06078   0.01448   0.20849   0.00000  Uiso   1.00
C106   C     0.66972   0.81761   0.36555   0.00000  Uiso   1.00
C107   C     0.74008   0.77633   0.41523   0.00000  Uiso   1.00
C108   C     0.77180   0.71774   0.39746   0.00000  Uiso   1.00
C109   C     0.83618   0.68746   0.45047   0.00000  Uiso   1.00
C110   C     0.54027   0.84140   0.42524   0.00000  Uiso   1.00
C111   C     0.40400   0.83753   0.41586   0.00000  Uiso   1.00
C112   C     0.30016   0.86204   0.47727   0.00000  Uiso   1.00
C113   C     0.76846   0.86965   0.34234   0.00000  Uiso   1.00
C114   C     0.82402   0.88953   0.26327   0.00000  Uiso   1.00
C115   C     0.91226   0.93783   0.25490   0.00000  Uiso   1.00
H116   H     0.75211   0.88936   0.54446   0.00000  Uiso   1.00
H117   H     0.86019   0.79473   0.58943   0.00000  Uiso   1.00
H118   H     0.49245   0.91451   0.60782   0.00000  Uiso   1.00
H119   H     0.91240   0.96650   0.45526   0.00000  Uiso   1.00
H120   H     0.96610   0.67774   0.60918   0.00000  Uiso   1.00
H121   H     0.19070   0.93032   0.64794   0.00000  Uiso   1.00
H122   H     0.07625   0.03995   0.32624   0.00000  Uiso   1.00
H123   H     0.64522   0.79629   0.31237   0.00000  Uiso   1.00
H124   H     0.74745   0.69655   0.34460   0.00000  Uiso   1.00
H125   H     0.37970   0.81634   0.36299   0.00000  Uiso   1.00
H126   H     0.79965   0.86832   0.21043   0.00000  Uiso   1.00
H127   H     0.87459   0.59805   0.41047   0.00000  Uiso   1.00
H128   H     0.09919   0.85064   0.44923   0.00000  Uiso   1.00
H129   H     0.98474   0.96027   0.12753   0.00000  Uiso   1.00
O130   O     0.98947   0.57396   0.53523   0.00000  Uiso   1.00
O131   O     0.97219   0.90536   0.58608   0.00000  Uiso   1.00
O132   O     0.13401   0.04918   0.16401   0.00000  Uiso   1.00
N133   N     0.93056   0.67268   0.55798   0.00000  Uiso   1.00
N134   N     0.20560   0.90882   0.59423   0.00000  Uiso   1.00
N135   N     0.03349   0.01132   0.29346   0.00000  Uiso   1.00
N136   N     0.88132   0.62980   0.45106   0.00000  Uiso   1.00
N137   N     0.15636   0.86594   0.48730   0.00000  Uiso   1.00
N138   N     0.98425   0.96844   0.18654   0.00000  Uiso   1.00
C139   C     0.27237   0.36803   0.00871   0.00000  Uiso   1.00
C140   C     0.22846   0.30372   0.01647   0.00000  Uiso   1.00
C141   C     0.16412   0.27352   0.96342   0.00000  Uiso   1.00
C142   C     0.13232   0.21490   0.98111   0.00000  Uiso   1.00
C143   C     0.05941   0.11919   0.98274   0.00000  Uiso   1.00
C144   C     0.42827   0.36879   0.00647   0.00000  Uiso   1.00
C145   C     0.53193   0.39332   0.94502   0.00000  Uiso   1.00
C146   C     0.66832   0.38948   0.95430   0.00000  Uiso   1.00
C147   C     0.90561   0.39484   0.94044   0.00000  Uiso   1.00
C148   C     0.20009   0.39703   0.08936   0.00000  Uiso   1.00
C149   C     0.11192   0.44532   0.09761   0.00000  Uiso   1.00
C150   C     0.05622   0.46527   0.17668   0.00000  Uiso   1.00
C151   C     0.93922   0.51448   0.29151   0.00000  Uiso   1.00
C152   C     0.33028   0.31761   0.13445   0.00000  Uiso   1.00
C153   C     0.25992   0.27633   0.08477   0.00000  Uiso   1.00
C154   C     0.22820   0.21774   0.10254   0.00000  Uiso   1.00
C155   C     0.16382   0.18746   0.04953   0.00000  Uiso   1.00
C156   C     0.45973   0.34140   0.07476   0.00000  Uiso   1.00
C157   C     0.59600   0.33753   0.08414   0.00000  Uiso   1.00
C158   C     0.69984   0.36204   0.02273   0.00000  Uiso   1.00
C159   C     0.23154   0.36965   0.15766   0.00000  Uiso   1.00
C160   C     0.17598   0.38953   0.23673   0.00000  Uiso   1.00
C161   C     0.08774   0.43783   0.24510   0.00000  Uiso   1.00
H162   H     0.24789   0.38936   0.95554   0.00000  Uiso   1.00
H163   H     0.13981   0.29473   0.91057   0.00000  Uiso   1.00
H164   H     0.50755   0.41451   0.89218   0.00000  Uiso   1.00
H165   H     0.08760   0.46650   0.04474   0.00000  Uiso   1.00
H166   H     0.03390   0.17774   0.89082   0.00000  Uiso   1.00
H167   H     0.80930   0.43032   0.85206   0.00000  Uiso   1.00
H168   H     0.92375   0.53995   0.17376   0.00000  Uiso   1.00
H169   H     0.35478   0.29629   0.18763   0.00000  Uiso   1.00
H170   H     0.25255   0.19655   0.15540   0.00000  Uiso   1.00
H171   H     0.62030   0.31634   0.13701   0.00000  Uiso   1.00
H172   H     0.20035   0.36832   0.28957   0.00000  Uiso   1.00
H173   H     0.12541   0.09805   0.08953   0.00000  Uiso   1.00
H174   H     0.90081   0.35064   0.05077   0.00000  Uiso   1.00
H175   H     0.01526   0.46027   0.37247   0.00000  Uiso   1.00
O176   O     0.01053   0.07396   0.96477   0.00000  Uiso   1.00
O177   O     0.02781   0.40536   0.91392   0.00000  Uiso   1.00
O178   O     0.86599   0.54918   0.33599   0.00000  Uiso   1.00
N179   N     0.06944   0.17268   0.94202   0.00000  Uiso   1.00
N180   N     0.79440   0.40882   0.90577   0.00000  Uiso   1.00
N181   N     0.96651   0.51132   0.20654   0.00000  Uiso   1.00
N182   N     0.11868   0.12980   0.04894   0.00000  Uiso   1.00
N183   N     0.84364   0.36594   0.01270   0.00000  Uiso   1.00
N184   N     0.01575   0.46844   0.31346   0.00000  Uiso   1.00
