data_job_03749
_audit_creation_date              2018-12-19
_audit_creation_method            'Materials Studio'
_symmetry_space_group_name_H-M    'P1'
_symmetry_Int_Tables_number       1
_symmetry_cell_setting            triclinic
loop_
_symmetry_equiv_pos_as_xyz
  x,y,z
_cell_length_a                    16.0097
_cell_length_b                    16.0097
_cell_length_c                    20.2641
_cell_angle_alpha                 90.0000
_cell_angle_beta                  90.0000
_cell_angle_gamma                 90.0000
loop_
_atom_site_label
_atom_site_type_symbol
_atom_site_fract_x
_atom_site_fract_y
_atom_site_fract_z
_atom_site_U_iso_or_equiv
_atom_site_adp_type
_atom_site_occupancy
C1     C     0.97816   0.23690   0.04448   0.00000  Uiso   1.00
C2     C     0.02911   0.18051   0.08985   0.00000  Uiso   1.00
C3     C     0.05984   0.10205   0.07378   0.00000  Uiso   1.00
C4     C     0.10499   0.06040   0.12214   0.00000  Uiso   1.00
C5     C     0.18195   0.96741   0.18314   0.00000  Uiso   1.00
C6     C     0.89726   0.25573   0.08131   0.00000  Uiso   1.00
C7     C     0.81715   0.24052   0.05806   0.00000  Uiso   1.00
C8     C     0.75131   0.26220   0.09924   0.00000  Uiso   1.00
C9     C     0.62359   0.28605   0.14698   0.00000  Uiso   1.00
C10    C     0.02558   0.31936   0.04071   0.00000  Uiso   1.00
C11    C     0.05335   0.35767   0.98333   0.00000  Uiso   1.00
C12    C     0.09553   0.43293   0.99033   0.00000  Uiso   1.00
C13    C     0.16705   0.55557   0.97502   0.00000  Uiso   1.00
C14    C     0.00367   0.30243   0.15894   0.00000  Uiso   1.00
C15    C     0.04296   0.21611   0.15202   0.00000  Uiso   1.00
C16    C     0.08808   0.17456   0.20042   0.00000  Uiso   1.00
C17    C     0.11888   0.09606   0.18442   0.00000  Uiso   1.00
C18    C     0.91112   0.29132   0.14348   0.00000  Uiso   1.00
C19    C     0.84538   0.31303   0.18470   0.00000  Uiso   1.00
C20    C     0.76519   0.29786   0.16153   0.00000  Uiso   1.00
C21    C     0.03945   0.35496   0.10289   0.00000  Uiso   1.00
C22    C     0.08159   0.43017   0.10997   0.00000  Uiso   1.00
C23    C     0.10941   0.46859   0.05261   0.00000  Uiso   1.00
H24    H     0.96736   0.20918   0.99608   0.00000  Uiso   1.00
H25    H     0.04910   0.07452   0.02566   0.00000  Uiso   1.00
H26    H     0.80645   0.21298   0.00995   0.00000  Uiso   1.00
H27    H     0.04261   0.33011   0.93523   0.00000  Uiso   1.00
H28    H     0.14580   0.94091   0.08589   0.00000  Uiso   1.00
H29    H     0.63416   0.23289   0.05275   0.00000  Uiso   1.00
H30    H     0.13216   0.47987   0.89518   0.00000  Uiso   1.00
H31    H     0.01446   0.33015   0.20734   0.00000  Uiso   1.00
H32    H     0.09879   0.20212   0.24852   0.00000  Uiso   1.00
H33    H     0.85613   0.34058   0.23281   0.00000  Uiso   1.00
H34    H     0.09230   0.45770   0.15809   0.00000  Uiso   1.00
H35    H     0.18613   0.04447   0.26677   0.00000  Uiso   1.00
H36    H     0.67448   0.33645   0.23363   0.00000  Uiso   1.00
H37    H     0.17248   0.58343   0.07607   0.00000  Uiso   1.00
O38    O     0.22057   0.90628   0.19961   0.00000  Uiso   1.00
O39    O     0.54930   0.28936   0.15613   0.00000  Uiso   1.00
O40    O     0.20267   0.61338   0.94941   0.00000  Uiso   1.00
N41    N     0.14374   0.98286   0.12280   0.00000  Uiso   1.00
N42    N     0.66538   0.25583   0.09182   0.00000  Uiso   1.00
N43    N     0.13095   0.48675   0.94451   0.00000  Uiso   1.00
N44    N     0.16544   0.03859   0.22013   0.00000  Uiso   1.00
N45    N     0.68708   0.31156   0.18916   0.00000  Uiso   1.00
N46    N     0.15265   0.54247   0.04184   0.00000  Uiso   1.00
C47    C     0.02184   0.76310   0.04448   0.00000  Uiso   1.00
C48    C     0.97089   0.81949   0.08985   0.00000  Uiso   1.00
C49    C     0.94016   0.89795   0.07378   0.00000  Uiso   1.00
C50    C     0.89501   0.93960   0.12214   0.00000  Uiso   1.00
C51    C     0.81805   0.03259   0.18314   0.00000  Uiso   1.00
C52    C     0.10274   0.74427   0.08131   0.00000  Uiso   1.00
C53    C     0.18285   0.75948   0.05806   0.00000  Uiso   1.00
C54    C     0.24869   0.73780   0.09924   0.00000  Uiso   1.00
C55    C     0.37641   0.71395   0.14698   0.00000  Uiso   1.00
C56    C     0.97442   0.68064   0.04071   0.00000  Uiso   1.00
C57    C     0.94665   0.64233   0.98333   0.00000  Uiso   1.00
C58    C     0.90447   0.56707   0.99033   0.00000  Uiso   1.00
C59    C     0.83295   0.44443   0.97502   0.00000  Uiso   1.00
C60    C     0.99633   0.69757   0.15894   0.00000  Uiso   1.00
C61    C     0.95704   0.78389   0.15202   0.00000  Uiso   1.00
C62    C     0.91192   0.82544   0.20042   0.00000  Uiso   1.00
C63    C     0.88112   0.90394   0.18442   0.00000  Uiso   1.00
C64    C     0.08888   0.70868   0.14348   0.00000  Uiso   1.00
C65    C     0.15462   0.68697   0.18470   0.00000  Uiso   1.00
C66    C     0.23481   0.70214   0.16153   0.00000  Uiso   1.00
C67    C     0.96055   0.64504   0.10289   0.00000  Uiso   1.00
C68    C     0.91841   0.56983   0.10997   0.00000  Uiso   1.00
C69    C     0.89059   0.53141   0.05261   0.00000  Uiso   1.00
H70    H     0.03264   0.79082   0.99608   0.00000  Uiso   1.00
H71    H     0.95090   0.92548   0.02566   0.00000  Uiso   1.00
H72    H     0.19355   0.78702   0.00995   0.00000  Uiso   1.00
H73    H     0.95739   0.66989   0.93523   0.00000  Uiso   1.00
H74    H     0.85420   0.05909   0.08589   0.00000  Uiso   1.00
H75    H     0.36584   0.76711   0.05275   0.00000  Uiso   1.00
H76    H     0.86784   0.52013   0.89518   0.00000  Uiso   1.00
H77    H     0.98554   0.66985   0.20734   0.00000  Uiso   1.00
H78    H     0.90121   0.79788   0.24852   0.00000  Uiso   1.00
H79    H     0.14387   0.65942   0.23281   0.00000  Uiso   1.00
H80    H     0.90770   0.54230   0.15809   0.00000  Uiso   1.00
H81    H     0.81387   0.95553   0.26677   0.00000  Uiso   1.00
H82    H     0.32552   0.66355   0.23363   0.00000  Uiso   1.00
H83    H     0.82752   0.41657   0.07607   0.00000  Uiso   1.00
O84    O     0.77943   0.09372   0.19961   0.00000  Uiso   1.00
O85    O     0.45070   0.71064   0.15613   0.00000  Uiso   1.00
O86    O     0.79733   0.38662   0.94941   0.00000  Uiso   1.00
N87    N     0.85626   0.01714   0.12280   0.00000  Uiso   1.00
N88    N     0.33462   0.74417   0.09182   0.00000  Uiso   1.00
N89    N     0.86905   0.51325   0.94451   0.00000  Uiso   1.00
N90    N     0.83456   0.96141   0.22013   0.00000  Uiso   1.00
N91    N     0.31292   0.68844   0.18916   0.00000  Uiso   1.00
N92    N     0.84735   0.45753   0.04184   0.00000  Uiso   1.00
C93    C     0.26310   0.47816   0.54448   0.00000  Uiso   1.00
C94    C     0.31949   0.52911   0.58985   0.00000  Uiso   1.00
C95    C     0.39795   0.55984   0.57378   0.00000  Uiso   1.00
C96    C     0.43960   0.60499   0.62214   0.00000  Uiso   1.00
C97    C     0.53259   0.68195   0.68314   0.00000  Uiso   1.00
C98    C     0.24427   0.39726   0.58131   0.00000  Uiso   1.00
C99    C     0.25948   0.31715   0.55806   0.00000  Uiso   1.00
C100   C     0.23780   0.25131   0.59924   0.00000  Uiso   1.00
C101   C     0.21395   0.12359   0.64698   0.00000  Uiso   1.00
C102   C     0.18064   0.52558   0.54071   0.00000  Uiso   1.00
C103   C     0.14233   0.55335   0.48333   0.00000  Uiso   1.00
C104   C     0.06707   0.59553   0.49033   0.00000  Uiso   1.00
C105   C     0.94443   0.66705   0.47502   0.00000  Uiso   1.00
C106   C     0.19757   0.50367   0.65894   0.00000  Uiso   1.00
C107   C     0.28389   0.54296   0.65202   0.00000  Uiso   1.00
C108   C     0.32544   0.58808   0.70042   0.00000  Uiso   1.00
C109   C     0.40394   0.61888   0.68442   0.00000  Uiso   1.00
C110   C     0.20868   0.41112   0.64348   0.00000  Uiso   1.00
C111   C     0.18697   0.34538   0.68470   0.00000  Uiso   1.00
C112   C     0.20214   0.26519   0.66153   0.00000  Uiso   1.00
C113   C     0.14504   0.53945   0.60289   0.00000  Uiso   1.00
C114   C     0.06983   0.58159   0.60997   0.00000  Uiso   1.00
C115   C     0.03141   0.60941   0.55261   0.00000  Uiso   1.00
H116   H     0.29082   0.46736   0.49608   0.00000  Uiso   1.00
H117   H     0.42548   0.54910   0.52566   0.00000  Uiso   1.00
H118   H     0.28702   0.30645   0.50995   0.00000  Uiso   1.00
H119   H     0.16989   0.54261   0.43523   0.00000  Uiso   1.00
H120   H     0.55909   0.64580   0.58589   0.00000  Uiso   1.00
H121   H     0.26711   0.13416   0.55275   0.00000  Uiso   1.00
H122   H     0.02013   0.63216   0.39518   0.00000  Uiso   1.00
H123   H     0.16985   0.51446   0.70734   0.00000  Uiso   1.00
H124   H     0.29788   0.59879   0.74852   0.00000  Uiso   1.00
H125   H     0.15942   0.35613   0.73281   0.00000  Uiso   1.00
H126   H     0.04230   0.59230   0.65809   0.00000  Uiso   1.00
H127   H     0.45553   0.68613   0.76677   0.00000  Uiso   1.00
H128   H     0.16355   0.17448   0.73363   0.00000  Uiso   1.00
H129   H     0.91657   0.67248   0.57607   0.00000  Uiso   1.00
O130   O     0.59372   0.72057   0.69961   0.00000  Uiso   1.00
O131   O     0.21064   0.04930   0.65613   0.00000  Uiso   1.00
O132   O     0.88662   0.70267   0.44941   0.00000  Uiso   1.00
N133   N     0.51714   0.64374   0.62280   0.00000  Uiso   1.00
N134   N     0.24417   0.16538   0.59182   0.00000  Uiso   1.00
N135   N     0.01325   0.63095   0.44451   0.00000  Uiso   1.00
N136   N     0.46141   0.66544   0.72013   0.00000  Uiso   1.00
N137   N     0.18844   0.18708   0.68916   0.00000  Uiso   1.00
N138   N     0.95753   0.65265   0.54184   0.00000  Uiso   1.00
C139   C     0.73690   0.52184   0.54448   0.00000  Uiso   1.00
C140   C     0.68051   0.47089   0.58985   0.00000  Uiso   1.00
C141   C     0.60205   0.44016   0.57378   0.00000  Uiso   1.00
C142   C     0.56040   0.39501   0.62214   0.00000  Uiso   1.00
C143   C     0.46741   0.31805   0.68314   0.00000  Uiso   1.00
C144   C     0.75573   0.60274   0.58131   0.00000  Uiso   1.00
C145   C     0.74052   0.68285   0.55806   0.00000  Uiso   1.00
C146   C     0.76220   0.74869   0.59924   0.00000  Uiso   1.00
C147   C     0.78605   0.87641   0.64698   0.00000  Uiso   1.00
C148   C     0.81936   0.47442   0.54071   0.00000  Uiso   1.00
C149   C     0.85767   0.44665   0.48333   0.00000  Uiso   1.00
C150   C     0.93293   0.40447   0.49033   0.00000  Uiso   1.00
C151   C     0.05557   0.33295   0.47502   0.00000  Uiso   1.00
C152   C     0.80243   0.49633   0.65894   0.00000  Uiso   1.00
C153   C     0.71611   0.45704   0.65202   0.00000  Uiso   1.00
C154   C     0.67456   0.41192   0.70042   0.00000  Uiso   1.00
C155   C     0.59606   0.38112   0.68442   0.00000  Uiso   1.00
C156   C     0.79132   0.58888   0.64348   0.00000  Uiso   1.00
C157   C     0.81303   0.65462   0.68470   0.00000  Uiso   1.00
C158   C     0.79786   0.73481   0.66153   0.00000  Uiso   1.00
C159   C     0.85496   0.46055   0.60289   0.00000  Uiso   1.00
C160   C     0.93017   0.41841   0.60997   0.00000  Uiso   1.00
C161   C     0.96859   0.39059   0.55261   0.00000  Uiso   1.00
H162   H     0.70918   0.53264   0.49608   0.00000  Uiso   1.00
H163   H     0.57452   0.45090   0.52566   0.00000  Uiso   1.00
H164   H     0.71298   0.69355   0.50995   0.00000  Uiso   1.00
H165   H     0.83011   0.45739   0.43523   0.00000  Uiso   1.00
H166   H     0.44091   0.35420   0.58589   0.00000  Uiso   1.00
H167   H     0.73289   0.86584   0.55275   0.00000  Uiso   1.00
H168   H     0.97987   0.36784   0.39518   0.00000  Uiso   1.00
H169   H     0.83015   0.48554   0.70734   0.00000  Uiso   1.00
H170   H     0.70212   0.40121   0.74852   0.00000  Uiso   1.00
H171   H     0.84058   0.64387   0.73281   0.00000  Uiso   1.00
H172   H     0.95770   0.40770   0.65809   0.00000  Uiso   1.00
H173   H     0.54447   0.31387   0.76677   0.00000  Uiso   1.00
H174   H     0.83645   0.82552   0.73363   0.00000  Uiso   1.00
H175   H     0.08343   0.32752   0.57607   0.00000  Uiso   1.00
O176   O     0.40628   0.27943   0.69961   0.00000  Uiso   1.00
O177   O     0.78936   0.95070   0.65613   0.00000  Uiso   1.00
O178   O     0.11338   0.29733   0.44941   0.00000  Uiso   1.00
N179   N     0.48286   0.35626   0.62280   0.00000  Uiso   1.00
N180   N     0.75583   0.83462   0.59182   0.00000  Uiso   1.00
N181   N     0.98675   0.36905   0.44451   0.00000  Uiso   1.00
N182   N     0.53859   0.33456   0.72013   0.00000  Uiso   1.00
N183   N     0.81156   0.81292   0.68916   0.00000  Uiso   1.00
N184   N     0.04247   0.34735   0.54184   0.00000  Uiso   1.00
C185   C     0.52184   0.26310   0.45552   0.00000  Uiso   1.00
C186   C     0.47089   0.31949   0.41015   0.00000  Uiso   1.00
C187   C     0.44016   0.39795   0.42622   0.00000  Uiso   1.00
C188   C     0.39501   0.43960   0.37786   0.00000  Uiso   1.00
C189   C     0.31805   0.53259   0.31686   0.00000  Uiso   1.00
C190   C     0.60274   0.24427   0.41869   0.00000  Uiso   1.00
C191   C     0.68285   0.25948   0.44194   0.00000  Uiso   1.00
C192   C     0.74869   0.23780   0.40076   0.00000  Uiso   1.00
C193   C     0.87641   0.21395   0.35302   0.00000  Uiso   1.00
C194   C     0.47442   0.18064   0.45929   0.00000  Uiso   1.00
C195   C     0.44665   0.14233   0.51667   0.00000  Uiso   1.00
C196   C     0.40447   0.06707   0.50967   0.00000  Uiso   1.00
C197   C     0.33295   0.94443   0.52498   0.00000  Uiso   1.00
C198   C     0.49633   0.19757   0.34106   0.00000  Uiso   1.00
C199   C     0.45704   0.28389   0.34798   0.00000  Uiso   1.00
C200   C     0.41192   0.32544   0.29958   0.00000  Uiso   1.00
C201   C     0.38112   0.40394   0.31558   0.00000  Uiso   1.00
C202   C     0.58888   0.20868   0.35652   0.00000  Uiso   1.00
C203   C     0.65462   0.18697   0.31530   0.00000  Uiso   1.00
C204   C     0.73481   0.20214   0.33847   0.00000  Uiso   1.00
C205   C     0.46055   0.14504   0.39711   0.00000  Uiso   1.00
C206   C     0.41841   0.06983   0.39003   0.00000  Uiso   1.00
C207   C     0.39059   0.03141   0.44739   0.00000  Uiso   1.00
H208   H     0.53264   0.29082   0.50392   0.00000  Uiso   1.00
H209   H     0.45090   0.42548   0.47434   0.00000  Uiso   1.00
H210   H     0.69355   0.28702   0.49005   0.00000  Uiso   1.00
H211   H     0.45739   0.16989   0.56477   0.00000  Uiso   1.00
H212   H     0.35420   0.55909   0.41411   0.00000  Uiso   1.00
H213   H     0.86584   0.26711   0.44725   0.00000  Uiso   1.00
H214   H     0.36784   0.02013   0.60482   0.00000  Uiso   1.00
H215   H     0.48554   0.16985   0.29266   0.00000  Uiso   1.00
H216   H     0.40121   0.29788   0.25148   0.00000  Uiso   1.00
H217   H     0.64387   0.15942   0.26719   0.00000  Uiso   1.00
H218   H     0.40770   0.04230   0.34191   0.00000  Uiso   1.00
H219   H     0.31387   0.45553   0.23323   0.00000  Uiso   1.00
H220   H     0.82552   0.16355   0.26637   0.00000  Uiso   1.00
H221   H     0.32752   0.91657   0.42393   0.00000  Uiso   1.00
O222   O     0.27943   0.59372   0.30039   0.00000  Uiso   1.00
O223   O     0.95070   0.21064   0.34387   0.00000  Uiso   1.00
O224   O     0.29733   0.88662   0.55059   0.00000  Uiso   1.00
N225   N     0.35626   0.51714   0.37720   0.00000  Uiso   1.00
N226   N     0.83462   0.24417   0.40818   0.00000  Uiso   1.00
N227   N     0.36905   0.01325   0.55549   0.00000  Uiso   1.00
N228   N     0.33456   0.46141   0.27987   0.00000  Uiso   1.00
N229   N     0.81292   0.18844   0.31084   0.00000  Uiso   1.00
N230   N     0.34735   0.95753   0.45816   0.00000  Uiso   1.00
C231   C     0.47816   0.73690   0.45552   0.00000  Uiso   1.00
C232   C     0.52911   0.68051   0.41015   0.00000  Uiso   1.00
C233   C     0.55984   0.60205   0.42622   0.00000  Uiso   1.00
C234   C     0.60499   0.56040   0.37786   0.00000  Uiso   1.00
C235   C     0.68195   0.46741   0.31686   0.00000  Uiso   1.00
C236   C     0.39726   0.75573   0.41869   0.00000  Uiso   1.00
C237   C     0.31715   0.74052   0.44194   0.00000  Uiso   1.00
C238   C     0.25131   0.76220   0.40076   0.00000  Uiso   1.00
C239   C     0.12359   0.78605   0.35302   0.00000  Uiso   1.00
C240   C     0.52558   0.81936   0.45929   0.00000  Uiso   1.00
C241   C     0.55335   0.85767   0.51667   0.00000  Uiso   1.00
C242   C     0.59553   0.93293   0.50967   0.00000  Uiso   1.00
C243   C     0.66705   0.05557   0.52498   0.00000  Uiso   1.00
C244   C     0.50367   0.80243   0.34106   0.00000  Uiso   1.00
C245   C     0.54296   0.71611   0.34798   0.00000  Uiso   1.00
C246   C     0.58808   0.67456   0.29958   0.00000  Uiso   1.00
C247   C     0.61888   0.59606   0.31558   0.00000  Uiso   1.00
C248   C     0.41112   0.79132   0.35652   0.00000  Uiso   1.00
C249   C     0.34538   0.81303   0.31530   0.00000  Uiso   1.00
C250   C     0.26519   0.79786   0.33847   0.00000  Uiso   1.00
C251   C     0.53945   0.85496   0.39711   0.00000  Uiso   1.00
C252   C     0.58159   0.93017   0.39003   0.00000  Uiso   1.00
C253   C     0.60941   0.96859   0.44739   0.00000  Uiso   1.00
H254   H     0.46736   0.70918   0.50392   0.00000  Uiso   1.00
H255   H     0.54910   0.57452   0.47434   0.00000  Uiso   1.00
H256   H     0.30645   0.71298   0.49005   0.00000  Uiso   1.00
H257   H     0.54261   0.83011   0.56477   0.00000  Uiso   1.00
H258   H     0.64580   0.44091   0.41411   0.00000  Uiso   1.00
H259   H     0.13416   0.73289   0.44725   0.00000  Uiso   1.00
H260   H     0.63216   0.97987   0.60482   0.00000  Uiso   1.00
H261   H     0.51446   0.83015   0.29266   0.00000  Uiso   1.00
H262   H     0.59879   0.70212   0.25148   0.00000  Uiso   1.00
H263   H     0.35613   0.84058   0.26719   0.00000  Uiso   1.00
H264   H     0.59230   0.95770   0.34191   0.00000  Uiso   1.00
H265   H     0.68613   0.54447   0.23323   0.00000  Uiso   1.00
H266   H     0.17448   0.83645   0.26637   0.00000  Uiso   1.00
H267   H     0.67248   0.08343   0.42393   0.00000  Uiso   1.00
O268   O     0.72057   0.40628   0.30039   0.00000  Uiso   1.00
O269   O     0.04930   0.78936   0.34387   0.00000  Uiso   1.00
O270   O     0.70267   0.11338   0.55059   0.00000  Uiso   1.00
N271   N     0.64374   0.48286   0.37720   0.00000  Uiso   1.00
N272   N     0.16538   0.75583   0.40818   0.00000  Uiso   1.00
N273   N     0.63095   0.98675   0.55549   0.00000  Uiso   1.00
N274   N     0.66544   0.53859   0.27987   0.00000  Uiso   1.00
N275   N     0.18708   0.81156   0.31084   0.00000  Uiso   1.00
N276   N     0.65265   0.04247   0.45816   0.00000  Uiso   1.00
C277   C     0.23690   0.02184   0.95552   0.00000  Uiso   1.00
C278   C     0.18051   0.97089   0.91015   0.00000  Uiso   1.00
C279   C     0.10205   0.94016   0.92622   0.00000  Uiso   1.00
C280   C     0.06040   0.89501   0.87786   0.00000  Uiso   1.00
C281   C     0.96741   0.81805   0.81686   0.00000  Uiso   1.00
C282   C     0.25573   0.10274   0.91869   0.00000  Uiso   1.00
C283   C     0.24052   0.18285   0.94194   0.00000  Uiso   1.00
C284   C     0.26220   0.24869   0.90076   0.00000  Uiso   1.00
C285   C     0.28605   0.37641   0.85302   0.00000  Uiso   1.00
C286   C     0.31936   0.97442   0.95929   0.00000  Uiso   1.00
C287   C     0.35767   0.94665   0.01667   0.00000  Uiso   1.00
C288   C     0.43293   0.90447   0.00967   0.00000  Uiso   1.00
C289   C     0.55557   0.83295   0.02498   0.00000  Uiso   1.00
C290   C     0.30243   0.99633   0.84106   0.00000  Uiso   1.00
C291   C     0.21611   0.95704   0.84798   0.00000  Uiso   1.00
C292   C     0.17456   0.91192   0.79958   0.00000  Uiso   1.00
C293   C     0.09606   0.88112   0.81558   0.00000  Uiso   1.00
C294   C     0.29132   0.08888   0.85652   0.00000  Uiso   1.00
C295   C     0.31303   0.15462   0.81530   0.00000  Uiso   1.00
C296   C     0.29786   0.23481   0.83847   0.00000  Uiso   1.00
C297   C     0.35496   0.96055   0.89711   0.00000  Uiso   1.00
C298   C     0.43017   0.91841   0.89003   0.00000  Uiso   1.00
C299   C     0.46859   0.89059   0.94739   0.00000  Uiso   1.00
H300   H     0.20918   0.03264   0.00392   0.00000  Uiso   1.00
H301   H     0.07452   0.95090   0.97434   0.00000  Uiso   1.00
H302   H     0.21298   0.19355   0.99005   0.00000  Uiso   1.00
H303   H     0.33011   0.95739   0.06477   0.00000  Uiso   1.00
H304   H     0.94091   0.85420   0.91411   0.00000  Uiso   1.00
H305   H     0.23289   0.36584   0.94725   0.00000  Uiso   1.00
H306   H     0.47987   0.86784   0.10482   0.00000  Uiso   1.00
H307   H     0.33015   0.98554   0.79266   0.00000  Uiso   1.00
H308   H     0.20212   0.90121   0.75148   0.00000  Uiso   1.00
H309   H     0.34058   0.14387   0.76719   0.00000  Uiso   1.00
H310   H     0.45770   0.90770   0.84191   0.00000  Uiso   1.00
H311   H     0.04447   0.81387   0.73323   0.00000  Uiso   1.00
H312   H     0.33645   0.32552   0.76637   0.00000  Uiso   1.00
H313   H     0.58343   0.82752   0.92393   0.00000  Uiso   1.00
O314   O     0.90628   0.77943   0.80039   0.00000  Uiso   1.00
O315   O     0.28936   0.45070   0.84387   0.00000  Uiso   1.00
O316   O     0.61338   0.79733   0.05059   0.00000  Uiso   1.00
N317   N     0.98286   0.85626   0.87720   0.00000  Uiso   1.00
N318   N     0.25583   0.33462   0.90818   0.00000  Uiso   1.00
N319   N     0.48675   0.86905   0.05549   0.00000  Uiso   1.00
N320   N     0.03859   0.83456   0.77987   0.00000  Uiso   1.00
N321   N     0.31156   0.31292   0.81084   0.00000  Uiso   1.00
N322   N     0.54247   0.84735   0.95816   0.00000  Uiso   1.00
C323   C     0.76310   0.97816   0.95552   0.00000  Uiso   1.00
C324   C     0.81949   0.02911   0.91015   0.00000  Uiso   1.00
C325   C     0.89795   0.05984   0.92622   0.00000  Uiso   1.00
C326   C     0.93960   0.10499   0.87786   0.00000  Uiso   1.00
C327   C     0.03259   0.18195   0.81686   0.00000  Uiso   1.00
C328   C     0.74427   0.89726   0.91869   0.00000  Uiso   1.00
C329   C     0.75948   0.81715   0.94194   0.00000  Uiso   1.00
C330   C     0.73780   0.75131   0.90076   0.00000  Uiso   1.00
C331   C     0.71395   0.62359   0.85302   0.00000  Uiso   1.00
C332   C     0.68064   0.02558   0.95929   0.00000  Uiso   1.00
C333   C     0.64233   0.05335   0.01667   0.00000  Uiso   1.00
C334   C     0.56707   0.09553   0.00967   0.00000  Uiso   1.00
C335   C     0.44443   0.16705   0.02498   0.00000  Uiso   1.00
C336   C     0.69757   0.00367   0.84106   0.00000  Uiso   1.00
C337   C     0.78389   0.04296   0.84798   0.00000  Uiso   1.00
C338   C     0.82544   0.08808   0.79958   0.00000  Uiso   1.00
C339   C     0.90394   0.11888   0.81558   0.00000  Uiso   1.00
C340   C     0.70868   0.91112   0.85652   0.00000  Uiso   1.00
C341   C     0.68697   0.84538   0.81530   0.00000  Uiso   1.00
C342   C     0.70214   0.76519   0.83847   0.00000  Uiso   1.00
C343   C     0.64504   0.03945   0.89711   0.00000  Uiso   1.00
C344   C     0.56983   0.08159   0.89003   0.00000  Uiso   1.00
C345   C     0.53141   0.10941   0.94739   0.00000  Uiso   1.00
H346   H     0.79082   0.96736   0.00392   0.00000  Uiso   1.00
H347   H     0.92548   0.04910   0.97434   0.00000  Uiso   1.00
H348   H     0.78702   0.80645   0.99005   0.00000  Uiso   1.00
H349   H     0.66989   0.04261   0.06477   0.00000  Uiso   1.00
H350   H     0.05909   0.14580   0.91411   0.00000  Uiso   1.00
H351   H     0.76711   0.63416   0.94725   0.00000  Uiso   1.00
H352   H     0.52013   0.13216   0.10482   0.00000  Uiso   1.00
H353   H     0.66985   0.01446   0.79266   0.00000  Uiso   1.00
H354   H     0.79788   0.09879   0.75148   0.00000  Uiso   1.00
H355   H     0.65942   0.85613   0.76719   0.00000  Uiso   1.00
H356   H     0.54230   0.09230   0.84191   0.00000  Uiso   1.00
H357   H     0.95553   0.18613   0.73323   0.00000  Uiso   1.00
H358   H     0.66355   0.67448   0.76637   0.00000  Uiso   1.00
H359   H     0.41657   0.17248   0.92393   0.00000  Uiso   1.00
O360   O     0.09372   0.22057   0.80039   0.00000  Uiso   1.00
O361   O     0.71064   0.54930   0.84387   0.00000  Uiso   1.00
O362   O     0.38662   0.20267   0.05059   0.00000  Uiso   1.00
N363   N     0.01714   0.14374   0.87720   0.00000  Uiso   1.00
N364   N     0.74417   0.66538   0.90818   0.00000  Uiso   1.00
N365   N     0.51325   0.13095   0.05549   0.00000  Uiso   1.00
N366   N     0.96141   0.16544   0.77987   0.00000  Uiso   1.00
N367   N     0.68844   0.68708   0.81084   0.00000  Uiso   1.00
N368   N     0.45753   0.15265   0.95816   0.00000  Uiso   1.00
