data_job_06281
_audit_creation_date              2018-12-19
_audit_creation_method            'Materials Studio'
_symmetry_space_group_name_H-M    'P1'
_symmetry_Int_Tables_number       1
_symmetry_cell_setting            triclinic
loop_
_symmetry_equiv_pos_as_xyz
  x,y,z
_cell_length_a                    18.4702
_cell_length_b                    18.2984
_cell_length_c                    18.2229
_cell_angle_alpha                 102.2330
_cell_angle_beta                  102.1010
_cell_angle_gamma                 102.2040
loop_
_atom_site_label
_atom_site_type_symbol
_atom_site_fract_x
_atom_site_fract_y
_atom_site_fract_z
_atom_site_U_iso_or_equiv
_atom_site_adp_type
_atom_site_occupancy
C1     C     0.63735   0.18452   0.88158   0.00000  Uiso   1.00
C2     C     0.60236   0.18014   0.79665   0.00000  Uiso   1.00
C3     C     0.58192   0.11443   0.73439   0.00000  Uiso   1.00
C4     C     0.55079   0.12237   0.66117   0.00000  Uiso   1.00
C5     C     0.49806   0.10476   0.53089   0.00000  Uiso   1.00
C6     C     0.71251   0.24856   0.90791   0.00000  Uiso   1.00
C7     C     0.78468   0.24039   0.93920   0.00000  Uiso   1.00
C8     C     0.84628   0.30594   0.95965   0.00000  Uiso   1.00
C9     C     0.96455   0.39457   0.00216   0.00000  Uiso   1.00
C10    C     0.58422   0.21460   0.92694   0.00000  Uiso   1.00
C11    C     0.54853   0.17787   0.97426   0.00000  Uiso   1.00
C12    C     0.50212   0.21483   0.01075   0.00000  Uiso   1.00
C13    C     0.42120   0.25073   0.08281   0.00000  Uiso   1.00
C14    C     0.61842   0.31547   0.86227   0.00000  Uiso   1.00
C15    C     0.59208   0.25127   0.78617   0.00000  Uiso   1.00
C16    C     0.56097   0.25931   0.71303   0.00000  Uiso   1.00
C17    C     0.54048   0.19362   0.65067   0.00000  Uiso   1.00
C18    C     0.70223   0.31969   0.89743   0.00000  Uiso   1.00
C19    C     0.76374   0.38527   0.91784   0.00000  Uiso   1.00
C20    C     0.83598   0.37719   0.94915   0.00000  Uiso   1.00
C21    C     0.57393   0.28572   0.91646   0.00000  Uiso   1.00
C22    C     0.52758   0.32275   0.95289   0.00000  Uiso   1.00
C23    C     0.49182   0.28609   0.00025   0.00000  Uiso   1.00
H24    H     0.64536   0.12915   0.88974   0.00000  Uiso   1.00
H25    H     0.58989   0.05940   0.74252   0.00000  Uiso   1.00
H26    H     0.79262   0.18534   0.94731   0.00000  Uiso   1.00
H27    H     0.55650   0.12283   0.98236   0.00000  Uiso   1.00
H28    H     0.52388   0.01344   0.57467   0.00000  Uiso   1.00
H29    H     0.95134   0.27900   0.00651   0.00000  Uiso   1.00
H30    H     0.45344   0.14719   0.08041   0.00000  Uiso   1.00
H31    H     0.61042   0.37085   0.85411   0.00000  Uiso   1.00
H32    H     0.55302   0.31436   0.70493   0.00000  Uiso   1.00
H33    H     0.75576   0.44030   0.90973   0.00000  Uiso   1.00
H34    H     0.51963   0.37779   0.94477   0.00000  Uiso   1.00
H35    H     0.49396   0.22038   0.54416   0.00000  Uiso   1.00
H36    H     0.92143   0.48594   0.97601   0.00000  Uiso   1.00
H37    H     0.42352   0.35413   0.04990   0.00000  Uiso   1.00
O38    O     0.47182   0.07540   0.46192   0.00000  Uiso   1.00
O39    O     0.03263   0.42380   0.02850   0.00000  Uiso   1.00
O40    O     0.37939   0.25087   0.12544   0.00000  Uiso   1.00
N41    N     0.52470   0.06989   0.58797   0.00000  Uiso   1.00
N42    N     0.92436   0.31817   0.99170   0.00000  Uiso   1.00
N43    N     0.45887   0.19495   0.06081   0.00000  Uiso   1.00
N44    N     0.50860   0.18124   0.57155   0.00000  Uiso   1.00
N45    N     0.90826   0.42952   0.97528   0.00000  Uiso   1.00
N46    N     0.44277   0.30630   0.04439   0.00000  Uiso   1.00
C47    C     0.88114   0.63773   0.18425   0.00000  Uiso   1.00
C48    C     0.79732   0.60263   0.18013   0.00000  Uiso   1.00
C49    C     0.73584   0.58216   0.11436   0.00000  Uiso   1.00
C50    C     0.66358   0.55093   0.12258   0.00000  Uiso   1.00
C51    C     0.53500   0.49803   0.10533   0.00000  Uiso   1.00
C52    C     0.90747   0.71361   0.24862   0.00000  Uiso   1.00
C53    C     0.93860   0.78646   0.24043   0.00000  Uiso   1.00
C54    C     0.95908   0.84865   0.30631   0.00000  Uiso   1.00
C55    C     0.00156   0.96805   0.39540   0.00000  Uiso   1.00
C56    C     0.92563   0.58388   0.21415   0.00000  Uiso   1.00
C57    C     0.97204   0.54767   0.17700   0.00000  Uiso   1.00
C58    C     0.00783   0.50064   0.21387   0.00000  Uiso   1.00
C59    C     0.07849   0.41862   0.24944   0.00000  Uiso   1.00
C60    C     0.86217   0.61863   0.31581   0.00000  Uiso   1.00
C61    C     0.78702   0.59226   0.25159   0.00000  Uiso   1.00
C62    C     0.71484   0.56104   0.25991   0.00000  Uiso   1.00
C63    C     0.65326   0.54053   0.19416   0.00000  Uiso   1.00
C64    C     0.89717   0.70324   0.32008   0.00000  Uiso   1.00
C65    C     0.91761   0.76533   0.38598   0.00000  Uiso   1.00
C66    C     0.94876   0.83826   0.37790   0.00000  Uiso   1.00
C67    C     0.91532   0.57351   0.28561   0.00000  Uiso   1.00
C68    C     0.95105   0.52654   0.32255   0.00000  Uiso   1.00
C69    C     0.99750   0.49025   0.28545   0.00000  Uiso   1.00
H70    H     0.88917   0.64581   0.12862   0.00000  Uiso   1.00
H71    H     0.74383   0.59021   0.05907   0.00000  Uiso   1.00
H72    H     0.94658   0.79447   0.18513   0.00000  Uiso   1.00
H73    H     0.98001   0.55571   0.12170   0.00000  Uiso   1.00
H74    H     0.57816   0.52401   0.01348   0.00000  Uiso   1.00
H75    H     0.00568   0.95470   0.27929   0.00000  Uiso   1.00
H76    H     0.07617   0.45123   0.14554   0.00000  Uiso   1.00
H77    H     0.85415   0.61056   0.37144   0.00000  Uiso   1.00
H78    H     0.70689   0.55302   0.31522   0.00000  Uiso   1.00
H79    H     0.90963   0.75728   0.44127   0.00000  Uiso   1.00
H80    H     0.94306   0.51852   0.37784   0.00000  Uiso   1.00
H81    H     0.54817   0.49383   0.22138   0.00000  Uiso   1.00
H82    H     0.97569   0.92452   0.48718   0.00000  Uiso   1.00
H83    H     0.04618   0.42105   0.35343   0.00000  Uiso   1.00
O84    O     0.46692   0.47173   0.07607   0.00000  Uiso   1.00
O85    O     0.02782   0.03677   0.42479   0.00000  Uiso   1.00
O86    O     0.12031   0.37623   0.24932   0.00000  Uiso   1.00
N87    N     0.59131   0.52479   0.07013   0.00000  Uiso   1.00
N88    N     0.99101   0.92746   0.31863   0.00000  Uiso   1.00
N89    N     0.05693   0.45678   0.19360   0.00000  Uiso   1.00
N90    N     0.57517   0.50855   0.18199   0.00000  Uiso   1.00
N91    N     0.97487   0.91122   0.43050   0.00000  Uiso   1.00
N92    N     0.04079   0.44054   0.30546   0.00000  Uiso   1.00
C93    C     0.18517   0.88170   0.63821   0.00000  Uiso   1.00
C94    C     0.18072   0.79700   0.60279   0.00000  Uiso   1.00
C95    C     0.11564   0.73506   0.58239   0.00000  Uiso   1.00
C96    C     0.12338   0.66201   0.55083   0.00000  Uiso   1.00
C97    C     0.10578   0.53210   0.49750   0.00000  Uiso   1.00
C98    C     0.24877   0.90810   0.71420   0.00000  Uiso   1.00
C99    C     0.24091   0.93959   0.78747   0.00000  Uiso   1.00
C100   C     0.30595   0.96007   0.84969   0.00000  Uiso   1.00
C101   C     0.39401   0.00271   0.96932   0.00000  Uiso   1.00
C102   C     0.21477   0.92658   0.58410   0.00000  Uiso   1.00
C103   C     0.17834   0.97362   0.54798   0.00000  Uiso   1.00
C104   C     0.21477   0.00969   0.50068   0.00000  Uiso   1.00
C105   C     0.25004   0.08101   0.41830   0.00000  Uiso   1.00
C106   C     0.31467   0.86212   0.61844   0.00000  Uiso   1.00
C107   C     0.25105   0.78637   0.59205   0.00000  Uiso   1.00
C108   C     0.25890   0.71340   0.56051   0.00000  Uiso   1.00
C109   C     0.19384   0.65135   0.54006   0.00000  Uiso   1.00
C110   C     0.31910   0.89747   0.70346   0.00000  Uiso   1.00
C111   C     0.38418   0.91792   0.76559   0.00000  Uiso   1.00
C112   C     0.37642   0.94942   0.83893   0.00000  Uiso   1.00
C113   C     0.28511   0.91595   0.57335   0.00000  Uiso   1.00
C114   C     0.32161   0.95195   0.52610   0.00000  Uiso   1.00
C115   C     0.28523   0.99903   0.48992   0.00000  Uiso   1.00
H116   H     0.13042   0.88998   0.64658   0.00000  Uiso   1.00
H117   H     0.06121   0.74331   0.59072   0.00000  Uiso   1.00
H118   H     0.18647   0.94781   0.79576   0.00000  Uiso   1.00
H119   H     0.12391   0.98184   0.55631   0.00000  Uiso   1.00
H120   H     0.01552   0.57600   0.52407   0.00000  Uiso   1.00
H121   H     0.27964   0.00723   0.95641   0.00000  Uiso   1.00
H122   H     0.14771   0.07898   0.45149   0.00000  Uiso   1.00
H123   H     0.36943   0.85385   0.61008   0.00000  Uiso   1.00
H124   H     0.31334   0.70518   0.55221   0.00000  Uiso   1.00
H125   H     0.43860   0.90969   0.75725   0.00000  Uiso   1.00
H126   H     0.37603   0.94371   0.51780   0.00000  Uiso   1.00
H127   H     0.22015   0.54506   0.49282   0.00000  Uiso   1.00
H128   H     0.48427   0.97629   0.92517   0.00000  Uiso   1.00
H129   H     0.35235   0.04804   0.42024   0.00000  Uiso   1.00
O130   O     0.07663   0.46338   0.47106   0.00000  Uiso   1.00
O131   O     0.42315   0.02916   0.03828   0.00000  Uiso   1.00
O132   O     0.25006   0.12329   0.37582   0.00000  Uiso   1.00
N133   N     0.07137   0.58912   0.52464   0.00000  Uiso   1.00
N134   N     0.31830   0.99229   0.92886   0.00000  Uiso   1.00
N135   N     0.19497   0.05938   0.45681   0.00000  Uiso   1.00
N136   N     0.18149   0.57247   0.50783   0.00000  Uiso   1.00
N137   N     0.42842   0.97564   0.91204   0.00000  Uiso   1.00
N138   N     0.30509   0.04273   0.44000   0.00000  Uiso   1.00
C139   C     0.36265   0.81548   0.11842   0.00000  Uiso   1.00
C140   C     0.39764   0.81986   0.20335   0.00000  Uiso   1.00
C141   C     0.41808   0.88557   0.26561   0.00000  Uiso   1.00
C142   C     0.44921   0.87763   0.33883   0.00000  Uiso   1.00
C143   C     0.50194   0.89524   0.46911   0.00000  Uiso   1.00
C144   C     0.28749   0.75144   0.09209   0.00000  Uiso   1.00
C145   C     0.21532   0.75961   0.06080   0.00000  Uiso   1.00
C146   C     0.15372   0.69406   0.04035   0.00000  Uiso   1.00
C147   C     0.03545   0.60543   0.99784   0.00000  Uiso   1.00
C148   C     0.41578   0.78540   0.07306   0.00000  Uiso   1.00
C149   C     0.45147   0.82213   0.02574   0.00000  Uiso   1.00
C150   C     0.49788   0.78517   0.98925   0.00000  Uiso   1.00
C151   C     0.57880   0.74927   0.91719   0.00000  Uiso   1.00
C152   C     0.38158   0.68453   0.13773   0.00000  Uiso   1.00
C153   C     0.40792   0.74873   0.21383   0.00000  Uiso   1.00
C154   C     0.43903   0.74069   0.28697   0.00000  Uiso   1.00
C155   C     0.45952   0.80638   0.34933   0.00000  Uiso   1.00
C156   C     0.29777   0.68031   0.10257   0.00000  Uiso   1.00
C157   C     0.23626   0.61473   0.08216   0.00000  Uiso   1.00
C158   C     0.16402   0.62281   0.05085   0.00000  Uiso   1.00
C159   C     0.42607   0.71428   0.08354   0.00000  Uiso   1.00
C160   C     0.47242   0.67725   0.04711   0.00000  Uiso   1.00
C161   C     0.50818   0.71391   0.99975   0.00000  Uiso   1.00
H162   H     0.35464   0.87085   0.11026   0.00000  Uiso   1.00
H163   H     0.41011   0.94060   0.25748   0.00000  Uiso   1.00
H164   H     0.20738   0.81466   0.05269   0.00000  Uiso   1.00
H165   H     0.44350   0.87717   0.01764   0.00000  Uiso   1.00
H166   H     0.47612   0.98656   0.42533   0.00000  Uiso   1.00
H167   H     0.04866   0.72100   0.99349   0.00000  Uiso   1.00
H168   H     0.54656   0.85281   0.91959   0.00000  Uiso   1.00
H169   H     0.38958   0.62915   0.14589   0.00000  Uiso   1.00
H170   H     0.44698   0.68564   0.29507   0.00000  Uiso   1.00
H171   H     0.24424   0.55970   0.09027   0.00000  Uiso   1.00
H172   H     0.48037   0.62221   0.05523   0.00000  Uiso   1.00
H173   H     0.50604   0.77962   0.45584   0.00000  Uiso   1.00
H174   H     0.07857   0.51406   0.02399   0.00000  Uiso   1.00
H175   H     0.57648   0.64587   0.95010   0.00000  Uiso   1.00
O176   O     0.52818   0.92460   0.53808   0.00000  Uiso   1.00
O177   O     0.96737   0.57620   0.97151   0.00000  Uiso   1.00
O178   O     0.62061   0.74913   0.87456   0.00000  Uiso   1.00
N179   N     0.47530   0.93011   0.41203   0.00000  Uiso   1.00
N180   N     0.07564   0.68183   0.00830   0.00000  Uiso   1.00
N181   N     0.54113   0.80505   0.93919   0.00000  Uiso   1.00
N182   N     0.49140   0.81876   0.42845   0.00000  Uiso   1.00
N183   N     0.09174   0.57048   0.02472   0.00000  Uiso   1.00
N184   N     0.55723   0.69370   0.95561   0.00000  Uiso   1.00
C185   C     0.11886   0.36227   0.81575   0.00000  Uiso   1.00
C186   C     0.20268   0.39737   0.81987   0.00000  Uiso   1.00
C187   C     0.26416   0.41784   0.88564   0.00000  Uiso   1.00
C188   C     0.33642   0.44907   0.87742   0.00000  Uiso   1.00
C189   C     0.46500   0.50197   0.89468   0.00000  Uiso   1.00
C190   C     0.09253   0.28639   0.75138   0.00000  Uiso   1.00
C191   C     0.06140   0.21354   0.75957   0.00000  Uiso   1.00
C192   C     0.04092   0.15135   0.69369   0.00000  Uiso   1.00
C193   C     0.99844   0.03195   0.60460   0.00000  Uiso   1.00
C194   C     0.07437   0.41612   0.78585   0.00000  Uiso   1.00
C195   C     0.02796   0.45233   0.82300   0.00000  Uiso   1.00
C196   C     0.99217   0.49936   0.78613   0.00000  Uiso   1.00
C197   C     0.92151   0.58138   0.75056   0.00000  Uiso   1.00
C198   C     0.13783   0.38137   0.68419   0.00000  Uiso   1.00
C199   C     0.21298   0.40774   0.74841   0.00000  Uiso   1.00
C200   C     0.28516   0.43897   0.74009   0.00000  Uiso   1.00
C201   C     0.34674   0.45947   0.80584   0.00000  Uiso   1.00
C202   C     0.10283   0.29676   0.67992   0.00000  Uiso   1.00
C203   C     0.08239   0.23467   0.61402   0.00000  Uiso   1.00
C204   C     0.05124   0.16174   0.62210   0.00000  Uiso   1.00
C205   C     0.08468   0.42649   0.71439   0.00000  Uiso   1.00
C206   C     0.04895   0.47346   0.67745   0.00000  Uiso   1.00
C207   C     0.00250   0.50975   0.71455   0.00000  Uiso   1.00
H208   H     0.11083   0.35419   0.87138   0.00000  Uiso   1.00
H209   H     0.25617   0.40979   0.94093   0.00000  Uiso   1.00
H210   H     0.05342   0.20553   0.81487   0.00000  Uiso   1.00
H211   H     0.01999   0.44429   0.87830   0.00000  Uiso   1.00
H212   H     0.42184   0.47599   0.98651   0.00000  Uiso   1.00
H213   H     0.99432   0.04530   0.72071   0.00000  Uiso   1.00
H214   H     0.92383   0.54876   0.85446   0.00000  Uiso   1.00
H215   H     0.14585   0.38944   0.62856   0.00000  Uiso   1.00
H216   H     0.29311   0.44698   0.68478   0.00000  Uiso   1.00
H217   H     0.09037   0.24272   0.55873   0.00000  Uiso   1.00
H218   H     0.05694   0.48148   0.62216   0.00000  Uiso   1.00
H219   H     0.45183   0.50617   0.77862   0.00000  Uiso   1.00
H220   H     0.02431   0.07548   0.51282   0.00000  Uiso   1.00
H221   H     0.95382   0.57895   0.64657   0.00000  Uiso   1.00
O222   O     0.53308   0.52827   0.92393   0.00000  Uiso   1.00
O223   O     0.97218   0.96323   0.57521   0.00000  Uiso   1.00
O224   O     0.87969   0.62377   0.75068   0.00000  Uiso   1.00
N225   N     0.40869   0.47521   0.92987   0.00000  Uiso   1.00
N226   N     0.00899   0.07254   0.68137   0.00000  Uiso   1.00
N227   N     0.94307   0.54322   0.80640   0.00000  Uiso   1.00
N228   N     0.42483   0.49145   0.81801   0.00000  Uiso   1.00
N229   N     0.02513   0.08878   0.56950   0.00000  Uiso   1.00
N230   N     0.95921   0.55946   0.69454   0.00000  Uiso   1.00
C231   C     0.81483   0.11830   0.36179   0.00000  Uiso   1.00
C232   C     0.81928   0.20300   0.39721   0.00000  Uiso   1.00
C233   C     0.88436   0.26494   0.41761   0.00000  Uiso   1.00
C234   C     0.87662   0.33799   0.44917   0.00000  Uiso   1.00
C235   C     0.89422   0.46790   0.50250   0.00000  Uiso   1.00
C236   C     0.75123   0.09190   0.28580   0.00000  Uiso   1.00
C237   C     0.75909   0.06041   0.21253   0.00000  Uiso   1.00
C238   C     0.69405   0.03993   0.15031   0.00000  Uiso   1.00
C239   C     0.60599   0.99729   0.03068   0.00000  Uiso   1.00
C240   C     0.78523   0.07342   0.41590   0.00000  Uiso   1.00
C241   C     0.82166   0.02638   0.45202   0.00000  Uiso   1.00
C242   C     0.78523   0.99031   0.49932   0.00000  Uiso   1.00
C243   C     0.74996   0.91899   0.58170   0.00000  Uiso   1.00
C244   C     0.68533   0.13788   0.38156   0.00000  Uiso   1.00
C245   C     0.74895   0.21363   0.40795   0.00000  Uiso   1.00
C246   C     0.74110   0.28661   0.43949   0.00000  Uiso   1.00
C247   C     0.80616   0.34865   0.45994   0.00000  Uiso   1.00
C248   C     0.68090   0.10253   0.29654   0.00000  Uiso   1.00
C249   C     0.61582   0.08208   0.23441   0.00000  Uiso   1.00
C250   C     0.62358   0.05058   0.16107   0.00000  Uiso   1.00
C251   C     0.71489   0.08405   0.42665   0.00000  Uiso   1.00
C252   C     0.67839   0.04805   0.47390   0.00000  Uiso   1.00
C253   C     0.71477   0.00097   0.51008   0.00000  Uiso   1.00
H254   H     0.86958   0.11002   0.35342   0.00000  Uiso   1.00
H255   H     0.93879   0.25669   0.40928   0.00000  Uiso   1.00
H256   H     0.81353   0.05219   0.20424   0.00000  Uiso   1.00
H257   H     0.87609   0.01816   0.44369   0.00000  Uiso   1.00
H258   H     0.98448   0.42400   0.47593   0.00000  Uiso   1.00
H259   H     0.72036   0.99277   0.04359   0.00000  Uiso   1.00
H260   H     0.85229   0.92102   0.54851   0.00000  Uiso   1.00
H261   H     0.63057   0.14615   0.38992   0.00000  Uiso   1.00
H262   H     0.68666   0.29482   0.44779   0.00000  Uiso   1.00
H263   H     0.56140   0.09031   0.24275   0.00000  Uiso   1.00
H264   H     0.62397   0.05629   0.48220   0.00000  Uiso   1.00
H265   H     0.77985   0.45494   0.50718   0.00000  Uiso   1.00
H266   H     0.51573   0.02371   0.07483   0.00000  Uiso   1.00
H267   H     0.64765   0.95196   0.57976   0.00000  Uiso   1.00
O268   O     0.92337   0.53662   0.52894   0.00000  Uiso   1.00
O269   O     0.57685   0.97084   0.96172   0.00000  Uiso   1.00
O270   O     0.74994   0.87671   0.62418   0.00000  Uiso   1.00
N271   N     0.92863   0.41088   0.47536   0.00000  Uiso   1.00
N272   N     0.68170   0.00771   0.07114   0.00000  Uiso   1.00
N273   N     0.80503   0.94062   0.54319   0.00000  Uiso   1.00
N274   N     0.81851   0.42753   0.49217   0.00000  Uiso   1.00
N275   N     0.57158   0.02436   0.08796   0.00000  Uiso   1.00
N276   N     0.69491   0.95727   0.56000   0.00000  Uiso   1.00
