data_job_05602
_audit_creation_date              2018-12-19
_audit_creation_method            'Materials Studio'
_symmetry_space_group_name_H-M    'P1'
_symmetry_Int_Tables_number       1
_symmetry_cell_setting            triclinic
loop_
_symmetry_equiv_pos_as_xyz
  x,y,z
_cell_length_a                    14.7228
_cell_length_b                    14.3566
_cell_length_c                    12.3915
_cell_angle_alpha                 90.0000
_cell_angle_beta                  82.2466
_cell_angle_gamma                 90.0000
loop_
_atom_site_label
_atom_site_type_symbol
_atom_site_fract_x
_atom_site_fract_y
_atom_site_fract_z
_atom_site_U_iso_or_equiv
_atom_site_adp_type
_atom_site_occupancy
C1     C     0.32179   0.25433   0.58469   0.00000  Uiso   1.00
C2     C     0.30956   0.20433   0.69427   0.00000  Uiso   1.00
C3     C     0.37893   0.16338   0.74333   0.00000  Uiso   1.00
C4     C     0.35370   0.12107   0.84365   0.00000  Uiso   1.00
C5     C     0.34859   0.04360   0.00627   0.00000  Uiso   1.00
C6     C     0.25820   0.20530   0.51543   0.00000  Uiso   1.00
C7     C     0.28439   0.16516   0.41411   0.00000  Uiso   1.00
C8     C     0.21591   0.12368   0.36388   0.00000  Uiso   1.00
C9     C     0.13106   0.04776   0.24880   0.00000  Uiso   1.00
C10    C     0.28238   0.35176   0.60667   0.00000  Uiso   1.00
C11    C     0.32888   0.43479   0.58204   0.00000  Uiso   1.00
C12    C     0.28075   0.51662   0.60860   0.00000  Uiso   1.00
C13    C     0.23343   0.66812   0.63518   0.00000  Uiso   1.00
C14    C     0.15363   0.25203   0.67561   0.00000  Uiso   1.00
C15    C     0.21822   0.20309   0.74365   0.00000  Uiso   1.00
C16    C     0.19287   0.16084   0.84393   0.00000  Uiso   1.00
C17    C     0.26219   0.11983   0.89313   0.00000  Uiso   1.00
C18    C     0.16686   0.20405   0.56481   0.00000  Uiso   1.00
C19    C     0.09833   0.16263   0.51471   0.00000  Uiso   1.00
C20    C     0.12441   0.12243   0.41335   0.00000  Uiso   1.00
C21    C     0.19103   0.35052   0.65605   0.00000  Uiso   1.00
C22    C     0.14282   0.43225   0.68264   0.00000  Uiso   1.00
C23    C     0.18924   0.51537   0.65807   0.00000  Uiso   1.00
H24    H     0.39290   0.25529   0.54623   0.00000  Uiso   1.00
H25    H     0.44961   0.16435   0.70509   0.00000  Uiso   1.00
H26    H     0.35508   0.16614   0.37591   0.00000  Uiso   1.00
H27    H     0.39956   0.43572   0.54383   0.00000  Uiso   1.00
H28    H     0.47219   0.06294   0.90296   0.00000  Uiso   1.00
H29    H     0.27286   0.06675   0.20887   0.00000  Uiso   1.00
H30    H     0.36666   0.63521   0.56293   0.00000  Uiso   1.00
H31    H     0.08251   0.25106   0.71405   0.00000  Uiso   1.00
H32    H     0.12218   0.15989   0.88212   0.00000  Uiso   1.00
H33    H     0.02765   0.16168   0.55294   0.00000  Uiso   1.00
H34    H     0.07214   0.43126   0.72086   0.00000  Uiso   1.00
H35    H     0.20643   0.05932   0.04665   0.00000  Uiso   1.00
H36    H     0.00711   0.06313   0.35255   0.00000  Uiso   1.00
H37    H     0.10091   0.63159   0.70662   0.00000  Uiso   1.00
O38    O     0.37100   0.00120   0.08232   0.00000  Uiso   1.00
O39    O     0.10949   0.00622   0.17169   0.00000  Uiso   1.00
O40    O     0.23256   0.75202   0.63622   0.00000  Uiso   1.00
N41    N     0.40420   0.07462   0.91372   0.00000  Uiso   1.00
N42    N     0.21784   0.07817   0.26479   0.00000  Uiso   1.00
N43    N     0.30554   0.60963   0.59579   0.00000  Uiso   1.00
N44    N     0.26120   0.07267   0.99104   0.00000  Uiso   1.00
N45    N     0.07485   0.07622   0.34211   0.00000  Uiso   1.00
N46    N     0.16254   0.60768   0.67311   0.00000  Uiso   1.00
C47    C     0.67821   0.25433   0.91531   0.00000  Uiso   1.00
C48    C     0.69044   0.20433   0.80573   0.00000  Uiso   1.00
C49    C     0.62107   0.16338   0.75667   0.00000  Uiso   1.00
C50    C     0.64630   0.12107   0.65635   0.00000  Uiso   1.00
C51    C     0.65141   0.04360   0.49373   0.00000  Uiso   1.00
C52    C     0.74180   0.20530   0.98457   0.00000  Uiso   1.00
C53    C     0.71561   0.16516   0.08589   0.00000  Uiso   1.00
C54    C     0.78409   0.12368   0.13612   0.00000  Uiso   1.00
C55    C     0.86894   0.04776   0.25120   0.00000  Uiso   1.00
C56    C     0.71762   0.35176   0.89333   0.00000  Uiso   1.00
C57    C     0.67112   0.43479   0.91796   0.00000  Uiso   1.00
C58    C     0.71925   0.51662   0.89140   0.00000  Uiso   1.00
C59    C     0.76657   0.66812   0.86482   0.00000  Uiso   1.00
C60    C     0.84637   0.25203   0.82439   0.00000  Uiso   1.00
C61    C     0.78178   0.20309   0.75635   0.00000  Uiso   1.00
C62    C     0.80713   0.16084   0.65607   0.00000  Uiso   1.00
C63    C     0.73781   0.11983   0.60687   0.00000  Uiso   1.00
C64    C     0.83314   0.20405   0.93519   0.00000  Uiso   1.00
C65    C     0.90167   0.16263   0.98529   0.00000  Uiso   1.00
C66    C     0.87559   0.12243   0.08665   0.00000  Uiso   1.00
C67    C     0.80897   0.35052   0.84395   0.00000  Uiso   1.00
C68    C     0.85718   0.43225   0.81736   0.00000  Uiso   1.00
C69    C     0.81076   0.51537   0.84193   0.00000  Uiso   1.00
H70    H     0.60710   0.25529   0.95377   0.00000  Uiso   1.00
H71    H     0.55039   0.16435   0.79491   0.00000  Uiso   1.00
H72    H     0.64492   0.16614   0.12409   0.00000  Uiso   1.00
H73    H     0.60044   0.43572   0.95617   0.00000  Uiso   1.00
H74    H     0.52781   0.06294   0.59704   0.00000  Uiso   1.00
H75    H     0.72714   0.06675   0.29113   0.00000  Uiso   1.00
H76    H     0.63334   0.63521   0.93707   0.00000  Uiso   1.00
H77    H     0.91749   0.25106   0.78595   0.00000  Uiso   1.00
H78    H     0.87782   0.15989   0.61788   0.00000  Uiso   1.00
H79    H     0.97235   0.16168   0.94706   0.00000  Uiso   1.00
H80    H     0.92786   0.43126   0.77914   0.00000  Uiso   1.00
H81    H     0.79357   0.05932   0.45335   0.00000  Uiso   1.00
H82    H     0.99289   0.06313   0.14745   0.00000  Uiso   1.00
H83    H     0.89909   0.63159   0.79338   0.00000  Uiso   1.00
O84    O     0.62900   0.00120   0.41768   0.00000  Uiso   1.00
O85    O     0.89051   0.00622   0.32831   0.00000  Uiso   1.00
O86    O     0.76744   0.75202   0.86378   0.00000  Uiso   1.00
N87    N     0.59580   0.07462   0.58628   0.00000  Uiso   1.00
N88    N     0.78216   0.07817   0.23521   0.00000  Uiso   1.00
N89    N     0.69446   0.60963   0.90421   0.00000  Uiso   1.00
N90    N     0.73880   0.07267   0.50896   0.00000  Uiso   1.00
N91    N     0.92515   0.07622   0.15789   0.00000  Uiso   1.00
N92    N     0.83746   0.60768   0.82689   0.00000  Uiso   1.00
C93    C     0.67821   0.74567   0.41531   0.00000  Uiso   1.00
C94    C     0.69044   0.79567   0.30573   0.00000  Uiso   1.00
C95    C     0.62107   0.83662   0.25667   0.00000  Uiso   1.00
C96    C     0.64630   0.87893   0.15635   0.00000  Uiso   1.00
C97    C     0.65141   0.95640   0.99373   0.00000  Uiso   1.00
C98    C     0.74180   0.79470   0.48457   0.00000  Uiso   1.00
C99    C     0.71561   0.83484   0.58589   0.00000  Uiso   1.00
C100   C     0.78409   0.87632   0.63612   0.00000  Uiso   1.00
C101   C     0.86894   0.95224   0.75120   0.00000  Uiso   1.00
C102   C     0.71762   0.64824   0.39333   0.00000  Uiso   1.00
C103   C     0.67112   0.56521   0.41796   0.00000  Uiso   1.00
C104   C     0.71925   0.48338   0.39140   0.00000  Uiso   1.00
C105   C     0.76657   0.33188   0.36482   0.00000  Uiso   1.00
C106   C     0.84637   0.74797   0.32439   0.00000  Uiso   1.00
C107   C     0.78178   0.79691   0.25635   0.00000  Uiso   1.00
C108   C     0.80713   0.83916   0.15607   0.00000  Uiso   1.00
C109   C     0.73781   0.88017   0.10687   0.00000  Uiso   1.00
C110   C     0.83314   0.79595   0.43519   0.00000  Uiso   1.00
C111   C     0.90167   0.83737   0.48529   0.00000  Uiso   1.00
C112   C     0.87559   0.87757   0.58665   0.00000  Uiso   1.00
C113   C     0.80897   0.64948   0.34395   0.00000  Uiso   1.00
C114   C     0.85718   0.56775   0.31736   0.00000  Uiso   1.00
C115   C     0.81076   0.48463   0.34193   0.00000  Uiso   1.00
H116   H     0.60710   0.74471   0.45377   0.00000  Uiso   1.00
H117   H     0.55039   0.83565   0.29491   0.00000  Uiso   1.00
H118   H     0.64492   0.83386   0.62409   0.00000  Uiso   1.00
H119   H     0.60044   0.56428   0.45617   0.00000  Uiso   1.00
H120   H     0.52781   0.93706   0.09704   0.00000  Uiso   1.00
H121   H     0.72714   0.93325   0.79113   0.00000  Uiso   1.00
H122   H     0.63334   0.36479   0.43707   0.00000  Uiso   1.00
H123   H     0.91749   0.74894   0.28595   0.00000  Uiso   1.00
H124   H     0.87782   0.84011   0.11788   0.00000  Uiso   1.00
H125   H     0.97235   0.83832   0.44706   0.00000  Uiso   1.00
H126   H     0.92786   0.56874   0.27914   0.00000  Uiso   1.00
H127   H     0.79357   0.94068   0.95335   0.00000  Uiso   1.00
H128   H     0.99289   0.93687   0.64745   0.00000  Uiso   1.00
H129   H     0.89909   0.36841   0.29338   0.00000  Uiso   1.00
O130   O     0.62900   0.99880   0.91768   0.00000  Uiso   1.00
O131   O     0.89051   0.99378   0.82831   0.00000  Uiso   1.00
O132   O     0.76744   0.24798   0.36378   0.00000  Uiso   1.00
N133   N     0.59580   0.92538   0.08628   0.00000  Uiso   1.00
N134   N     0.78216   0.92183   0.73521   0.00000  Uiso   1.00
N135   N     0.69446   0.39037   0.40421   0.00000  Uiso   1.00
N136   N     0.73880   0.92733   0.00896   0.00000  Uiso   1.00
N137   N     0.92515   0.92378   0.65789   0.00000  Uiso   1.00
N138   N     0.83746   0.39232   0.32689   0.00000  Uiso   1.00
C139   C     0.32179   0.74567   0.08469   0.00000  Uiso   1.00
C140   C     0.30956   0.79567   0.19427   0.00000  Uiso   1.00
C141   C     0.37893   0.83662   0.24333   0.00000  Uiso   1.00
C142   C     0.35370   0.87893   0.34365   0.00000  Uiso   1.00
C143   C     0.34859   0.95640   0.50627   0.00000  Uiso   1.00
C144   C     0.25820   0.79470   0.01543   0.00000  Uiso   1.00
C145   C     0.28439   0.83484   0.91411   0.00000  Uiso   1.00
C146   C     0.21591   0.87632   0.86388   0.00000  Uiso   1.00
C147   C     0.13106   0.95224   0.74880   0.00000  Uiso   1.00
C148   C     0.28238   0.64824   0.10667   0.00000  Uiso   1.00
C149   C     0.32888   0.56521   0.08204   0.00000  Uiso   1.00
C150   C     0.28075   0.48338   0.10860   0.00000  Uiso   1.00
C151   C     0.23343   0.33188   0.13518   0.00000  Uiso   1.00
C152   C     0.15363   0.74797   0.17561   0.00000  Uiso   1.00
C153   C     0.21822   0.79691   0.24365   0.00000  Uiso   1.00
C154   C     0.19287   0.83916   0.34393   0.00000  Uiso   1.00
C155   C     0.26219   0.88017   0.39313   0.00000  Uiso   1.00
C156   C     0.16686   0.79595   0.06481   0.00000  Uiso   1.00
C157   C     0.09833   0.83737   0.01471   0.00000  Uiso   1.00
C158   C     0.12441   0.87757   0.91335   0.00000  Uiso   1.00
C159   C     0.19103   0.64948   0.15605   0.00000  Uiso   1.00
C160   C     0.14282   0.56775   0.18264   0.00000  Uiso   1.00
C161   C     0.18924   0.48463   0.15807   0.00000  Uiso   1.00
H162   H     0.39290   0.74471   0.04623   0.00000  Uiso   1.00
H163   H     0.44961   0.83565   0.20509   0.00000  Uiso   1.00
H164   H     0.35508   0.83386   0.87591   0.00000  Uiso   1.00
H165   H     0.39956   0.56428   0.04383   0.00000  Uiso   1.00
H166   H     0.47219   0.93706   0.40296   0.00000  Uiso   1.00
H167   H     0.27286   0.93325   0.70887   0.00000  Uiso   1.00
H168   H     0.36666   0.36479   0.06293   0.00000  Uiso   1.00
H169   H     0.08251   0.74894   0.21405   0.00000  Uiso   1.00
H170   H     0.12218   0.84011   0.38212   0.00000  Uiso   1.00
H171   H     0.02765   0.83832   0.05294   0.00000  Uiso   1.00
H172   H     0.07214   0.56874   0.22086   0.00000  Uiso   1.00
H173   H     0.20643   0.94068   0.54665   0.00000  Uiso   1.00
H174   H     0.00711   0.93687   0.85255   0.00000  Uiso   1.00
H175   H     0.10091   0.36841   0.20662   0.00000  Uiso   1.00
O176   O     0.37100   0.99880   0.58232   0.00000  Uiso   1.00
O177   O     0.10949   0.99378   0.67169   0.00000  Uiso   1.00
O178   O     0.23256   0.24798   0.13622   0.00000  Uiso   1.00
N179   N     0.40420   0.92538   0.41372   0.00000  Uiso   1.00
N180   N     0.21784   0.92183   0.76479   0.00000  Uiso   1.00
N181   N     0.30554   0.39037   0.09579   0.00000  Uiso   1.00
N182   N     0.26120   0.92733   0.49104   0.00000  Uiso   1.00
N183   N     0.07485   0.92378   0.84211   0.00000  Uiso   1.00
N184   N     0.16254   0.39232   0.17311   0.00000  Uiso   1.00
