data_job_05946
_audit_creation_date              2018-12-19
_audit_creation_method            'Materials Studio'
_symmetry_space_group_name_H-M    'P1'
_symmetry_Int_Tables_number       1
_symmetry_cell_setting            triclinic
loop_
_symmetry_equiv_pos_as_xyz
  x,y,z
_cell_length_a                    15.6869
_cell_length_b                    15.5677
_cell_length_c                    15.2838
_cell_angle_alpha                 81.9548
_cell_angle_beta                  82.0274
_cell_angle_gamma                 81.7184
loop_
_atom_site_label
_atom_site_type_symbol
_atom_site_fract_x
_atom_site_fract_y
_atom_site_fract_z
_atom_site_U_iso_or_equiv
_atom_site_adp_type
_atom_site_occupancy
C1     C     0.72557   0.97493   0.38223   0.00000  Uiso   1.00
C2     C     0.82421   0.96914   0.36488   0.00000  Uiso   1.00
C3     C     0.87089   0.01920   0.29785   0.00000  Uiso   1.00
C4     C     0.96073   0.00402   0.29306   0.00000  Uiso   1.00
C5     C     0.10757   0.00459   0.25695   0.00000  Uiso   1.00
C6     C     0.70393   0.88309   0.37908   0.00000  Uiso   1.00
C7     C     0.64946   0.86079   0.32398   0.00000  Uiso   1.00
C8     C     0.63804   0.77318   0.33116   0.00000  Uiso   1.00
C9     C     0.59808   0.64016   0.31712   0.00000  Uiso   1.00
C10    C     0.70103   0.99307   0.47860   0.00000  Uiso   1.00
C11    C     0.64411   0.06325   0.50720   0.00000  Uiso   1.00
C12    C     0.63023   0.06822   0.59817   0.00000  Uiso   1.00
C13    C     0.58578   0.10597   0.73866   0.00000  Uiso   1.00
C14    C     0.80211   0.85896   0.49294   0.00000  Uiso   1.00
C15    C     0.86578   0.90615   0.42502   0.00000  Uiso   1.00
C16    C     0.95558   0.89090   0.42033   0.00000  Uiso   1.00
C17    C     0.00238   0.94092   0.35331   0.00000  Uiso   1.00
C18    C     0.74550   0.82010   0.43920   0.00000  Uiso   1.00
C19    C     0.73415   0.73250   0.44647   0.00000  Uiso   1.00
C20    C     0.67969   0.71008   0.39139   0.00000  Uiso   1.00
C21    C     0.74260   0.93009   0.53873   0.00000  Uiso   1.00
C22    C     0.72880   0.93495   0.62968   0.00000  Uiso   1.00
C23    C     0.67188   0.00512   0.65841   0.00000  Uiso   1.00
H24    H     0.69320   0.02396   0.33542   0.00000  Uiso   1.00
H25    H     0.83870   0.06793   0.25132   0.00000  Uiso   1.00
H26    H     0.61730   0.90955   0.27746   0.00000  Uiso   1.00
H27    H     0.61195   0.11198   0.46065   0.00000  Uiso   1.00
H28    H     0.01834   0.08888   0.18459   0.00000  Uiso   1.00
H29    H     0.55148   0.75494   0.23972   0.00000  Uiso   1.00
H30    H     0.54020   0.18179   0.62600   0.00000  Uiso   1.00
H31    H     0.83448   0.80992   0.53976   0.00000  Uiso   1.00
H32    H     0.98773   0.84215   0.46688   0.00000  Uiso   1.00
H33    H     0.76633   0.68377   0.49301   0.00000  Uiso   1.00
H34    H     0.76098   0.88620   0.67619   0.00000  Uiso   1.00
H35    H     0.13930   0.90562   0.35953   0.00000  Uiso   1.00
H36    H     0.67243   0.57169   0.41467   0.00000  Uiso   1.00
H37    H     0.66117   0.99853   0.80095   0.00000  Uiso   1.00
O38    O     0.17708   0.02229   0.22041   0.00000  Uiso   1.00
O39    O     0.56457   0.58419   0.29276   0.00000  Uiso   1.00
O40    O     0.54978   0.14420   0.79954   0.00000  Uiso   1.00
N41    N     0.02577   0.04134   0.23577   0.00000  Uiso   1.00
N42    N     0.58930   0.72913   0.28731   0.00000  Uiso   1.00
N43    N     0.57874   0.12818   0.64845   0.00000  Uiso   1.00
N44    N     0.09086   0.94273   0.32991   0.00000  Uiso   1.00
N45    N     0.65439   0.63052   0.38145   0.00000  Uiso   1.00
N46    N     0.64383   0.02957   0.74259   0.00000  Uiso   1.00
C47    C     0.38339   0.72370   0.97029   0.00000  Uiso   1.00
C48    C     0.36583   0.82312   0.96473   0.00000  Uiso   1.00
C49    C     0.30003   0.87022   0.01556   0.00000  Uiso   1.00
C50    C     0.29481   0.96076   0.00045   0.00000  Uiso   1.00
C51    C     0.25863   0.10877   0.00146   0.00000  Uiso   1.00
C52    C     0.38088   0.70175   0.87660   0.00000  Uiso   1.00
C53    C     0.32772   0.64680   0.85334   0.00000  Uiso   1.00
C54    C     0.33518   0.63517   0.76405   0.00000  Uiso   1.00
C55    C     0.32239   0.59471   0.62825   0.00000  Uiso   1.00
C56    C     0.47729   0.69901   0.98922   0.00000  Uiso   1.00
C57    C     0.50521   0.64174   0.06064   0.00000  Uiso   1.00
C58    C     0.59384   0.62778   0.06616   0.00000  Uiso   1.00
C59    C     0.73075   0.58306   0.10523   0.00000  Uiso   1.00
C60    C     0.49114   0.80073   0.85308   0.00000  Uiso   1.00
C61    C     0.42436   0.86495   0.90106   0.00000  Uiso   1.00
C62    C     0.41925   0.95545   0.88587   0.00000  Uiso   1.00
C63    C     0.35345   0.00268   0.93668   0.00000  Uiso   1.00
C64    C     0.43940   0.74359   0.81293   0.00000  Uiso   1.00
C65    C     0.44695   0.73203   0.72365   0.00000  Uiso   1.00
C66    C     0.39382   0.67709   0.70026   0.00000  Uiso   1.00
C67    C     0.53582   0.74085   0.92556   0.00000  Uiso   1.00
C68    C     0.62443   0.72697   0.93096   0.00000  Uiso   1.00
C69    C     0.65248   0.66969   0.00238   0.00000  Uiso   1.00
H70    H     0.33782   0.69112   0.01986   0.00000  Uiso   1.00
H71    H     0.25474   0.83782   0.06482   0.00000  Uiso   1.00
H72    H     0.28244   0.61443   0.90263   0.00000  Uiso   1.00
H73    H     0.45989   0.60937   0.10990   0.00000  Uiso   1.00
H74    H     0.18842   0.01891   0.08657   0.00000  Uiso   1.00
H75    H     0.24685   0.54786   0.74458   0.00000  Uiso   1.00
H76    H     0.62105   0.53719   0.18166   0.00000  Uiso   1.00
H77    H     0.53672   0.83330   0.80351   0.00000  Uiso   1.00
H78    H     0.46455   0.98781   0.83660   0.00000  Uiso   1.00
H79    H     0.49225   0.76441   0.67440   0.00000  Uiso   1.00
H80    H     0.66970   0.75936   0.88168   0.00000  Uiso   1.00
H81    H     0.35871   0.14065   0.90133   0.00000  Uiso   1.00
H82    H     0.41714   0.66959   0.55934   0.00000  Uiso   1.00
H83    H     0.79134   0.65893   0.99642   0.00000  Uiso   1.00
O84    O     0.22249   0.17885   0.01960   0.00000  Uiso   1.00
O85    O     0.29916   0.56084   0.57093   0.00000  Uiso   1.00
O86    O     0.79010   0.54685   0.14437   0.00000  Uiso   1.00
N87    N     0.23842   0.02636   0.03844   0.00000  Uiso   1.00
N88    N     0.29303   0.58597   0.71870   0.00000  Uiso   1.00
N89    N     0.64288   0.57597   0.12732   0.00000  Uiso   1.00
N90    N     0.33005   0.09186   0.93877   0.00000  Uiso   1.00
N91    N     0.38467   0.65147   0.61903   0.00000  Uiso   1.00
N92    N     0.73451   0.64148   0.02765   0.00000  Uiso   1.00
C93    C     0.97661   0.38341   0.71881   0.00000  Uiso   1.00
C94    C     0.97087   0.36585   0.82001   0.00000  Uiso   1.00
C95    C     0.02060   0.29959   0.86801   0.00000  Uiso   1.00
C96    C     0.00553   0.29445   0.96017   0.00000  Uiso   1.00
C97    C     0.00609   0.25818   0.11084   0.00000  Uiso   1.00
C98    C     0.88552   0.38082   0.69591   0.00000  Uiso   1.00
C99    C     0.86349   0.32716   0.63956   0.00000  Uiso   1.00
C100   C     0.77657   0.33463   0.62724   0.00000  Uiso   1.00
C101   C     0.64464   0.32165   0.58519   0.00000  Uiso   1.00
C102   C     0.99450   0.47804   0.69416   0.00000  Uiso   1.00
C103   C     0.06409   0.50612   0.63632   0.00000  Uiso   1.00
C104   C     0.06891   0.59545   0.62251   0.00000  Uiso   1.00
C105   C     0.10618   0.73341   0.57775   0.00000  Uiso   1.00
C106   C     0.86141   0.49211   0.79711   0.00000  Uiso   1.00
C107   C     0.90829   0.42489   0.86254   0.00000  Uiso   1.00
C108   C     0.89314   0.41985   0.95465   0.00000  Uiso   1.00
C109   C     0.94284   0.35360   0.00278   0.00000  Uiso   1.00
C110   C     0.82294   0.43986   0.73844   0.00000  Uiso   1.00
C111   C     0.73603   0.44742   0.72619   0.00000  Uiso   1.00
C112   C     0.71388   0.39378   0.66984   0.00000  Uiso   1.00
C113   C     0.93192   0.53708   0.73669   0.00000  Uiso   1.00
C114   C     0.93663   0.62638   0.72296   0.00000  Uiso   1.00
C115   C     0.00621   0.65460   0.66512   0.00000  Uiso   1.00
H116   H     0.02533   0.33744   0.68569   0.00000  Uiso   1.00
H117   H     0.06901   0.25391   0.83507   0.00000  Uiso   1.00
H118   H     0.91193   0.28148   0.60665   0.00000  Uiso   1.00
H119   H     0.11250   0.46042   0.60342   0.00000  Uiso   1.00
H120   H     0.08983   0.18731   0.01945   0.00000  Uiso   1.00
H121   H     0.75862   0.24547   0.53778   0.00000  Uiso   1.00
H122   H     0.18156   0.62279   0.53097   0.00000  Uiso   1.00
H123   H     0.81269   0.53807   0.83022   0.00000  Uiso   1.00
H124   H     0.84471   0.46555   0.98754   0.00000  Uiso   1.00
H125   H     0.68763   0.49312   0.75911   0.00000  Uiso   1.00
H126   H     0.88819   0.67205   0.75588   0.00000  Uiso   1.00
H127   H     0.90777   0.35909   0.14319   0.00000  Uiso   1.00
H128   H     0.57656   0.41724   0.66152   0.00000  Uiso   1.00
H129   H     0.99950   0.79457   0.65471   0.00000  Uiso   1.00
O130   O     0.02369   0.22185   0.18220   0.00000  Uiso   1.00
O131   O     0.58916   0.29817   0.55025   0.00000  Uiso   1.00
O132   O     0.14403   0.79320   0.54132   0.00000  Uiso   1.00
N133   N     0.04260   0.23770   0.02698   0.00000  Uiso   1.00
N134   N     0.73294   0.29207   0.57666   0.00000  Uiso   1.00
N135   N     0.12833   0.64483   0.57027   0.00000  Uiso   1.00
N136   N     0.94464   0.33013   0.09357   0.00000  Uiso   1.00
N137   N     0.63498   0.38450   0.64324   0.00000  Uiso   1.00
N138   N     0.03037   0.73726   0.63686   0.00000  Uiso   1.00
C139   C     0.27443   0.02507   0.61777   0.00000  Uiso   1.00
C140   C     0.17579   0.03086   0.63512   0.00000  Uiso   1.00
C141   C     0.12911   0.98080   0.70215   0.00000  Uiso   1.00
C142   C     0.03927   0.99598   0.70694   0.00000  Uiso   1.00
C143   C     0.89243   0.99541   0.74305   0.00000  Uiso   1.00
C144   C     0.29607   0.11691   0.62092   0.00000  Uiso   1.00
C145   C     0.35054   0.13921   0.67602   0.00000  Uiso   1.00
C146   C     0.36196   0.22682   0.66884   0.00000  Uiso   1.00
C147   C     0.40192   0.35984   0.68288   0.00000  Uiso   1.00
C148   C     0.29897   0.00693   0.52140   0.00000  Uiso   1.00
C149   C     0.35589   0.93675   0.49280   0.00000  Uiso   1.00
C150   C     0.36977   0.93178   0.40183   0.00000  Uiso   1.00
C151   C     0.41422   0.89403   0.26134   0.00000  Uiso   1.00
C152   C     0.19789   0.14104   0.50706   0.00000  Uiso   1.00
C153   C     0.13422   0.09385   0.57498   0.00000  Uiso   1.00
C154   C     0.04442   0.10910   0.57967   0.00000  Uiso   1.00
C155   C     0.99762   0.05908   0.64669   0.00000  Uiso   1.00
C156   C     0.25450   0.17990   0.56080   0.00000  Uiso   1.00
C157   C     0.26585   0.26750   0.55353   0.00000  Uiso   1.00
C158   C     0.32031   0.28992   0.60861   0.00000  Uiso   1.00
C159   C     0.25740   0.06991   0.46127   0.00000  Uiso   1.00
C160   C     0.27120   0.06505   0.37032   0.00000  Uiso   1.00
C161   C     0.32812   0.99488   0.34159   0.00000  Uiso   1.00
H162   H     0.30680   0.97604   0.66458   0.00000  Uiso   1.00
H163   H     0.16130   0.93207   0.74868   0.00000  Uiso   1.00
H164   H     0.38270   0.09045   0.72254   0.00000  Uiso   1.00
H165   H     0.38805   0.88802   0.53935   0.00000  Uiso   1.00
H166   H     0.98166   0.91112   0.81541   0.00000  Uiso   1.00
H167   H     0.44852   0.24506   0.76028   0.00000  Uiso   1.00
H168   H     0.45980   0.81821   0.37400   0.00000  Uiso   1.00
H169   H     0.16552   0.19008   0.46024   0.00000  Uiso   1.00
H170   H     0.01227   0.15785   0.53312   0.00000  Uiso   1.00
H171   H     0.23367   0.31623   0.50699   0.00000  Uiso   1.00
H172   H     0.23902   0.11380   0.32381   0.00000  Uiso   1.00
H173   H     0.86070   0.09438   0.64047   0.00000  Uiso   1.00
H174   H     0.32757   0.42831   0.58533   0.00000  Uiso   1.00
H175   H     0.33883   0.00147   0.19905   0.00000  Uiso   1.00
O176   O     0.82292   0.97771   0.77959   0.00000  Uiso   1.00
O177   O     0.43543   0.41581   0.70724   0.00000  Uiso   1.00
O178   O     0.45022   0.85580   0.20046   0.00000  Uiso   1.00
N179   N     0.97423   0.95866   0.76423   0.00000  Uiso   1.00
N180   N     0.41070   0.27087   0.71269   0.00000  Uiso   1.00
N181   N     0.42126   0.87182   0.35155   0.00000  Uiso   1.00
N182   N     0.90914   0.05727   0.67009   0.00000  Uiso   1.00
N183   N     0.34561   0.36948   0.61855   0.00000  Uiso   1.00
N184   N     0.35617   0.97043   0.25741   0.00000  Uiso   1.00
C185   C     0.61662   0.27630   0.02971   0.00000  Uiso   1.00
C186   C     0.63417   0.17688   0.03527   0.00000  Uiso   1.00
C187   C     0.69997   0.12978   0.98444   0.00000  Uiso   1.00
C188   C     0.70519   0.03924   0.99955   0.00000  Uiso   1.00
C189   C     0.74137   0.89123   0.99854   0.00000  Uiso   1.00
C190   C     0.61913   0.29825   0.12340   0.00000  Uiso   1.00
C191   C     0.67228   0.35320   0.14666   0.00000  Uiso   1.00
C192   C     0.66482   0.36483   0.23595   0.00000  Uiso   1.00
C193   C     0.67761   0.40529   0.37175   0.00000  Uiso   1.00
C194   C     0.52271   0.30099   0.01078   0.00000  Uiso   1.00
C195   C     0.49479   0.35826   0.93936   0.00000  Uiso   1.00
C196   C     0.40616   0.37222   0.93384   0.00000  Uiso   1.00
C197   C     0.26925   0.41694   0.89477   0.00000  Uiso   1.00
C198   C     0.50886   0.19927   0.14692   0.00000  Uiso   1.00
C199   C     0.57564   0.13505   0.09894   0.00000  Uiso   1.00
C200   C     0.58075   0.04455   0.11413   0.00000  Uiso   1.00
C201   C     0.64655   0.99732   0.06332   0.00000  Uiso   1.00
C202   C     0.56060   0.25641   0.18707   0.00000  Uiso   1.00
C203   C     0.55305   0.26797   0.27635   0.00000  Uiso   1.00
C204   C     0.60618   0.32291   0.29974   0.00000  Uiso   1.00
C205   C     0.46418   0.25915   0.07444   0.00000  Uiso   1.00
C206   C     0.37557   0.27303   0.06904   0.00000  Uiso   1.00
C207   C     0.34752   0.33031   0.99762   0.00000  Uiso   1.00
H208   H     0.66218   0.30888   0.98014   0.00000  Uiso   1.00
H209   H     0.74526   0.16218   0.93518   0.00000  Uiso   1.00
H210   H     0.71756   0.38557   0.09737   0.00000  Uiso   1.00
H211   H     0.54011   0.39063   0.89010   0.00000  Uiso   1.00
H212   H     0.81158   0.98109   0.91343   0.00000  Uiso   1.00
H213   H     0.75315   0.45214   0.25542   0.00000  Uiso   1.00
H214   H     0.37895   0.46281   0.81834   0.00000  Uiso   1.00
H215   H     0.46328   0.16670   0.19649   0.00000  Uiso   1.00
H216   H     0.53545   0.01219   0.16340   0.00000  Uiso   1.00
H217   H     0.50775   0.23559   0.32560   0.00000  Uiso   1.00
H218   H     0.33030   0.24064   0.11832   0.00000  Uiso   1.00
H219   H     0.64129   0.85935   0.09867   0.00000  Uiso   1.00
H220   H     0.58286   0.33041   0.44066   0.00000  Uiso   1.00
H221   H     0.20866   0.34107   0.00358   0.00000  Uiso   1.00
O222   O     0.77751   0.82115   0.98040   0.00000  Uiso   1.00
O223   O     0.70084   0.43916   0.42907   0.00000  Uiso   1.00
O224   O     0.20990   0.45315   0.85563   0.00000  Uiso   1.00
N225   N     0.76158   0.97364   0.96156   0.00000  Uiso   1.00
N226   N     0.70697   0.41403   0.28130   0.00000  Uiso   1.00
N227   N     0.35712   0.42403   0.87268   0.00000  Uiso   1.00
N228   N     0.66995   0.90814   0.06123   0.00000  Uiso   1.00
N229   N     0.61533   0.34853   0.38097   0.00000  Uiso   1.00
N230   N     0.26549   0.35852   0.97235   0.00000  Uiso   1.00
C231   C     0.02339   0.61659   0.28119   0.00000  Uiso   1.00
C232   C     0.02913   0.63415   0.17999   0.00000  Uiso   1.00
C233   C     0.97940   0.70041   0.13199   0.00000  Uiso   1.00
C234   C     0.99448   0.70555   0.03983   0.00000  Uiso   1.00
C235   C     0.99391   0.74182   0.88916   0.00000  Uiso   1.00
C236   C     0.11448   0.61918   0.30409   0.00000  Uiso   1.00
C237   C     0.13651   0.67284   0.36044   0.00000  Uiso   1.00
C238   C     0.22343   0.66537   0.37276   0.00000  Uiso   1.00
C239   C     0.35536   0.67835   0.41481   0.00000  Uiso   1.00
C240   C     0.00550   0.52196   0.30584   0.00000  Uiso   1.00
C241   C     0.93591   0.49388   0.36368   0.00000  Uiso   1.00
C242   C     0.93110   0.40455   0.37749   0.00000  Uiso   1.00
C243   C     0.89382   0.26659   0.42225   0.00000  Uiso   1.00
C244   C     0.13859   0.50789   0.20289   0.00000  Uiso   1.00
C245   C     0.09171   0.57511   0.13746   0.00000  Uiso   1.00
C246   C     0.10686   0.58015   0.04535   0.00000  Uiso   1.00
C247   C     0.05716   0.64640   0.99722   0.00000  Uiso   1.00
C248   C     0.17706   0.56014   0.26156   0.00000  Uiso   1.00
C249   C     0.26397   0.55258   0.27381   0.00000  Uiso   1.00
C250   C     0.28612   0.60622   0.33016   0.00000  Uiso   1.00
C251   C     0.06808   0.46292   0.26331   0.00000  Uiso   1.00
C252   C     0.06337   0.37362   0.27704   0.00000  Uiso   1.00
C253   C     0.99379   0.34540   0.33488   0.00000  Uiso   1.00
H254   H     0.97467   0.66256   0.31431   0.00000  Uiso   1.00
H255   H     0.93099   0.74609   0.16493   0.00000  Uiso   1.00
H256   H     0.08807   0.71852   0.39335   0.00000  Uiso   1.00
H257   H     0.88750   0.53958   0.39658   0.00000  Uiso   1.00
H258   H     0.91017   0.81269   0.98055   0.00000  Uiso   1.00
H259   H     0.24138   0.75453   0.46222   0.00000  Uiso   1.00
H260   H     0.81844   0.37721   0.46903   0.00000  Uiso   1.00
H261   H     0.18731   0.46193   0.16978   0.00000  Uiso   1.00
H262   H     0.15529   0.53445   0.01246   0.00000  Uiso   1.00
H263   H     0.31237   0.50688   0.24089   0.00000  Uiso   1.00
H264   H     0.11181   0.32795   0.24412   0.00000  Uiso   1.00
H265   H     0.09223   0.64091   0.85681   0.00000  Uiso   1.00
H266   H     0.42344   0.58276   0.33848   0.00000  Uiso   1.00
H267   H     0.00050   0.20543   0.34529   0.00000  Uiso   1.00
O268   O     0.97631   0.77815   0.81780   0.00000  Uiso   1.00
O269   O     0.41084   0.70183   0.44975   0.00000  Uiso   1.00
O270   O     0.85597   0.20680   0.45868   0.00000  Uiso   1.00
N271   N     0.95740   0.76230   0.97302   0.00000  Uiso   1.00
N272   N     0.26706   0.70793   0.42334   0.00000  Uiso   1.00
N273   N     0.87167   0.35517   0.42973   0.00000  Uiso   1.00
N274   N     0.05536   0.66987   0.90643   0.00000  Uiso   1.00
N275   N     0.36502   0.61550   0.35676   0.00000  Uiso   1.00
N276   N     0.96963   0.26274   0.36314   0.00000  Uiso   1.00
