data_job_05381
_audit_creation_date              2018-12-19
_audit_creation_method            'Materials Studio'
_symmetry_space_group_name_H-M    'P1'
_symmetry_Int_Tables_number       1
_symmetry_cell_setting            triclinic
loop_
_symmetry_equiv_pos_as_xyz
  x,y,z
_cell_length_a                    12.5376
_cell_length_b                    15.8455
_cell_length_c                    32.4544
_cell_angle_alpha                 90.0000
_cell_angle_beta                  119.2211
_cell_angle_gamma                 90.0000
loop_
_atom_site_label
_atom_site_type_symbol
_atom_site_fract_x
_atom_site_fract_y
_atom_site_fract_z
_atom_site_U_iso_or_equiv
_atom_site_adp_type
_atom_site_occupancy
C1     C     0.97370   0.28587   0.88380   0.00000  Uiso   1.00
C2     C     0.10540   0.31711   0.90682   0.00000  Uiso   1.00
C3     C     0.20706   0.27386   0.94040   0.00000  Uiso   1.00
C4     C     0.31963   0.31321   0.95712   0.00000  Uiso   1.00
C5     C     0.52254   0.34962   0.99537   0.00000  Uiso   1.00
C6     C     0.90203   0.35364   0.89328   0.00000  Uiso   1.00
C7     C     0.83269   0.34109   0.91548   0.00000  Uiso   1.00
C8     C     0.77406   0.41118   0.92080   0.00000  Uiso   1.00
C9     C     0.66116   0.50429   0.93800   0.00000  Uiso   1.00
C10    C     0.92679   0.28745   0.83072   0.00000  Uiso   1.00
C11    C     0.87823   0.21925   0.80030   0.00000  Uiso   1.00
C12    C     0.84041   0.23362   0.75294   0.00000  Uiso   1.00
C13    C     0.76596   0.22396   0.67299   0.00000  Uiso   1.00
C14    C     0.99286   0.43267   0.85377   0.00000  Uiso   1.00
C15    C     0.11580   0.39686   0.89051   0.00000  Uiso   1.00
C16    C     0.22826   0.43628   0.90718   0.00000  Uiso   1.00
C17    C     0.33006   0.39309   0.94078   0.00000  Uiso   1.00
C18    C     0.91244   0.43338   0.87697   0.00000  Uiso   1.00
C19    C     0.85389   0.50351   0.88226   0.00000  Uiso   1.00
C20    C     0.78448   0.49107   0.90446   0.00000  Uiso   1.00
C21    C     0.93720   0.36719   0.81440   0.00000  Uiso   1.00
C22    C     0.89944   0.38167   0.76708   0.00000  Uiso   1.00
C23    C     0.85084   0.31351   0.73660   0.00000  Uiso   1.00
H24    H     0.96559   0.22379   0.89650   0.00000  Uiso   1.00
H25    H     0.19896   0.21215   0.95302   0.00000  Uiso   1.00
H26    H     0.82464   0.27937   0.92810   0.00000  Uiso   1.00
H27    H     0.87019   0.15755   0.81294   0.00000  Uiso   1.00
H28    H     0.46228   0.23443   0.00851   0.00000  Uiso   1.00
H29    H     0.67298   0.37616   0.95594   0.00000  Uiso   1.00
H30    H     0.76901   0.11928   0.71310   0.00000  Uiso   1.00
H31    H     0.00096   0.49475   0.84107   0.00000  Uiso   1.00
H32    H     0.23628   0.49799   0.89455   0.00000  Uiso   1.00
H33    H     0.86196   0.56520   0.86963   0.00000  Uiso   1.00
H34    H     0.90751   0.44339   0.75447   0.00000  Uiso   1.00
H35    H     0.49258   0.46643   0.96105   0.00000  Uiso   1.00
H36    H     0.70326   0.60815   0.90848   0.00000  Uiso   1.00
H37    H     0.79930   0.35128   0.66564   0.00000  Uiso   1.00
O38    O     0.63159   0.34768   0.02097   0.00000  Uiso   1.00
O39    O     0.59603   0.53361   0.95200   0.00000  Uiso   1.00
O40    O     0.72203   0.19660   0.63340   0.00000  Uiso   1.00
N41    N     0.43712   0.28858   0.98999   0.00000  Uiso   1.00
N42    N     0.69918   0.42109   0.94085   0.00000  Uiso   1.00
N43    N     0.78893   0.18093   0.71382   0.00000  Uiso   1.00
N44    N     0.45342   0.41342   0.96445   0.00000  Uiso   1.00
N45    N     0.71548   0.54592   0.91532   0.00000  Uiso   1.00
N46    N     0.80523   0.30577   0.68828   0.00000  Uiso   1.00
C47    C     0.47370   0.78587   0.88380   0.00000  Uiso   1.00
C48    C     0.60540   0.81711   0.90682   0.00000  Uiso   1.00
C49    C     0.70706   0.77386   0.94040   0.00000  Uiso   1.00
C50    C     0.81963   0.81321   0.95712   0.00000  Uiso   1.00
C51    C     0.02254   0.84962   0.99537   0.00000  Uiso   1.00
C52    C     0.40203   0.85364   0.89328   0.00000  Uiso   1.00
C53    C     0.33269   0.84109   0.91548   0.00000  Uiso   1.00
C54    C     0.27406   0.91118   0.92080   0.00000  Uiso   1.00
C55    C     0.16116   0.00429   0.93800   0.00000  Uiso   1.00
C56    C     0.42679   0.78745   0.83072   0.00000  Uiso   1.00
C57    C     0.37823   0.71925   0.80030   0.00000  Uiso   1.00
C58    C     0.34041   0.73362   0.75294   0.00000  Uiso   1.00
C59    C     0.26596   0.72396   0.67299   0.00000  Uiso   1.00
C60    C     0.49286   0.93267   0.85377   0.00000  Uiso   1.00
C61    C     0.61580   0.89686   0.89051   0.00000  Uiso   1.00
C62    C     0.72826   0.93628   0.90718   0.00000  Uiso   1.00
C63    C     0.83006   0.89309   0.94078   0.00000  Uiso   1.00
C64    C     0.41244   0.93338   0.87697   0.00000  Uiso   1.00
C65    C     0.35389   0.00351   0.88226   0.00000  Uiso   1.00
C66    C     0.28448   0.99107   0.90446   0.00000  Uiso   1.00
C67    C     0.43720   0.86719   0.81440   0.00000  Uiso   1.00
C68    C     0.39944   0.88167   0.76708   0.00000  Uiso   1.00
C69    C     0.35084   0.81351   0.73660   0.00000  Uiso   1.00
H70    H     0.46559   0.72379   0.89650   0.00000  Uiso   1.00
H71    H     0.69896   0.71215   0.95302   0.00000  Uiso   1.00
H72    H     0.32464   0.77937   0.92810   0.00000  Uiso   1.00
H73    H     0.37019   0.65755   0.81294   0.00000  Uiso   1.00
H74    H     0.96228   0.73443   0.00851   0.00000  Uiso   1.00
H75    H     0.17298   0.87616   0.95594   0.00000  Uiso   1.00
H76    H     0.26901   0.61928   0.71310   0.00000  Uiso   1.00
H77    H     0.50096   0.99475   0.84107   0.00000  Uiso   1.00
H78    H     0.73628   0.99799   0.89455   0.00000  Uiso   1.00
H79    H     0.36196   0.06520   0.86963   0.00000  Uiso   1.00
H80    H     0.40751   0.94339   0.75447   0.00000  Uiso   1.00
H81    H     0.99258   0.96643   0.96105   0.00000  Uiso   1.00
H82    H     0.20326   0.10815   0.90848   0.00000  Uiso   1.00
H83    H     0.29930   0.85128   0.66564   0.00000  Uiso   1.00
O84    O     0.13159   0.84768   0.02097   0.00000  Uiso   1.00
O85    O     0.09603   0.03361   0.95200   0.00000  Uiso   1.00
O86    O     0.22203   0.69660   0.63340   0.00000  Uiso   1.00
N87    N     0.93712   0.78858   0.98999   0.00000  Uiso   1.00
N88    N     0.19918   0.92109   0.94085   0.00000  Uiso   1.00
N89    N     0.28893   0.68093   0.71382   0.00000  Uiso   1.00
N90    N     0.95342   0.91342   0.96445   0.00000  Uiso   1.00
N91    N     0.21548   0.04592   0.91532   0.00000  Uiso   1.00
N92    N     0.30523   0.80577   0.68828   0.00000  Uiso   1.00
C93    C     0.02630   0.28587   0.61620   0.00000  Uiso   1.00
C94    C     0.89460   0.31711   0.59318   0.00000  Uiso   1.00
C95    C     0.79294   0.27386   0.55960   0.00000  Uiso   1.00
C96    C     0.68037   0.31321   0.54288   0.00000  Uiso   1.00
C97    C     0.47746   0.34962   0.50463   0.00000  Uiso   1.00
C98    C     0.09797   0.35364   0.60672   0.00000  Uiso   1.00
C99    C     0.16731   0.34109   0.58452   0.00000  Uiso   1.00
C100   C     0.22594   0.41118   0.57920   0.00000  Uiso   1.00
C101   C     0.33884   0.50429   0.56200   0.00000  Uiso   1.00
C102   C     0.07321   0.28745   0.66928   0.00000  Uiso   1.00
C103   C     0.12177   0.21925   0.69970   0.00000  Uiso   1.00
C104   C     0.15959   0.23362   0.74706   0.00000  Uiso   1.00
C105   C     0.23404   0.22396   0.82701   0.00000  Uiso   1.00
C106   C     0.00714   0.43267   0.64623   0.00000  Uiso   1.00
C107   C     0.88420   0.39686   0.60949   0.00000  Uiso   1.00
C108   C     0.77174   0.43628   0.59282   0.00000  Uiso   1.00
C109   C     0.66994   0.39309   0.55922   0.00000  Uiso   1.00
C110   C     0.08756   0.43338   0.62303   0.00000  Uiso   1.00
C111   C     0.14611   0.50351   0.61774   0.00000  Uiso   1.00
C112   C     0.21552   0.49107   0.59554   0.00000  Uiso   1.00
C113   C     0.06280   0.36719   0.68560   0.00000  Uiso   1.00
C114   C     0.10056   0.38167   0.73292   0.00000  Uiso   1.00
C115   C     0.14916   0.31351   0.76340   0.00000  Uiso   1.00
H116   H     0.03441   0.22379   0.60350   0.00000  Uiso   1.00
H117   H     0.80104   0.21215   0.54698   0.00000  Uiso   1.00
H118   H     0.17536   0.27937   0.57190   0.00000  Uiso   1.00
H119   H     0.12981   0.15755   0.68706   0.00000  Uiso   1.00
H120   H     0.53772   0.23443   0.49149   0.00000  Uiso   1.00
H121   H     0.32702   0.37616   0.54406   0.00000  Uiso   1.00
H122   H     0.23099   0.11928   0.78690   0.00000  Uiso   1.00
H123   H     0.99904   0.49475   0.65893   0.00000  Uiso   1.00
H124   H     0.76372   0.49799   0.60545   0.00000  Uiso   1.00
H125   H     0.13804   0.56520   0.63037   0.00000  Uiso   1.00
H126   H     0.09249   0.44339   0.74553   0.00000  Uiso   1.00
H127   H     0.50742   0.46643   0.53895   0.00000  Uiso   1.00
H128   H     0.29674   0.60815   0.59152   0.00000  Uiso   1.00
H129   H     0.20070   0.35128   0.83436   0.00000  Uiso   1.00
O130   O     0.36841   0.34768   0.47903   0.00000  Uiso   1.00
O131   O     0.40397   0.53361   0.54800   0.00000  Uiso   1.00
O132   O     0.27797   0.19660   0.86660   0.00000  Uiso   1.00
N133   N     0.56288   0.28858   0.51001   0.00000  Uiso   1.00
N134   N     0.30082   0.42109   0.55915   0.00000  Uiso   1.00
N135   N     0.21107   0.18093   0.78618   0.00000  Uiso   1.00
N136   N     0.54658   0.41342   0.53555   0.00000  Uiso   1.00
N137   N     0.28452   0.54592   0.58468   0.00000  Uiso   1.00
N138   N     0.19477   0.30577   0.81172   0.00000  Uiso   1.00
C139   C     0.52630   0.78587   0.61620   0.00000  Uiso   1.00
C140   C     0.39460   0.81711   0.59318   0.00000  Uiso   1.00
C141   C     0.29294   0.77386   0.55960   0.00000  Uiso   1.00
C142   C     0.18037   0.81321   0.54288   0.00000  Uiso   1.00
C143   C     0.97746   0.84962   0.50463   0.00000  Uiso   1.00
C144   C     0.59797   0.85364   0.60672   0.00000  Uiso   1.00
C145   C     0.66731   0.84109   0.58452   0.00000  Uiso   1.00
C146   C     0.72594   0.91118   0.57920   0.00000  Uiso   1.00
C147   C     0.83884   0.00429   0.56200   0.00000  Uiso   1.00
C148   C     0.57321   0.78745   0.66928   0.00000  Uiso   1.00
C149   C     0.62177   0.71925   0.69970   0.00000  Uiso   1.00
C150   C     0.65959   0.73362   0.74706   0.00000  Uiso   1.00
C151   C     0.73404   0.72396   0.82701   0.00000  Uiso   1.00
C152   C     0.50714   0.93267   0.64623   0.00000  Uiso   1.00
C153   C     0.38420   0.89686   0.60949   0.00000  Uiso   1.00
C154   C     0.27174   0.93628   0.59282   0.00000  Uiso   1.00
C155   C     0.16994   0.89309   0.55922   0.00000  Uiso   1.00
C156   C     0.58756   0.93338   0.62303   0.00000  Uiso   1.00
C157   C     0.64611   0.00351   0.61774   0.00000  Uiso   1.00
C158   C     0.71552   0.99107   0.59554   0.00000  Uiso   1.00
C159   C     0.56280   0.86719   0.68560   0.00000  Uiso   1.00
C160   C     0.60056   0.88167   0.73292   0.00000  Uiso   1.00
C161   C     0.64916   0.81351   0.76340   0.00000  Uiso   1.00
H162   H     0.53441   0.72379   0.60350   0.00000  Uiso   1.00
H163   H     0.30104   0.71215   0.54698   0.00000  Uiso   1.00
H164   H     0.67536   0.77937   0.57190   0.00000  Uiso   1.00
H165   H     0.62981   0.65755   0.68706   0.00000  Uiso   1.00
H166   H     0.03772   0.73443   0.49149   0.00000  Uiso   1.00
H167   H     0.82702   0.87616   0.54406   0.00000  Uiso   1.00
H168   H     0.73099   0.61928   0.78690   0.00000  Uiso   1.00
H169   H     0.49904   0.99475   0.65893   0.00000  Uiso   1.00
H170   H     0.26372   0.99799   0.60545   0.00000  Uiso   1.00
H171   H     0.63804   0.06520   0.63037   0.00000  Uiso   1.00
H172   H     0.59249   0.94339   0.74553   0.00000  Uiso   1.00
H173   H     0.00742   0.96643   0.53895   0.00000  Uiso   1.00
H174   H     0.79674   0.10815   0.59152   0.00000  Uiso   1.00
H175   H     0.70070   0.85128   0.83436   0.00000  Uiso   1.00
O176   O     0.86841   0.84768   0.47903   0.00000  Uiso   1.00
O177   O     0.90397   0.03361   0.54800   0.00000  Uiso   1.00
O178   O     0.77797   0.69660   0.86660   0.00000  Uiso   1.00
N179   N     0.06288   0.78858   0.51001   0.00000  Uiso   1.00
N180   N     0.80082   0.92109   0.55915   0.00000  Uiso   1.00
N181   N     0.71107   0.68093   0.78618   0.00000  Uiso   1.00
N182   N     0.04658   0.91342   0.53555   0.00000  Uiso   1.00
N183   N     0.78452   0.04592   0.58468   0.00000  Uiso   1.00
N184   N     0.69477   0.80577   0.81172   0.00000  Uiso   1.00
C185   C     0.02630   0.71413   0.11620   0.00000  Uiso   1.00
C186   C     0.89460   0.68289   0.09318   0.00000  Uiso   1.00
C187   C     0.79294   0.72614   0.05960   0.00000  Uiso   1.00
C188   C     0.68037   0.68679   0.04288   0.00000  Uiso   1.00
C189   C     0.47746   0.65038   0.00463   0.00000  Uiso   1.00
C190   C     0.09797   0.64636   0.10672   0.00000  Uiso   1.00
C191   C     0.16731   0.65891   0.08452   0.00000  Uiso   1.00
C192   C     0.22594   0.58882   0.07920   0.00000  Uiso   1.00
C193   C     0.33884   0.49571   0.06200   0.00000  Uiso   1.00
C194   C     0.07321   0.71255   0.16928   0.00000  Uiso   1.00
C195   C     0.12177   0.78075   0.19970   0.00000  Uiso   1.00
C196   C     0.15959   0.76638   0.24706   0.00000  Uiso   1.00
C197   C     0.23404   0.77604   0.32701   0.00000  Uiso   1.00
C198   C     0.00714   0.56733   0.14623   0.00000  Uiso   1.00
C199   C     0.88420   0.60314   0.10949   0.00000  Uiso   1.00
C200   C     0.77174   0.56372   0.09282   0.00000  Uiso   1.00
C201   C     0.66994   0.60691   0.05922   0.00000  Uiso   1.00
C202   C     0.08756   0.56662   0.12303   0.00000  Uiso   1.00
C203   C     0.14611   0.49649   0.11774   0.00000  Uiso   1.00
C204   C     0.21552   0.50893   0.09554   0.00000  Uiso   1.00
C205   C     0.06280   0.63281   0.18560   0.00000  Uiso   1.00
C206   C     0.10056   0.61833   0.23292   0.00000  Uiso   1.00
C207   C     0.14916   0.68649   0.26340   0.00000  Uiso   1.00
H208   H     0.03441   0.77621   0.10350   0.00000  Uiso   1.00
H209   H     0.80104   0.78785   0.04698   0.00000  Uiso   1.00
H210   H     0.17536   0.72063   0.07190   0.00000  Uiso   1.00
H211   H     0.12981   0.84245   0.18706   0.00000  Uiso   1.00
H212   H     0.53772   0.76557   0.99149   0.00000  Uiso   1.00
H213   H     0.32702   0.62384   0.04406   0.00000  Uiso   1.00
H214   H     0.23099   0.88072   0.28690   0.00000  Uiso   1.00
H215   H     0.99904   0.50525   0.15893   0.00000  Uiso   1.00
H216   H     0.76372   0.50201   0.10545   0.00000  Uiso   1.00
H217   H     0.13804   0.43480   0.13037   0.00000  Uiso   1.00
H218   H     0.09249   0.55661   0.24553   0.00000  Uiso   1.00
H219   H     0.50742   0.53357   0.03895   0.00000  Uiso   1.00
H220   H     0.29674   0.39185   0.09152   0.00000  Uiso   1.00
H221   H     0.20070   0.64872   0.33436   0.00000  Uiso   1.00
O222   O     0.36841   0.65232   0.97903   0.00000  Uiso   1.00
O223   O     0.40397   0.46639   0.04800   0.00000  Uiso   1.00
O224   O     0.27797   0.80340   0.36660   0.00000  Uiso   1.00
N225   N     0.56288   0.71142   0.01001   0.00000  Uiso   1.00
N226   N     0.30082   0.57891   0.05915   0.00000  Uiso   1.00
N227   N     0.21107   0.81907   0.28618   0.00000  Uiso   1.00
N228   N     0.54658   0.58658   0.03555   0.00000  Uiso   1.00
N229   N     0.28452   0.45408   0.08468   0.00000  Uiso   1.00
N230   N     0.19477   0.69423   0.31172   0.00000  Uiso   1.00
C231   C     0.52630   0.21413   0.11620   0.00000  Uiso   1.00
C232   C     0.39460   0.18289   0.09318   0.00000  Uiso   1.00
C233   C     0.29294   0.22614   0.05960   0.00000  Uiso   1.00
C234   C     0.18037   0.18679   0.04288   0.00000  Uiso   1.00
C235   C     0.97746   0.15038   0.00463   0.00000  Uiso   1.00
C236   C     0.59797   0.14636   0.10672   0.00000  Uiso   1.00
C237   C     0.66731   0.15891   0.08452   0.00000  Uiso   1.00
C238   C     0.72594   0.08882   0.07920   0.00000  Uiso   1.00
C239   C     0.83884   0.99571   0.06200   0.00000  Uiso   1.00
C240   C     0.57321   0.21255   0.16928   0.00000  Uiso   1.00
C241   C     0.62177   0.28075   0.19970   0.00000  Uiso   1.00
C242   C     0.65959   0.26638   0.24706   0.00000  Uiso   1.00
C243   C     0.73404   0.27604   0.32701   0.00000  Uiso   1.00
C244   C     0.50714   0.06733   0.14623   0.00000  Uiso   1.00
C245   C     0.38420   0.10314   0.10949   0.00000  Uiso   1.00
C246   C     0.27174   0.06372   0.09282   0.00000  Uiso   1.00
C247   C     0.16994   0.10691   0.05922   0.00000  Uiso   1.00
C248   C     0.58756   0.06662   0.12303   0.00000  Uiso   1.00
C249   C     0.64611   0.99649   0.11774   0.00000  Uiso   1.00
C250   C     0.71552   0.00893   0.09554   0.00000  Uiso   1.00
C251   C     0.56280   0.13281   0.18560   0.00000  Uiso   1.00
C252   C     0.60056   0.11833   0.23292   0.00000  Uiso   1.00
C253   C     0.64916   0.18649   0.26340   0.00000  Uiso   1.00
H254   H     0.53441   0.27621   0.10350   0.00000  Uiso   1.00
H255   H     0.30104   0.28785   0.04698   0.00000  Uiso   1.00
H256   H     0.67536   0.22063   0.07190   0.00000  Uiso   1.00
H257   H     0.62981   0.34245   0.18706   0.00000  Uiso   1.00
H258   H     0.03772   0.26557   0.99149   0.00000  Uiso   1.00
H259   H     0.82702   0.12384   0.04406   0.00000  Uiso   1.00
H260   H     0.73099   0.38072   0.28690   0.00000  Uiso   1.00
H261   H     0.49904   0.00525   0.15893   0.00000  Uiso   1.00
H262   H     0.26372   0.00201   0.10545   0.00000  Uiso   1.00
H263   H     0.63804   0.93480   0.13037   0.00000  Uiso   1.00
H264   H     0.59249   0.05661   0.24553   0.00000  Uiso   1.00
H265   H     0.00742   0.03357   0.03895   0.00000  Uiso   1.00
H266   H     0.79674   0.89185   0.09152   0.00000  Uiso   1.00
H267   H     0.70070   0.14872   0.33436   0.00000  Uiso   1.00
O268   O     0.86841   0.15232   0.97903   0.00000  Uiso   1.00
O269   O     0.90397   0.96639   0.04800   0.00000  Uiso   1.00
O270   O     0.77797   0.30340   0.36660   0.00000  Uiso   1.00
N271   N     0.06288   0.21142   0.01001   0.00000  Uiso   1.00
N272   N     0.80082   0.07891   0.05915   0.00000  Uiso   1.00
N273   N     0.71107   0.31907   0.28618   0.00000  Uiso   1.00
N274   N     0.04658   0.08658   0.03555   0.00000  Uiso   1.00
N275   N     0.78452   0.95408   0.08468   0.00000  Uiso   1.00
N276   N     0.69477   0.19423   0.31172   0.00000  Uiso   1.00
C277   C     0.97370   0.71413   0.38380   0.00000  Uiso   1.00
C278   C     0.10540   0.68289   0.40682   0.00000  Uiso   1.00
C279   C     0.20706   0.72614   0.44040   0.00000  Uiso   1.00
C280   C     0.31963   0.68679   0.45712   0.00000  Uiso   1.00
C281   C     0.52254   0.65038   0.49537   0.00000  Uiso   1.00
C282   C     0.90203   0.64636   0.39328   0.00000  Uiso   1.00
C283   C     0.83269   0.65891   0.41548   0.00000  Uiso   1.00
C284   C     0.77406   0.58882   0.42080   0.00000  Uiso   1.00
C285   C     0.66116   0.49571   0.43800   0.00000  Uiso   1.00
C286   C     0.92679   0.71255   0.33072   0.00000  Uiso   1.00
C287   C     0.87823   0.78075   0.30030   0.00000  Uiso   1.00
C288   C     0.84041   0.76638   0.25294   0.00000  Uiso   1.00
C289   C     0.76596   0.77604   0.17299   0.00000  Uiso   1.00
C290   C     0.99286   0.56733   0.35377   0.00000  Uiso   1.00
C291   C     0.11580   0.60314   0.39051   0.00000  Uiso   1.00
C292   C     0.22826   0.56372   0.40718   0.00000  Uiso   1.00
C293   C     0.33006   0.60691   0.44078   0.00000  Uiso   1.00
C294   C     0.91244   0.56662   0.37697   0.00000  Uiso   1.00
C295   C     0.85389   0.49649   0.38226   0.00000  Uiso   1.00
C296   C     0.78448   0.50893   0.40446   0.00000  Uiso   1.00
C297   C     0.93720   0.63281   0.31440   0.00000  Uiso   1.00
C298   C     0.89944   0.61833   0.26708   0.00000  Uiso   1.00
C299   C     0.85084   0.68649   0.23660   0.00000  Uiso   1.00
H300   H     0.96559   0.77621   0.39650   0.00000  Uiso   1.00
H301   H     0.19896   0.78785   0.45302   0.00000  Uiso   1.00
H302   H     0.82464   0.72063   0.42810   0.00000  Uiso   1.00
H303   H     0.87019   0.84245   0.31294   0.00000  Uiso   1.00
H304   H     0.46228   0.76557   0.50851   0.00000  Uiso   1.00
H305   H     0.67298   0.62384   0.45594   0.00000  Uiso   1.00
H306   H     0.76901   0.88072   0.21310   0.00000  Uiso   1.00
H307   H     0.00096   0.50525   0.34107   0.00000  Uiso   1.00
H308   H     0.23628   0.50201   0.39455   0.00000  Uiso   1.00
H309   H     0.86196   0.43480   0.36963   0.00000  Uiso   1.00
H310   H     0.90751   0.55661   0.25447   0.00000  Uiso   1.00
H311   H     0.49258   0.53357   0.46105   0.00000  Uiso   1.00
H312   H     0.70326   0.39185   0.40848   0.00000  Uiso   1.00
H313   H     0.79930   0.64872   0.16564   0.00000  Uiso   1.00
O314   O     0.63159   0.65232   0.52097   0.00000  Uiso   1.00
O315   O     0.59603   0.46639   0.45200   0.00000  Uiso   1.00
O316   O     0.72203   0.80340   0.13340   0.00000  Uiso   1.00
N317   N     0.43712   0.71142   0.48999   0.00000  Uiso   1.00
N318   N     0.69918   0.57891   0.44085   0.00000  Uiso   1.00
N319   N     0.78893   0.81907   0.21382   0.00000  Uiso   1.00
N320   N     0.45342   0.58658   0.46445   0.00000  Uiso   1.00
N321   N     0.71548   0.45408   0.41532   0.00000  Uiso   1.00
N322   N     0.80523   0.69423   0.18828   0.00000  Uiso   1.00
C323   C     0.47370   0.21413   0.38380   0.00000  Uiso   1.00
C324   C     0.60540   0.18289   0.40682   0.00000  Uiso   1.00
C325   C     0.70706   0.22614   0.44040   0.00000  Uiso   1.00
C326   C     0.81963   0.18679   0.45712   0.00000  Uiso   1.00
C327   C     0.02254   0.15038   0.49537   0.00000  Uiso   1.00
C328   C     0.40203   0.14636   0.39328   0.00000  Uiso   1.00
C329   C     0.33269   0.15891   0.41548   0.00000  Uiso   1.00
C330   C     0.27406   0.08882   0.42080   0.00000  Uiso   1.00
C331   C     0.16116   0.99571   0.43800   0.00000  Uiso   1.00
C332   C     0.42679   0.21255   0.33072   0.00000  Uiso   1.00
C333   C     0.37823   0.28075   0.30030   0.00000  Uiso   1.00
C334   C     0.34041   0.26638   0.25294   0.00000  Uiso   1.00
C335   C     0.26596   0.27604   0.17299   0.00000  Uiso   1.00
C336   C     0.49286   0.06733   0.35377   0.00000  Uiso   1.00
C337   C     0.61580   0.10314   0.39051   0.00000  Uiso   1.00
C338   C     0.72826   0.06372   0.40718   0.00000  Uiso   1.00
C339   C     0.83006   0.10691   0.44078   0.00000  Uiso   1.00
C340   C     0.41244   0.06662   0.37697   0.00000  Uiso   1.00
C341   C     0.35389   0.99649   0.38226   0.00000  Uiso   1.00
C342   C     0.28448   0.00893   0.40446   0.00000  Uiso   1.00
C343   C     0.43720   0.13281   0.31440   0.00000  Uiso   1.00
C344   C     0.39944   0.11833   0.26708   0.00000  Uiso   1.00
C345   C     0.35084   0.18649   0.23660   0.00000  Uiso   1.00
H346   H     0.46559   0.27621   0.39650   0.00000  Uiso   1.00
H347   H     0.69896   0.28785   0.45302   0.00000  Uiso   1.00
H348   H     0.32464   0.22063   0.42810   0.00000  Uiso   1.00
H349   H     0.37019   0.34245   0.31294   0.00000  Uiso   1.00
H350   H     0.96228   0.26557   0.50851   0.00000  Uiso   1.00
H351   H     0.17298   0.12384   0.45594   0.00000  Uiso   1.00
H352   H     0.26901   0.38072   0.21310   0.00000  Uiso   1.00
H353   H     0.50096   0.00525   0.34107   0.00000  Uiso   1.00
H354   H     0.73628   0.00201   0.39455   0.00000  Uiso   1.00
H355   H     0.36196   0.93480   0.36963   0.00000  Uiso   1.00
H356   H     0.40751   0.05661   0.25447   0.00000  Uiso   1.00
H357   H     0.99258   0.03357   0.46105   0.00000  Uiso   1.00
H358   H     0.20326   0.89185   0.40848   0.00000  Uiso   1.00
H359   H     0.29930   0.14872   0.16564   0.00000  Uiso   1.00
O360   O     0.13159   0.15232   0.52097   0.00000  Uiso   1.00
O361   O     0.09603   0.96639   0.45200   0.00000  Uiso   1.00
O362   O     0.22203   0.30340   0.13340   0.00000  Uiso   1.00
N363   N     0.93712   0.21142   0.48999   0.00000  Uiso   1.00
N364   N     0.19918   0.07891   0.44085   0.00000  Uiso   1.00
N365   N     0.28893   0.31907   0.21382   0.00000  Uiso   1.00
N366   N     0.95342   0.08658   0.46445   0.00000  Uiso   1.00
N367   N     0.21548   0.95408   0.41532   0.00000  Uiso   1.00
N368   N     0.30523   0.19423   0.18828   0.00000  Uiso   1.00
