data_job_06604
_audit_creation_date              2018-12-19
_audit_creation_method            'Materials Studio'
_symmetry_space_group_name_H-M    'P1'
_symmetry_Int_Tables_number       1
_symmetry_cell_setting            triclinic
loop_
_symmetry_equiv_pos_as_xyz
  x,y,z
_cell_length_a                    19.0897
_cell_length_b                    21.5016
_cell_length_c                    23.7600
_cell_angle_alpha                 100.4628
_cell_angle_beta                  107.5320
_cell_angle_gamma                 113.8109
loop_
_atom_site_label
_atom_site_type_symbol
_atom_site_fract_x
_atom_site_fract_y
_atom_site_fract_z
_atom_site_U_iso_or_equiv
_atom_site_adp_type
_atom_site_occupancy
C1     C     0.76012   0.24223   0.49480   0.00000  Uiso   1.00
C2     C     0.75453   0.23033   0.42799   0.00000  Uiso   1.00
C3     C     0.78181   0.28430   0.40285   0.00000  Uiso   1.00
C4     C     0.77109   0.26228   0.34077   0.00000  Uiso   1.00
C5     C     0.76795   0.25495   0.24243   0.00000  Uiso   1.00
C6     C     0.67053   0.19757   0.48805   0.00000  Uiso   1.00
C7     C     0.62721   0.22400   0.51342   0.00000  Uiso   1.00
C8     C     0.54578   0.17440   0.50192   0.00000  Uiso   1.00
C9     C     0.41226   0.11621   0.49686   0.00000  Uiso   1.00
C10    C     0.80900   0.20623   0.52345   0.00000  Uiso   1.00
C11    C     0.88208   0.23994   0.57861   0.00000  Uiso   1.00
C12    C     0.91723   0.19763   0.59692   0.00000  Uiso   1.00
C13    C     0.99869   0.15288   0.64683   0.00000  Uiso   1.00
C14    C     0.69256   0.10715   0.42926   0.00000  Uiso   1.00
C15    C     0.71783   0.15695   0.39239   0.00000  Uiso   1.00
C16    C     0.70707   0.13484   0.33033   0.00000  Uiso   1.00
C17    C     0.73433   0.18877   0.30511   0.00000  Uiso   1.00
C18    C     0.63384   0.12420   0.45245   0.00000  Uiso   1.00
C19    C     0.55246   0.07454   0.44091   0.00000  Uiso   1.00
C20    C     0.50902   0.10090   0.46625   0.00000  Uiso   1.00
C21    C     0.77231   0.13286   0.48785   0.00000  Uiso   1.00
C22    C     0.80734   0.09048   0.50609   0.00000  Uiso   1.00
C23    C     0.88046   0.12412   0.56125   0.00000  Uiso   1.00
H24    H     0.78869   0.29936   0.52252   0.00000  Uiso   1.00
H25    H     0.81020   0.34108   0.43041   0.00000  Uiso   1.00
H26    H     0.65562   0.28079   0.54097   0.00000  Uiso   1.00
H27    H     0.91046   0.29672   0.60614   0.00000  Uiso   1.00
H28    H     0.81784   0.35497   0.31259   0.00000  Uiso   1.00
H29    H     0.49192   0.22784   0.54573   0.00000  Uiso   1.00
H30    H     0.02929   0.26144   0.68316   0.00000  Uiso   1.00
H31    H     0.66399   0.05002   0.40154   0.00000  Uiso   1.00
H32    H     0.67867   0.07806   0.30280   0.00000  Uiso   1.00
H33    H     0.52409   0.01777   0.41336   0.00000  Uiso   1.00
H34    H     0.77893   0.03370   0.47853   0.00000  Uiso   1.00
H35    H     0.71108   0.14149   0.20901   0.00000  Uiso   1.00
H36    H     0.38516   0.01436   0.44216   0.00000  Uiso   1.00
H37    H     0.92253   0.04796   0.57958   0.00000  Uiso   1.00
O38    O     0.77634   0.27117   0.19802   0.00000  Uiso   1.00
O39    O     0.34875   0.10438   0.50390   0.00000  Uiso   1.00
O40    O     0.05377   0.14847   0.68420   0.00000  Uiso   1.00
N41    N     0.79072   0.30088   0.30177   0.00000  Uiso   1.00
N42    N     0.48599   0.18203   0.51973   0.00000  Uiso   1.00
N43    N     0.98838   0.21344   0.64822   0.00000  Uiso   1.00
N44    N     0.73327   0.18601   0.24603   0.00000  Uiso   1.00
N45    N     0.42855   0.06716   0.46400   0.00000  Uiso   1.00
N46    N     0.93094   0.09857   0.59249   0.00000  Uiso   1.00
C47    C     0.31129   0.54021   0.62100   0.00000  Uiso   1.00
C48    C     0.24577   0.52724   0.55793   0.00000  Uiso   1.00
C49    C     0.15993   0.49820   0.54136   0.00000  Uiso   1.00
C50    C     0.11054   0.49067   0.48142   0.00000  Uiso   1.00
C51    C     0.00343   0.46734   0.38983   0.00000  Uiso   1.00
C52    C     0.35618   0.49914   0.60583   0.00000  Uiso   1.00
C53    C     0.36318   0.44647   0.62954   0.00000  Uiso   1.00
C54    C     0.40673   0.41529   0.60993   0.00000  Uiso   1.00
C55    C     0.47108   0.34837   0.59274   0.00000  Uiso   1.00
C56    C     0.37642   0.62048   0.64649   0.00000  Uiso   1.00
C57    C     0.40045   0.66983   0.70440   0.00000  Uiso   1.00
C58    C     0.46106   0.74081   0.71904   0.00000  Uiso   1.00
C59    C     0.55683   0.86228   0.76499   0.00000  Uiso   1.00
C60    C     0.37621   0.57850   0.54402   0.00000  Uiso   1.00
C61    C     0.28104   0.54804   0.51612   0.00000  Uiso   1.00
C62    C     0.23176   0.54055   0.45619   0.00000  Uiso   1.00
C63    C     0.14586   0.51150   0.43953   0.00000  Uiso   1.00
C64    C     0.39144   0.51993   0.56402   0.00000  Uiso   1.00
C65    C     0.43500   0.48883   0.54437   0.00000  Uiso   1.00
C66    C     0.44206   0.43613   0.56804   0.00000  Uiso   1.00
C67    C     0.41168   0.64127   0.60468   0.00000  Uiso   1.00
C68    C     0.47227   0.71219   0.61923   0.00000  Uiso   1.00
C69    C     0.49638   0.76164   0.67715   0.00000  Uiso   1.00
H70    H     0.28384   0.52402   0.65356   0.00000  Uiso   1.00
H71    H     0.13267   0.48210   0.57373   0.00000  Uiso   1.00
H72    H     0.33589   0.43039   0.66190   0.00000  Uiso   1.00
H73    H     0.37315   0.65372   0.73675   0.00000  Uiso   1.00
H74    H     0.98061   0.44478   0.46677   0.00000  Uiso   1.00
H75    H     0.40913   0.33577   0.65271   0.00000  Uiso   1.00
H76    H     0.48770   0.80668   0.81054   0.00000  Uiso   1.00
H77    H     0.40367   0.59469   0.51147   0.00000  Uiso   1.00
H78    H     0.25906   0.55665   0.42384   0.00000  Uiso   1.00
H79    H     0.46228   0.50494   0.51202   0.00000  Uiso   1.00
H80    H     0.49954   0.72826   0.58686   0.00000  Uiso   1.00
H81    H     0.08320   0.50528   0.34512   0.00000  Uiso   1.00
H82    H     0.51172   0.39627   0.53106   0.00000  Uiso   1.00
H83    H     0.59029   0.86719   0.68889   0.00000  Uiso   1.00
O84    O     0.93461   0.44871   0.35086   0.00000  Uiso   1.00
O85    O     0.49683   0.30570   0.59481   0.00000  Uiso   1.00
O86    O     0.59991   0.92353   0.80188   0.00000  Uiso   1.00
N87    N     0.02460   0.46425   0.45017   0.00000  Uiso   1.00
N88    N     0.42523   0.36232   0.62401   0.00000  Uiso   1.00
N89    N     0.49870   0.80259   0.77157   0.00000  Uiso   1.00
N90    N     0.07980   0.49681   0.38471   0.00000  Uiso   1.00
N91    N     0.48043   0.39488   0.55855   0.00000  Uiso   1.00
N92    N     0.55391   0.83515   0.70611   0.00000  Uiso   1.00
C93    C     0.97129   0.71464   0.51356   0.00000  Uiso   1.00
C94    C     0.94343   0.69137   0.44243   0.00000  Uiso   1.00
C95    C     0.96295   0.64683   0.40764   0.00000  Uiso   1.00
C96    C     0.93146   0.63194   0.34307   0.00000  Uiso   1.00
C97    C     0.89572   0.59148   0.23700   0.00000  Uiso   1.00
C98    C     0.01750   0.79731   0.53808   0.00000  Uiso   1.00
C99    C     0.09930   0.84184   0.58370   0.00000  Uiso   1.00
C100   C     0.13016   0.91612   0.59965   0.00000  Uiso   1.00
C101   C     0.20940   0.04014   0.64210   0.00000  Uiso   1.00
C102   C     0.89082   0.69139   0.52399   0.00000  Uiso   1.00
C103   C     0.86612   0.64688   0.55779   0.00000  Uiso   1.00
C104   C     0.79033   0.63201   0.56189   0.00000  Uiso   1.00
C105   C     0.67289   0.59157   0.58247   0.00000  Uiso   1.00
C106   C     0.88064   0.76739   0.46078   0.00000  Uiso   1.00
C107   C     0.89419   0.72003   0.41377   0.00000  Uiso   1.00
C108   C     0.86266   0.70520   0.34924   0.00000  Uiso   1.00
C109   C     0.88213   0.66064   0.31435   0.00000  Uiso   1.00
C110   C     0.96827   0.82597   0.50941   0.00000  Uiso   1.00
C111   C     0.99901   0.90020   0.52530   0.00000  Uiso   1.00
C112   C     0.08083   0.94483   0.57094   0.00000  Uiso   1.00
C113   C     0.84159   0.72005   0.49532   0.00000  Uiso   1.00
C114   C     0.76582   0.70524   0.49939   0.00000  Uiso   1.00
C115   C     0.74100   0.66071   0.53318   0.00000  Uiso   1.00
H116   H     0.00962   0.69234   0.53588   0.00000  Uiso   1.00
H117   H     0.00106   0.62467   0.42984   0.00000  Uiso   1.00
H118   H     0.13738   0.81965   0.60588   0.00000  Uiso   1.00
H119   H     0.90424   0.62472   0.57996   0.00000  Uiso   1.00
H120   H     0.96988   0.56231   0.29964   0.00000  Uiso   1.00
H121   H     0.25731   0.97343   0.67084   0.00000  Uiso   1.00
H122   H     0.76568   0.56238   0.61620   0.00000  Uiso   1.00
H123   H     0.84231   0.78970   0.43846   0.00000  Uiso   1.00
H124   H     0.82456   0.72738   0.32707   0.00000  Uiso   1.00
H125   H     0.96089   0.92236   0.50311   0.00000  Uiso   1.00
H126   H     0.72774   0.72743   0.47720   0.00000  Uiso   1.00
H127   H     0.82663   0.64567   0.21623   0.00000  Uiso   1.00
H128   H     0.11406   0.05679   0.58744   0.00000  Uiso   1.00
H129   H     0.62243   0.64574   0.53279   0.00000  Uiso   1.00
O130   O     0.88962   0.56126   0.18642   0.00000  Uiso   1.00
O131   O     0.26672   0.10062   0.67343   0.00000  Uiso   1.00
O132   O     0.62170   0.56134   0.60174   0.00000  Uiso   1.00
N133   N     0.93858   0.59047   0.29529   0.00000  Uiso   1.00
N134   N     0.20733   0.97484   0.64234   0.00000  Uiso   1.00
N135   N     0.74770   0.59056   0.59126   0.00000  Uiso   1.00
N136   N     0.86150   0.63533   0.25041   0.00000  Uiso   1.00
N137   N     0.13024   0.01970   0.59746   0.00000  Uiso   1.00
N138   N     0.67061   0.63542   0.54638   0.00000  Uiso   1.00
C139   C     0.91952   0.69752   0.93183   0.00000  Uiso   1.00
C140   C     0.85805   0.69439   0.87148   0.00000  Uiso   1.00
C141   C     0.86095   0.75365   0.85470   0.00000  Uiso   1.00
C142   C     0.79898   0.73942   0.79752   0.00000  Uiso   1.00
C143   C     0.71308   0.74536   0.70972   0.00000  Uiso   1.00
C144   C     0.95543   0.65030   0.91116   0.00000  Uiso   1.00
C145   C     0.04021   0.67248   0.92777   0.00000  Uiso   1.00
C146   C     0.06020   0.62112   0.90400   0.00000  Uiso   1.00
C147   C     0.12548   0.55859   0.87785   0.00000  Uiso   1.00
C148   C     0.86612   0.65833   0.96369   0.00000  Uiso   1.00
C149   C     0.87582   0.68726   0.02447   0.00000  Uiso   1.00
C150   C     0.82064   0.64265   0.04493   0.00000  Uiso   1.00
C151   C     0.74726   0.59259   0.10034   0.00000  Uiso   1.00
C152   C     0.80429   0.56687   0.86010   0.00000  Uiso   1.00
C153   C     0.79546   0.62343   0.83252   0.00000  Uiso   1.00
C154   C     0.73346   0.60911   0.77534   0.00000  Uiso   1.00
C155   C     0.73627   0.66833   0.75849   0.00000  Uiso   1.00
C156   C     0.89284   0.57934   0.87220   0.00000  Uiso   1.00
C157   C     0.91271   0.52793   0.84841   0.00000  Uiso   1.00
C158   C     0.99750   0.55003   0.86497   0.00000  Uiso   1.00
C159   C     0.80353   0.58737   0.92473   0.00000  Uiso   1.00
C160   C     0.74833   0.54271   0.94510   0.00000  Uiso   1.00
C161   C     0.75794   0.57156   0.00590   0.00000  Uiso   1.00
H162   H     0.96825   0.75276   0.96216   0.00000  Uiso   1.00
H163   H     0.90941   0.80856   0.88486   0.00000  Uiso   1.00
H164   H     0.08863   0.72740   0.95792   0.00000  Uiso   1.00
H165   H     0.92427   0.74217   0.05460   0.00000  Uiso   1.00
H166   H     0.81658   0.83912   0.78197   0.00000  Uiso   1.00
H167   H     0.19448   0.66798   0.93604   0.00000  Uiso   1.00
H168   H     0.84790   0.69914   0.13991   0.00000  Uiso   1.00
H169   H     0.75556   0.51162   0.82977   0.00000  Uiso   1.00
H170   H     0.68504   0.55419   0.74520   0.00000  Uiso   1.00
H171   H     0.86426   0.47302   0.81826   0.00000  Uiso   1.00
H172   H     0.69990   0.48780   0.91494   0.00000  Uiso   1.00
H173   H     0.63448   0.63266   0.66862   0.00000  Uiso   1.00
H174   H     0.01238   0.46152   0.82269   0.00000  Uiso   1.00
H175   H     0.66579   0.49268   0.02656   0.00000  Uiso   1.00
O176   O     0.68299   0.76824   0.67205   0.00000  Uiso   1.00
O177   O     0.17878   0.54371   0.87419   0.00000  Uiso   1.00
O178   O     0.72407   0.58459   0.14166   0.00000  Uiso   1.00
N179   N     0.78339   0.78469   0.76691   0.00000  Uiso   1.00
N180   N     0.13670   0.62469   0.91094   0.00000  Uiso   1.00
N181   N     0.81269   0.65381   0.10155   0.00000  Uiso   1.00
N182   N     0.68540   0.67360   0.70591   0.00000  Uiso   1.00
N183   N     0.03872   0.51359   0.84995   0.00000  Uiso   1.00
N184   N     0.71470   0.54272   0.04056   0.00000  Uiso   1.00
C185   C     0.89690   0.06940   0.14659   0.00000  Uiso   1.00
C186   C     0.87411   0.04648   0.07610   0.00000  Uiso   1.00
C187   C     0.90342   0.00848   0.04499   0.00000  Uiso   1.00
C188   C     0.87514   0.99268   0.98037   0.00000  Uiso   1.00
C189   C     0.84818   0.95379   0.87582   0.00000  Uiso   1.00
C190   C     0.81366   0.03741   0.15309   0.00000  Uiso   1.00
C191   C     0.79216   0.99180   0.18673   0.00000  Uiso   1.00
C192   C     0.71300   0.96838   0.18692   0.00000  Uiso   1.00
C193   C     0.59222   0.91546   0.20194   0.00000  Uiso   1.00
C194   C     0.93277   0.15138   0.16984   0.00000  Uiso   1.00
C195   C     0.01140   0.20160   0.21757   0.00000  Uiso   1.00
C196   C     0.03251   0.27414   0.23187   0.00000  Uiso   1.00
C197   C     0.09667   0.39818   0.27290   0.00000  Uiso   1.00
C198   C     0.79455   0.10892   0.08715   0.00000  Uiso   1.00
C199   C     0.81852   0.06794   0.04381   0.00000  Uiso   1.00
C200   C     0.79019   0.05220   0.97922   0.00000  Uiso   1.00
C201   C     0.81945   0.01418   0.94802   0.00000  Uiso   1.00
C202   C     0.75808   0.05888   0.12081   0.00000  Uiso   1.00
C203   C     0.67893   0.03552   0.12095   0.00000  Uiso   1.00
C204   C     0.65731   0.98988   0.15457   0.00000  Uiso   1.00
C205   C     0.87718   0.17285   0.13755   0.00000  Uiso   1.00
C206   C     0.89817   0.24532   0.15179   0.00000  Uiso   1.00
C207   C     0.97682   0.29564   0.19952   0.00000  Uiso   1.00
H208   H     0.94017   0.05269   0.17173   0.00000  Uiso   1.00
H209   H     0.94643   0.99187   0.07000   0.00000  Uiso   1.00
H210   H     0.83519   0.97521   0.21172   0.00000  Uiso   1.00
H211   H     0.05440   0.18497   0.24255   0.00000  Uiso   1.00
H212   H     0.92883   0.93389   0.94296   0.00000  Uiso   1.00
H213   H     0.69430   0.89876   0.24180   0.00000  Uiso   1.00
H214   H     0.15654   0.34110   0.30681   0.00000  Uiso   1.00
H215   H     0.75127   0.12563   0.06201   0.00000  Uiso   1.00
H216   H     0.74717   0.06882   0.95424   0.00000  Uiso   1.00
H217   H     0.63593   0.05215   0.09596   0.00000  Uiso   1.00
H218   H     0.85514   0.26191   0.12679   0.00000  Uiso   1.00
H219   H     0.76710   0.99633   0.84901   0.00000  Uiso   1.00
H220   H     0.53257   0.96121   0.14785   0.00000  Uiso   1.00
H221   H     0.99481   0.40355   0.21286   0.00000  Uiso   1.00
O222   O     0.84866   0.92640   0.82708   0.00000  Uiso   1.00
O223   O     0.54096   0.88033   0.21915   0.00000  Uiso   1.00
O224   O     0.14742   0.46066   0.30444   0.00000  Uiso   1.00
N225   N     0.89135   0.95639   0.93564   0.00000  Uiso   1.00
N226   N     0.67206   0.92355   0.21503   0.00000  Uiso   1.00
N227   N     0.10421   0.33709   0.27582   0.00000  Uiso   1.00
N228   N     0.80432   0.99000   0.88509   0.00000  Uiso   1.00
N229   N     0.58504   0.95715   0.16447   0.00000  Uiso   1.00
N230   N     0.01719   0.37070   0.22527   0.00000  Uiso   1.00
C231   C     0.31361   0.22246   0.06050   0.00000  Uiso   1.00
C232   C     0.25427   0.20905   0.99454   0.00000  Uiso   1.00
C233   C     0.16825   0.18361   0.97337   0.00000  Uiso   1.00
C234   C     0.12506   0.17500   0.91141   0.00000  Uiso   1.00
C235   C     0.02662   0.15175   0.81498   0.00000  Uiso   1.00
C236   C     0.38233   0.30150   0.08558   0.00000  Uiso   1.00
C237   C     0.40399   0.35378   0.14097   0.00000  Uiso   1.00
C238   C     0.46861   0.42299   0.15565   0.00000  Uiso   1.00
C239   C     0.56903   0.54325   0.20058   0.00000  Uiso   1.00
C240   C     0.35651   0.17734   0.05177   0.00000  Uiso   1.00
C241   C     0.35647   0.12524   0.07875   0.00000  Uiso   1.00
C242   C     0.39938   0.08992   0.06498   0.00000  Uiso   1.00
C243   C     0.45970   0.01741   0.05743   0.00000  Uiso   1.00
C244   C     0.38988   0.25239   0.98810   0.00000  Uiso   1.00
C245   C     0.29570   0.22531   0.95522   0.00000  Uiso   1.00
C246   C     0.25263   0.21673   0.89327   0.00000  Uiso   1.00
C247   C     0.16656   0.19128   0.87202   0.00000  Uiso   1.00
C248   C     0.42376   0.31776   0.04626   0.00000  Uiso   1.00
C249   C     0.48837   0.38690   0.06086   0.00000  Uiso   1.00
C250   C     0.51012   0.43928   0.11626   0.00000  Uiso   1.00
C251   C     0.39793   0.19360   0.01245   0.00000  Uiso   1.00
C252   C     0.44085   0.15836   0.99864   0.00000  Uiso   1.00
C253   C     0.44088   0.10621   0.02559   0.00000  Uiso   1.00
H254   H     0.28136   0.20980   0.09112   0.00000  Uiso   1.00
H255   H     0.13621   0.17104   0.00382   0.00000  Uiso   1.00
H256   H     0.37192   0.34118   0.17139   0.00000  Uiso   1.00
H257   H     0.32441   0.11268   0.10918   0.00000  Uiso   1.00
H258   H     0.99356   0.13527   0.88970   0.00000  Uiso   1.00
H259   H     0.49059   0.49401   0.24304   0.00000  Uiso   1.00
H260   H     0.39040   0.01216   0.11186   0.00000  Uiso   1.00
H261   H     0.42214   0.26505   0.95749   0.00000  Uiso   1.00
H262   H     0.28471   0.22932   0.86285   0.00000  Uiso   1.00
H263   H     0.52042   0.39946   0.03042   0.00000  Uiso   1.00
H264   H     0.47290   0.17095   0.96821   0.00000  Uiso   1.00
H265   H     0.11408   0.18257   0.77528   0.00000  Uiso   1.00
H266   H     0.61112   0.54131   0.12863   0.00000  Uiso   1.00
H267   H     0.51092   0.05946   0.99744   0.00000  Uiso   1.00
O268   O     0.96088   0.13444   0.77266   0.00000  Uiso   1.00
O269   O     0.61297   0.60509   0.23623   0.00000  Uiso   1.00
O270   O     0.48152   0.97291   0.06412   0.00000  Uiso   1.00
N271   N     0.04078   0.15129   0.87576   0.00000  Uiso   1.00
N272   N     0.50546   0.48670   0.20610   0.00000  Uiso   1.00
N273   N     0.41182   0.03622   0.08347   0.00000  Uiso   1.00
N274   N     0.10564   0.17674   0.81419   0.00000  Uiso   1.00
N275   N     0.57032   0.51215   0.14454   0.00000  Uiso   1.00
N276   N     0.47667   0.06167   0.02190   0.00000  Uiso   1.00
C277   C     0.26519   0.75596   0.50847   0.00000  Uiso   1.00
C278   C     0.27371   0.76790   0.57599   0.00000  Uiso   1.00
C279   C     0.23791   0.71413   0.59914   0.00000  Uiso   1.00
C280   C     0.25315   0.73614   0.66229   0.00000  Uiso   1.00
C281   C     0.25891   0.74354   0.76127   0.00000  Uiso   1.00
C282   C     0.35476   0.78940   0.51280   0.00000  Uiso   1.00
C283   C     0.38711   0.75372   0.48283   0.00000  Uiso   1.00
C284   C     0.47057   0.79384   0.49278   0.00000  Uiso   1.00
C285   C     0.60215   0.83465   0.49363   0.00000  Uiso   1.00
C286   C     0.22928   0.80288   0.48525   0.00000  Uiso   1.00
C287   C     0.15613   0.77854   0.43209   0.00000  Uiso   1.00
C288   C     0.13396   0.83001   0.41884   0.00000  Uiso   1.00
C289   C     0.07071   0.89175   0.37691   0.00000  Uiso   1.00
C290   C     0.35590   0.89066   0.57943   0.00000  Uiso   1.00
C291   C     0.32298   0.84106   0.61453   0.00000  Uiso   1.00
C292   C     0.33827   0.86316   0.67765   0.00000  Uiso   1.00
C293   C     0.30250   0.80944   0.70090   0.00000  Uiso   1.00
C294   C     0.40403   0.86257   0.55134   0.00000  Uiso   1.00
C295   C     0.48746   0.90275   0.56134   0.00000  Uiso   1.00
C296   C     0.51993   0.86714   0.53139   0.00000  Uiso   1.00
C297   C     0.27855   0.87605   0.52379   0.00000  Uiso   1.00
C298   C     0.25649   0.92757   0.51061   0.00000  Uiso   1.00
C299   C     0.18332   0.90331   0.45745   0.00000  Uiso   1.00
H300   H     0.22684   0.69900   0.47846   0.00000  Uiso   1.00
H301   H     0.19980   0.65751   0.56930   0.00000  Uiso   1.00
H302   H     0.34896   0.69710   0.45300   0.00000  Uiso   1.00
H303   H     0.11802   0.72192   0.40228   0.00000  Uiso   1.00
H304   H     0.19156   0.64378   0.68702   0.00000  Uiso   1.00
H305   H     0.50608   0.72727   0.44178   0.00000  Uiso   1.00
H306   H     0.01910   0.77959   0.33482   0.00000  Uiso   1.00
H307   H     0.39426   0.94762   0.60944   0.00000  Uiso   1.00
H308   H     0.37640   0.91978   0.70747   0.00000  Uiso   1.00
H309   H     0.52557   0.95937   0.59117   0.00000  Uiso   1.00
H310   H     0.29463   0.98418   0.54044   0.00000  Uiso   1.00
H311   H     0.33490   0.85665   0.79916   0.00000  Uiso   1.00
H312   H     0.64942   0.94013   0.55391   0.00000  Uiso   1.00
H313   H     0.16244   0.99246   0.44696   0.00000  Uiso   1.00
O314   O     0.24848   0.72742   0.80522   0.00000  Uiso   1.00
O315   O     0.66112   0.83694   0.48346   0.00000  Uiso   1.00
O316   O     0.02221   0.90559   0.34313   0.00000  Uiso   1.00
N317   N     0.22773   0.69771   0.69996   0.00000  Uiso   1.00
N318   N     0.52180   0.77575   0.47068   0.00000  Uiso   1.00
N319   N     0.06652   0.82467   0.37067   0.00000  Uiso   1.00
N320   N     0.30486   0.81225   0.76030   0.00000  Uiso   1.00
N321   N     0.59893   0.89029   0.53102   0.00000  Uiso   1.00
N322   N     0.14365   0.93921   0.43101   0.00000  Uiso   1.00
C323   C     0.69772   0.43801   0.36908   0.00000  Uiso   1.00
C324   C     0.76310   0.45606   0.43412   0.00000  Uiso   1.00
C325   C     0.84946   0.48777   0.45229   0.00000  Uiso   1.00
C326   C     0.89863   0.49989   0.51389   0.00000  Uiso   1.00
C327   C     0.00563   0.53084   0.60852   0.00000  Uiso   1.00
C328   C     0.64884   0.47689   0.37954   0.00000  Uiso   1.00
C329   C     0.63912   0.52609   0.35181   0.00000  Uiso   1.00
C330   C     0.59208   0.55573   0.36746   0.00000  Uiso   1.00
C331   C     0.52164   0.61897   0.37731   0.00000  Uiso   1.00
C332   C     0.63581   0.35718   0.34643   0.00000  Uiso   1.00
C333   C     0.61511   0.30574   0.29084   0.00000  Uiso   1.00
C334   C     0.55708   0.23459   0.27861   0.00000  Uiso   1.00
C335   C     0.46640   0.11198   0.23705   0.00000  Uiso   1.00
C336   C     0.63145   0.40314   0.44619   0.00000  Uiso   1.00
C337   C     0.72711   0.43713   0.47600   0.00000  Uiso   1.00
C338   C     0.77615   0.44919   0.53760   0.00000  Uiso   1.00
C339   C     0.86257   0.48091   0.55585   0.00000  Uiso   1.00
C340   C     0.61285   0.45795   0.42142   0.00000  Uiso   1.00
C341   C     0.56581   0.48752   0.43712   0.00000  Uiso   1.00
C342   C     0.55602   0.53676   0.40942   0.00000  Uiso   1.00
C343   C     0.59981   0.33824   0.38831   0.00000  Uiso   1.00
C344   C     0.54180   0.26716   0.37616   0.00000  Uiso   1.00
C345   C     0.52103   0.21562   0.32057   0.00000  Uiso   1.00
H346   H     0.72573   0.45275   0.33648   0.00000  Uiso   1.00
H347   H     0.87729   0.50242   0.41986   0.00000  Uiso   1.00
H348   H     0.66697   0.54073   0.31939   0.00000  Uiso   1.00
H349   H     0.64297   0.32041   0.25845   0.00000  Uiso   1.00
H350   H     0.02945   0.54917   0.53079   0.00000  Uiso   1.00
H351   H     0.58596   0.62992   0.31893   0.00000  Uiso   1.00
H352   H     0.53535   0.16534   0.19040   0.00000  Uiso   1.00
H353   H     0.60343   0.38839   0.47880   0.00000  Uiso   1.00
H354   H     0.74828   0.43453   0.57000   0.00000  Uiso   1.00
H355   H     0.53796   0.47285   0.46952   0.00000  Uiso   1.00
H356   H     0.51396   0.25253   0.40858   0.00000  Uiso   1.00
H357   H     0.92474   0.49407   0.65264   0.00000  Uiso   1.00
H358   H     0.48124   0.57482   0.44078   0.00000  Uiso   1.00
H359   H     0.43064   0.11024   0.31225   0.00000  Uiso   1.00
O360   O     0.07459   0.55315   0.64915   0.00000  Uiso   1.00
O361   O     0.49273   0.65909   0.37118   0.00000  Uiso   1.00
O362   O     0.42634   0.04957   0.20256   0.00000  Uiso   1.00
N363   N     0.98493   0.52985   0.54695   0.00000  Uiso   1.00
N364   N     0.57030   0.60537   0.34888   0.00000  Uiso   1.00
N365   N     0.52296   0.17102   0.22871   0.00000  Uiso   1.00
N366   N     0.92859   0.50021   0.61252   0.00000  Uiso   1.00
N367   N     0.51396   0.57572   0.41444   0.00000  Uiso   1.00
N368   N     0.46662   0.14137   0.29427   0.00000  Uiso   1.00
C369   C     0.09432   0.26142   0.49144   0.00000  Uiso   1.00
C370   C     0.14399   0.27114   0.55908   0.00000  Uiso   1.00
C371   C     0.14360   0.30987   0.61240   0.00000  Uiso   1.00
C372   C     0.19330   0.31231   0.67002   0.00000  Uiso   1.00
C373   C     0.26303   0.33271   0.77443   0.00000  Uiso   1.00
C374   C     0.04104   0.17983   0.45626   0.00000  Uiso   1.00
C375   C     0.95409   0.14178   0.42312   0.00000  Uiso   1.00
C376   C     0.91713   0.06736   0.39417   0.00000  Uiso   1.00
C377   C     0.82703   0.94599   0.33891   0.00000  Uiso   1.00
C378   C     0.15889   0.28907   0.46411   0.00000  Uiso   1.00
C379   C     0.17104   0.34286   0.43756   0.00000  Uiso   1.00
C380   C     0.23329   0.36040   0.41520   0.00000  Uiso   1.00
C381   C     0.32619   0.40866   0.37213   0.00000  Uiso   1.00
C382   C     0.18326   0.19691   0.49893   0.00000  Uiso   1.00
C383   C     0.19229   0.23610   0.56315   0.00000  Uiso   1.00
C384   C     0.24201   0.23849   0.62069   0.00000  Uiso   1.00
C385   C     0.24170   0.27721   0.67409   0.00000  Uiso   1.00
C386   C     0.08934   0.14479   0.46033   0.00000  Uiso   1.00
C387   C     0.05250   0.07040   0.43141   0.00000  Uiso   1.00
C388   C     0.96552   0.03225   0.39825   0.00000  Uiso   1.00
C389   C     0.20721   0.25403   0.46818   0.00000  Uiso   1.00
C390   C     0.26944   0.27149   0.44585   0.00000  Uiso   1.00
C391   C     0.28169   0.32530   0.41928   0.00000  Uiso   1.00
H392   H     0.05671   0.28869   0.48827   0.00000  Uiso   1.00
H393   H     0.10620   0.33697   0.60924   0.00000  Uiso   1.00
H394   H     0.91673   0.16891   0.41998   0.00000  Uiso   1.00
H395   H     0.13364   0.36996   0.43442   0.00000  Uiso   1.00
H396   H     0.18235   0.37502   0.74514   0.00000  Uiso   1.00
H397   H     0.78284   0.02066   0.34607   0.00000  Uiso   1.00
H398   H     0.24024   0.44462   0.37651   0.00000  Uiso   1.00
H399   H     0.22087   0.16962   0.50210   0.00000  Uiso   1.00
H400   H     0.27938   0.21137   0.62383   0.00000  Uiso   1.00
H401   H     0.08990   0.04331   0.43457   0.00000  Uiso   1.00
H402   H     0.30682   0.24436   0.44901   0.00000  Uiso   1.00
H403   H     0.32291   0.27307   0.75699   0.00000  Uiso   1.00
H404   H     0.92339   0.91871   0.35791   0.00000  Uiso   1.00
H405   H     0.38080   0.34267   0.38835   0.00000  Uiso   1.00
O406   O     0.28813   0.35364   0.83089   0.00000  Uiso   1.00
O407   O     0.76399   0.88873   0.30731   0.00000  Uiso   1.00
O408   O     0.36409   0.44496   0.34725   0.00000  Uiso   1.00
N409   N     0.20742   0.34531   0.73123   0.00000  Uiso   1.00
N410   N     0.83389   0.01400   0.35812   0.00000  Uiso   1.00
N411   N     0.26151   0.41036   0.38657   0.00000  Uiso   1.00
N412   N     0.28305   0.29045   0.73760   0.00000  Uiso   1.00
N413   N     0.90953   0.95914   0.36450   0.00000  Uiso   1.00
N414   N     0.33715   0.35550   0.39294   0.00000  Uiso   1.00
C415   C     0.96004   0.26689   0.99979   0.00000  Uiso   1.00
C416   C     0.03635   0.28395   0.05765   0.00000  Uiso   1.00
C417   C     0.05057   0.23345   0.08097   0.00000  Uiso   1.00
C418   C     0.12417   0.25996   0.13444   0.00000  Uiso   1.00
C419   C     0.23393   0.27514   0.21987   0.00000  Uiso   1.00
C420   C     0.92117   0.31039   0.02217   0.00000  Uiso   1.00
C421   C     0.83854   0.28212   0.01565   0.00000  Uiso   1.00
C422   C     0.81518   0.33090   0.03923   0.00000  Uiso   1.00
C423   C     0.74610   0.38713   0.06954   0.00000  Uiso   1.00
C424   C     0.99485   0.30016   0.95621   0.00000  Uiso   1.00
C425   C     0.97415   0.26328   0.89422   0.00000  Uiso   1.00
C426   C     0.01280   0.30345   0.86227   0.00000  Uiso   1.00
C427   C     0.05812   0.34379   0.79017   0.00000  Uiso   1.00
C428   C     0.06548   0.40380   0.05326   0.00000  Uiso   1.00
C429   C     0.09362   0.35831   0.08669   0.00000  Uiso   1.00
C430   C     0.16722   0.38492   0.14013   0.00000  Uiso   1.00
C431   C     0.18154   0.33446   0.16353   0.00000  Uiso   1.00
C432   C     0.97843   0.38475   0.05121   0.00000  Uiso   1.00
C433   C     0.95519   0.43359   0.07480   0.00000  Uiso   1.00
C434   C     0.87255   0.40539   0.06833   0.00000  Uiso   1.00
C435   C     0.05212   0.37452   0.98525   0.00000  Uiso   1.00
C436   C     0.09081   0.41475   0.95339   0.00000  Uiso   1.00
C437   C     0.07017   0.37795   0.89137   0.00000  Uiso   1.00
H438   H     0.91545   0.20900   0.97718   0.00000  Uiso   1.00
H439   H     0.00623   0.17590   0.05849   0.00000  Uiso   1.00
H440   H     0.79423   0.22457   0.99316   0.00000  Uiso   1.00
H441   H     0.92983   0.20574   0.87177   0.00000  Uiso   1.00
H442   H     0.13211   0.17200   0.16145   0.00000  Uiso   1.00
H443   H     0.68510   0.27462   0.02369   0.00000  Uiso   1.00
H444   H     0.97102   0.23491   0.76770   0.00000  Uiso   1.00
H445   H     0.11006   0.46170   0.07587   0.00000  Uiso   1.00
H446   H     0.21153   0.44246   0.16260   0.00000  Uiso   1.00
H447   H     0.99952   0.49113   0.09727   0.00000  Uiso   1.00
H448   H     0.13512   0.47230   0.97588   0.00000  Uiso   1.00
H449   H     0.29874   0.38836   0.24595   0.00000  Uiso   1.00
H450   H     0.85172   0.49097   0.10819   0.00000  Uiso   1.00
H451   H     0.13765   0.45126   0.85220   0.00000  Uiso   1.00
O452   O     0.27865   0.26297   0.25898   0.00000  Uiso   1.00
O453   O     0.69217   0.39760   0.07824   0.00000  Uiso   1.00
O454   O     0.06730   0.34550   0.74238   0.00000  Uiso   1.00
N455   N     0.15741   0.22556   0.16943   0.00000  Uiso   1.00
N456   N     0.73948   0.32150   0.04064   0.00000  Uiso   1.00
N457   N     0.00678   0.28438   0.80130   0.00000  Uiso   1.00
N458   N     0.24707   0.34198   0.21490   0.00000  Uiso   1.00
N459   N     0.82914   0.43792   0.08611   0.00000  Uiso   1.00
N460   N     0.09644   0.40079   0.84677   0.00000  Uiso   1.00
C461   C     0.10362   0.94264   0.84302   0.00000  Uiso   1.00
C462   C     0.11986   0.96498   0.91235   0.00000  Uiso   1.00
C463   C     0.08979   0.00496   0.94017   0.00000  Uiso   1.00
C464   C     0.11167   0.01981   0.00426   0.00000  Uiso   1.00
C465   C     0.12929   0.05823   0.10661   0.00000  Uiso   1.00
C466   C     0.19011   0.97200   0.84158   0.00000  Uiso   1.00
C467   C     0.21908   0.01788   0.80989   0.00000  Uiso   1.00
C468   C     0.30009   0.03863   0.81440   0.00000  Uiso   1.00
C469   C     0.42675   0.08791   0.80684   0.00000  Uiso   1.00
C470   C     0.06419   0.86029   0.81922   0.00000  Uiso   1.00
C471   C     0.98730   0.81222   0.76871   0.00000  Uiso   1.00
C472   C     0.96230   0.73892   0.75438   0.00000  Uiso   1.00
C473   C     0.89344   0.61474   0.71209   0.00000  Uiso   1.00
C474   C     0.19596   0.89792   0.90737   0.00000  Uiso   1.00
C475   C     0.17002   0.94069   0.94730   0.00000  Uiso   1.00
C476   C     0.19195   0.95548   0.01137   0.00000  Uiso   1.00
C477   C     0.16191   0.99547   0.03927   0.00000  Uiso   1.00
C478   C     0.24026   0.94772   0.87653   0.00000  Uiso   1.00
C479   C     0.32124   0.96840   0.88109   0.00000  Uiso   1.00
C480   C     0.35034   0.01430   0.84941   0.00000  Uiso   1.00
C481   C     0.11434   0.83600   0.85417   0.00000  Uiso   1.00
C482   C     0.08946   0.76275   0.83991   0.00000  Uiso   1.00
C483   C     0.01255   0.71459   0.78939   0.00000  Uiso   1.00
H484   H     0.06458   0.96155   0.81581   0.00000  Uiso   1.00
H485   H     0.05099   0.02375   0.91311   0.00000  Uiso   1.00
H486   H     0.18026   0.03666   0.78284   0.00000  Uiso   1.00
H487   H     0.94851   0.83104   0.74167   0.00000  Uiso   1.00
H488   H     0.05806   0.08202   0.03640   0.00000  Uiso   1.00
H489   H     0.33062   0.10922   0.76171   0.00000  Uiso   1.00
H490   H     0.84193   0.67564   0.67489   0.00000  Uiso   1.00
H491   H     0.23501   0.87901   0.93458   0.00000  Uiso   1.00
H492   H     0.23076   0.93668   0.03840   0.00000  Uiso   1.00
H493   H     0.36003   0.94959   0.90813   0.00000  Uiso   1.00
H494   H     0.12828   0.74398   0.86697   0.00000  Uiso   1.00
H495   H     0.20397   0.01136   0.13810   0.00000  Uiso   1.00
H496   H     0.47653   0.03856   0.86340   0.00000  Uiso   1.00
H497   H     0.98784   0.60497   0.77659   0.00000  Uiso   1.00
O498   O     0.12517   0.08614   0.15341   0.00000  Uiso   1.00
O499   O     0.48275   0.12181   0.79301   0.00000  Uiso   1.00
O500   O     0.84160   0.55296   0.67912   0.00000  Uiso   1.00
N501   N     0.09297   0.05746   0.04609   0.00000  Uiso   1.00
N502   N     0.34780   0.08291   0.78927   0.00000  Uiso   1.00
N503   N     0.89093   0.67754   0.70810   0.00000  Uiso   1.00
N504   N     0.17148   0.01944   0.10081   0.00000  Uiso   1.00
N505   N     0.42631   0.04488   0.84400   0.00000  Uiso   1.00
N506   N     0.96944   0.63951   0.76282   0.00000  Uiso   1.00
C507   C     0.72513   0.77933   0.96218   0.00000  Uiso   1.00
C508   C     0.79511   0.80908   0.02796   0.00000  Uiso   1.00
C509   C     0.88071   0.84054   0.04281   0.00000  Uiso   1.00
C510   C     0.93461   0.86437   0.10577   0.00000  Uiso   1.00
C511   C     0.04794   0.91166   0.20085   0.00000  Uiso   1.00
C512   C     0.66636   0.70054   0.95121   0.00000  Uiso   1.00
C513   C     0.64371   0.64074   0.90152   0.00000  Uiso   1.00
C514   C     0.58921   0.57320   0.89987   0.00000  Uiso   1.00
C515   C     0.50261   0.45198   0.87576   0.00000  Uiso   1.00
C516   C     0.67519   0.81902   0.96591   0.00000  Uiso   1.00
C517   C     0.65994   0.85883   0.92857   0.00000  Uiso   1.00
C518   C     0.61287   0.89103   0.93929   0.00000  Uiso   1.00
C519   C     0.53997   0.95377   0.93800   0.00000  Uiso   1.00
C520   C     0.66862   0.76570   0.04760   0.00000  Uiso   1.00
C521   C     0.76441   0.80167   0.07435   0.00000  Uiso   1.00
C522   C     0.81819   0.82546   0.13731   0.00000  Uiso   1.00
C523   C     0.90386   0.85696   0.15225   0.00000  Uiso   1.00
C524   C     0.63567   0.69313   0.99760   0.00000  Uiso   1.00
C525   C     0.58119   0.62566   0.99602   0.00000  Uiso   1.00
C526   C     0.55846   0.56578   0.94634   0.00000  Uiso   1.00
C527   C     0.64450   0.81162   0.01230   0.00000  Uiso   1.00
C528   C     0.59743   0.84375   0.02307   0.00000  Uiso   1.00
C529   C     0.58212   0.88361   0.98576   0.00000  Uiso   1.00
H530   H     0.74902   0.78509   0.92606   0.00000  Uiso   1.00
H531   H     0.90444   0.84626   0.00689   0.00000  Uiso   1.00
H532   H     0.66747   0.64649   0.86562   0.00000  Uiso   1.00
H533   H     0.68371   0.86455   0.89267   0.00000  Uiso   1.00
H534   H     0.06321   0.91078   0.11696   0.00000  Uiso   1.00
H535   H     0.56352   0.48957   0.81907   0.00000  Uiso   1.00
H536   H     0.59776   0.94939   0.87611   0.00000  Uiso   1.00
H537   H     0.64472   0.75993   0.08372   0.00000  Uiso   1.00
H538   H     0.79442   0.81972   0.17320   0.00000  Uiso   1.00
H539   H     0.55745   0.61995   0.03193   0.00000  Uiso   1.00
H540   H     0.57369   0.83801   0.05898   0.00000  Uiso   1.00
H541   H     0.97392   0.88924   0.25194   0.00000  Uiso   1.00
H542   H     0.47422   0.46802   0.95405   0.00000  Uiso   1.00
H543   H     0.50846   0.92784   0.01109   0.00000  Uiso   1.00
O544   O     0.11892   0.93978   0.24047   0.00000  Uiso   1.00
O545   O     0.46333   0.38716   0.84964   0.00000  Uiso   1.00
O546   O     0.50826   0.99043   0.92448   0.00000  Uiso   1.00
N547   N     0.02166   0.89752   0.13645   0.00000  Uiso   1.00
N548   N     0.55448   0.50371   0.85795   0.00000  Uiso   1.00
N549   N     0.58647   0.93358   0.91127   0.00000  Uiso   1.00
N550   N     0.97361   0.88593   0.20908   0.00000  Uiso   1.00
N551   N     0.50643   0.49212   0.93058   0.00000  Uiso   1.00
N552   N     0.53842   0.92199   0.98390   0.00000  Uiso   1.00
