data_job_01842
_audit_creation_date              2018-12-19
_audit_creation_method            'Materials Studio'
_symmetry_space_group_name_H-M    'P1'
_symmetry_Int_Tables_number       1
_symmetry_cell_setting            triclinic
loop_
_symmetry_equiv_pos_as_xyz
  x,y,z
_cell_length_a                    18.6632
_cell_length_b                    8.0916
_cell_length_c                    16.3566
_cell_angle_alpha                 90.0000
_cell_angle_beta                  90.0000
_cell_angle_gamma                 90.0000
loop_
_atom_site_label
_atom_site_type_symbol
_atom_site_fract_x
_atom_site_fract_y
_atom_site_fract_z
_atom_site_U_iso_or_equiv
_atom_site_adp_type
_atom_site_occupancy
C1     C     0.04320   0.22449   0.03036   0.00000  Uiso   1.00
C2     C     0.96152   0.22730   0.03237   0.00000  Uiso   1.00
C3     C     0.91766   0.09652   0.05492   0.00000  Uiso   1.00
C4     C     0.84425   0.12383   0.05269   0.00000  Uiso   1.00
C5     C     0.72175   0.10494   0.05942   0.00000  Uiso   1.00
C6     C     0.06445   0.27245   0.94352   0.00000  Uiso   1.00
C7     C     0.10713   0.17963   0.89137   0.00000  Uiso   1.00
C8     C     0.12036   0.24497   0.81434   0.00000  Uiso   1.00
C9     C     0.15769   0.29622   0.68314   0.00000  Uiso   1.00
C10    C     0.06774   0.36634   0.08498   0.00000  Uiso   1.00
C11    C     0.11321   0.35249   0.15177   0.00000  Uiso   1.00
C12    C     0.12922   0.49688   0.19384   0.00000  Uiso   1.00
C13    C     0.17166   0.69392   0.28229   0.00000  Uiso   1.00
C14    C     0.99081   0.50556   0.98629   0.00000  Uiso   1.00
C15    C     0.93307   0.37996   0.00843   0.00000  Uiso   1.00
C16    C     0.85970   0.40748   0.00617   0.00000  Uiso   1.00
C17    C     0.81574   0.27677   0.02872   0.00000  Uiso   1.00
C18    C     0.03599   0.42510   0.91958   0.00000  Uiso   1.00
C19    C     0.04917   0.49059   0.84262   0.00000  Uiso   1.00
C20    C     0.09185   0.39790   0.79036   0.00000  Uiso   1.00
C21    C     0.03928   0.51900   0.06105   0.00000  Uiso   1.00
C22    C     0.05523   0.66345   0.10302   0.00000  Uiso   1.00
C23    C     0.10071   0.64982   0.16986   0.00000  Uiso   1.00
H24    H     0.06536   0.10564   0.04899   0.00000  Uiso   1.00
H25    H     0.93971   0.97839   0.07344   0.00000  Uiso   1.00
H26    H     0.12915   0.06151   0.90991   0.00000  Uiso   1.00
H27    H     0.13522   0.23433   0.17028   0.00000  Uiso   1.00
H28    H     0.78785   0.90462   0.08996   0.00000  Uiso   1.00
H29    H     0.18732   0.07989   0.74517   0.00000  Uiso   1.00
H30    H     0.20012   0.44433   0.29419   0.00000  Uiso   1.00
H31    H     0.96866   0.62441   0.96765   0.00000  Uiso   1.00
H32    H     0.83769   0.52563   0.98764   0.00000  Uiso   1.00
H33    H     0.02714   0.60874   0.82412   0.00000  Uiso   1.00
H34    H     0.03320   0.78156   0.08448   0.00000  Uiso   1.00
H35    H     0.70505   0.34877   0.02032   0.00000  Uiso   1.00
H36    H     0.10452   0.52405   0.67553   0.00000  Uiso   1.00
H37    H     0.11732   0.88848   0.22455   0.00000  Uiso   1.00
O38    O     0.66204   0.05233   0.06973   0.00000  Uiso   1.00
O39    O     0.18614   0.28230   0.61738   0.00000  Uiso   1.00
O40    O     0.20293   0.76043   0.33769   0.00000  Uiso   1.00
N41    N     0.78633   0.02272   0.07084   0.00000  Uiso   1.00
N42    N     0.15981   0.18658   0.74848   0.00000  Uiso   1.00
N43    N     0.17179   0.52730   0.26176   0.00000  Uiso   1.00
N44    N     0.74178   0.26171   0.03337   0.00000  Uiso   1.00
N45    N     0.11525   0.42557   0.71101   0.00000  Uiso   1.00
N46    N     0.12723   0.76629   0.22429   0.00000  Uiso   1.00
C47    C     0.95680   0.77551   0.53036   0.00000  Uiso   1.00
C48    C     0.03848   0.77270   0.53237   0.00000  Uiso   1.00
C49    C     0.08234   0.90348   0.55492   0.00000  Uiso   1.00
C50    C     0.15575   0.87617   0.55269   0.00000  Uiso   1.00
C51    C     0.27825   0.89506   0.55942   0.00000  Uiso   1.00
C52    C     0.93555   0.72755   0.44352   0.00000  Uiso   1.00
C53    C     0.89287   0.82037   0.39137   0.00000  Uiso   1.00
C54    C     0.87964   0.75503   0.31434   0.00000  Uiso   1.00
C55    C     0.84231   0.70378   0.18314   0.00000  Uiso   1.00
C56    C     0.93226   0.63366   0.58498   0.00000  Uiso   1.00
C57    C     0.88679   0.64751   0.65177   0.00000  Uiso   1.00
C58    C     0.87078   0.50312   0.69384   0.00000  Uiso   1.00
C59    C     0.82834   0.30608   0.78229   0.00000  Uiso   1.00
C60    C     0.00919   0.49444   0.48629   0.00000  Uiso   1.00
C61    C     0.06693   0.62004   0.50843   0.00000  Uiso   1.00
C62    C     0.14030   0.59252   0.50617   0.00000  Uiso   1.00
C63    C     0.18426   0.72323   0.52872   0.00000  Uiso   1.00
C64    C     0.96401   0.57490   0.41958   0.00000  Uiso   1.00
C65    C     0.95083   0.50941   0.34262   0.00000  Uiso   1.00
C66    C     0.90815   0.60210   0.29036   0.00000  Uiso   1.00
C67    C     0.96072   0.48100   0.56105   0.00000  Uiso   1.00
C68    C     0.94477   0.33655   0.60302   0.00000  Uiso   1.00
C69    C     0.89929   0.35018   0.66986   0.00000  Uiso   1.00
H70    H     0.93464   0.89436   0.54899   0.00000  Uiso   1.00
H71    H     0.06029   0.02161   0.57344   0.00000  Uiso   1.00
H72    H     0.87085   0.93849   0.40991   0.00000  Uiso   1.00
H73    H     0.86478   0.76567   0.67028   0.00000  Uiso   1.00
H74    H     0.21215   0.09538   0.58996   0.00000  Uiso   1.00
H75    H     0.81268   0.92011   0.24517   0.00000  Uiso   1.00
H76    H     0.79988   0.55567   0.79419   0.00000  Uiso   1.00
H77    H     0.03134   0.37559   0.46765   0.00000  Uiso   1.00
H78    H     0.16231   0.47437   0.48764   0.00000  Uiso   1.00
H79    H     0.97286   0.39126   0.32412   0.00000  Uiso   1.00
H80    H     0.96680   0.21844   0.58448   0.00000  Uiso   1.00
H81    H     0.29495   0.65123   0.52032   0.00000  Uiso   1.00
H82    H     0.89548   0.47595   0.17553   0.00000  Uiso   1.00
H83    H     0.88268   0.11152   0.72455   0.00000  Uiso   1.00
O84    O     0.33796   0.94767   0.56973   0.00000  Uiso   1.00
O85    O     0.81386   0.71770   0.11738   0.00000  Uiso   1.00
O86    O     0.79707   0.23957   0.83769   0.00000  Uiso   1.00
N87    N     0.21367   0.97728   0.57084   0.00000  Uiso   1.00
N88    N     0.84019   0.81342   0.24848   0.00000  Uiso   1.00
N89    N     0.82821   0.47270   0.76176   0.00000  Uiso   1.00
N90    N     0.25822   0.73829   0.53337   0.00000  Uiso   1.00
N91    N     0.88475   0.57443   0.21101   0.00000  Uiso   1.00
N92    N     0.87277   0.23371   0.72429   0.00000  Uiso   1.00
C93    C     0.54320   0.77551   0.03036   0.00000  Uiso   1.00
C94    C     0.46152   0.77270   0.03237   0.00000  Uiso   1.00
C95    C     0.41766   0.90348   0.05492   0.00000  Uiso   1.00
C96    C     0.34425   0.87617   0.05269   0.00000  Uiso   1.00
C97    C     0.22175   0.89506   0.05942   0.00000  Uiso   1.00
C98    C     0.56445   0.72755   0.94352   0.00000  Uiso   1.00
C99    C     0.60713   0.82037   0.89137   0.00000  Uiso   1.00
C100   C     0.62036   0.75503   0.81434   0.00000  Uiso   1.00
C101   C     0.65769   0.70378   0.68314   0.00000  Uiso   1.00
C102   C     0.56774   0.63366   0.08498   0.00000  Uiso   1.00
C103   C     0.61321   0.64751   0.15177   0.00000  Uiso   1.00
C104   C     0.62922   0.50312   0.19384   0.00000  Uiso   1.00
C105   C     0.67166   0.30608   0.28229   0.00000  Uiso   1.00
C106   C     0.49081   0.49444   0.98629   0.00000  Uiso   1.00
C107   C     0.43307   0.62004   0.00843   0.00000  Uiso   1.00
C108   C     0.35970   0.59252   0.00617   0.00000  Uiso   1.00
C109   C     0.31574   0.72323   0.02872   0.00000  Uiso   1.00
C110   C     0.53599   0.57490   0.91958   0.00000  Uiso   1.00
C111   C     0.54917   0.50941   0.84262   0.00000  Uiso   1.00
C112   C     0.59185   0.60210   0.79036   0.00000  Uiso   1.00
C113   C     0.53928   0.48100   0.06105   0.00000  Uiso   1.00
C114   C     0.55523   0.33655   0.10302   0.00000  Uiso   1.00
C115   C     0.60071   0.35018   0.16986   0.00000  Uiso   1.00
H116   H     0.56536   0.89436   0.04899   0.00000  Uiso   1.00
H117   H     0.43971   0.02161   0.07344   0.00000  Uiso   1.00
H118   H     0.62915   0.93849   0.90991   0.00000  Uiso   1.00
H119   H     0.63522   0.76567   0.17028   0.00000  Uiso   1.00
H120   H     0.28785   0.09538   0.08996   0.00000  Uiso   1.00
H121   H     0.68732   0.92011   0.74517   0.00000  Uiso   1.00
H122   H     0.70012   0.55567   0.29419   0.00000  Uiso   1.00
H123   H     0.46866   0.37559   0.96765   0.00000  Uiso   1.00
H124   H     0.33769   0.47437   0.98764   0.00000  Uiso   1.00
H125   H     0.52714   0.39126   0.82412   0.00000  Uiso   1.00
H126   H     0.53320   0.21844   0.08448   0.00000  Uiso   1.00
H127   H     0.20505   0.65123   0.02032   0.00000  Uiso   1.00
H128   H     0.60452   0.47595   0.67553   0.00000  Uiso   1.00
H129   H     0.61732   0.11152   0.22455   0.00000  Uiso   1.00
O130   O     0.16204   0.94767   0.06973   0.00000  Uiso   1.00
O131   O     0.68614   0.71770   0.61738   0.00000  Uiso   1.00
O132   O     0.70293   0.23957   0.33769   0.00000  Uiso   1.00
N133   N     0.28633   0.97728   0.07084   0.00000  Uiso   1.00
N134   N     0.65981   0.81342   0.74848   0.00000  Uiso   1.00
N135   N     0.67179   0.47270   0.26176   0.00000  Uiso   1.00
N136   N     0.24178   0.73829   0.03337   0.00000  Uiso   1.00
N137   N     0.61525   0.57443   0.71101   0.00000  Uiso   1.00
N138   N     0.62723   0.23371   0.22429   0.00000  Uiso   1.00
C139   C     0.45680   0.22449   0.53036   0.00000  Uiso   1.00
C140   C     0.53848   0.22730   0.53237   0.00000  Uiso   1.00
C141   C     0.58234   0.09652   0.55492   0.00000  Uiso   1.00
C142   C     0.65575   0.12383   0.55269   0.00000  Uiso   1.00
C143   C     0.77825   0.10494   0.55942   0.00000  Uiso   1.00
C144   C     0.43555   0.27245   0.44352   0.00000  Uiso   1.00
C145   C     0.39287   0.17963   0.39137   0.00000  Uiso   1.00
C146   C     0.37964   0.24497   0.31434   0.00000  Uiso   1.00
C147   C     0.34231   0.29622   0.18314   0.00000  Uiso   1.00
C148   C     0.43226   0.36634   0.58498   0.00000  Uiso   1.00
C149   C     0.38679   0.35249   0.65177   0.00000  Uiso   1.00
C150   C     0.37078   0.49688   0.69384   0.00000  Uiso   1.00
C151   C     0.32834   0.69392   0.78229   0.00000  Uiso   1.00
C152   C     0.50919   0.50556   0.48629   0.00000  Uiso   1.00
C153   C     0.56693   0.37996   0.50843   0.00000  Uiso   1.00
C154   C     0.64030   0.40748   0.50617   0.00000  Uiso   1.00
C155   C     0.68426   0.27677   0.52872   0.00000  Uiso   1.00
C156   C     0.46401   0.42510   0.41958   0.00000  Uiso   1.00
C157   C     0.45083   0.49059   0.34262   0.00000  Uiso   1.00
C158   C     0.40815   0.39790   0.29036   0.00000  Uiso   1.00
C159   C     0.46072   0.51900   0.56105   0.00000  Uiso   1.00
C160   C     0.44477   0.66345   0.60302   0.00000  Uiso   1.00
C161   C     0.39929   0.64982   0.66986   0.00000  Uiso   1.00
H162   H     0.43464   0.10564   0.54899   0.00000  Uiso   1.00
H163   H     0.56029   0.97839   0.57344   0.00000  Uiso   1.00
H164   H     0.37085   0.06151   0.40991   0.00000  Uiso   1.00
H165   H     0.36478   0.23433   0.67028   0.00000  Uiso   1.00
H166   H     0.71215   0.90462   0.58996   0.00000  Uiso   1.00
H167   H     0.31268   0.07989   0.24517   0.00000  Uiso   1.00
H168   H     0.29988   0.44433   0.79419   0.00000  Uiso   1.00
H169   H     0.53134   0.62441   0.46765   0.00000  Uiso   1.00
H170   H     0.66231   0.52563   0.48764   0.00000  Uiso   1.00
H171   H     0.47286   0.60874   0.32412   0.00000  Uiso   1.00
H172   H     0.46680   0.78156   0.58448   0.00000  Uiso   1.00
H173   H     0.79495   0.34877   0.52032   0.00000  Uiso   1.00
H174   H     0.39548   0.52405   0.17553   0.00000  Uiso   1.00
H175   H     0.38268   0.88848   0.72455   0.00000  Uiso   1.00
O176   O     0.83796   0.05233   0.56973   0.00000  Uiso   1.00
O177   O     0.31386   0.28230   0.11738   0.00000  Uiso   1.00
O178   O     0.29707   0.76043   0.83769   0.00000  Uiso   1.00
N179   N     0.71367   0.02272   0.57084   0.00000  Uiso   1.00
N180   N     0.34019   0.18658   0.24848   0.00000  Uiso   1.00
N181   N     0.32821   0.52730   0.76176   0.00000  Uiso   1.00
N182   N     0.75822   0.26171   0.53337   0.00000  Uiso   1.00
N183   N     0.38475   0.42557   0.21101   0.00000  Uiso   1.00
N184   N     0.37277   0.76629   0.72429   0.00000  Uiso   1.00
