data_job_05856
_audit_creation_date              2018-12-19
_audit_creation_method            'Materials Studio'
_symmetry_space_group_name_H-M    'P1'
_symmetry_Int_Tables_number       1
_symmetry_cell_setting            triclinic
loop_
_symmetry_equiv_pos_as_xyz
  x,y,z
_cell_length_a                    30.9079
_cell_length_b                    7.7289
_cell_length_c                    42.7787
_cell_angle_alpha                 90.0000
_cell_angle_beta                  151.3083
_cell_angle_gamma                 90.0000
loop_
_atom_site_label
_atom_site_type_symbol
_atom_site_fract_x
_atom_site_fract_y
_atom_site_fract_z
_atom_site_U_iso_or_equiv
_atom_site_adp_type
_atom_site_occupancy
C1     C     0.09230   0.67696   0.46807   0.00000  Uiso   1.00
C2     C     0.99582   0.64687   0.41793   0.00000  Uiso   1.00
C3     C     0.95767   0.48743   0.40064   0.00000  Uiso   1.00
C4     C     0.86839   0.48723   0.35376   0.00000  Uiso   1.00
C5     C     0.72607   0.41709   0.28023   0.00000  Uiso   1.00
C6     C     0.08499   0.77480   0.43258   0.00000  Uiso   1.00
C7     C     0.12181   0.72293   0.42761   0.00000  Uiso   1.00
C8     C     0.10760   0.83044   0.39307   0.00000  Uiso   1.00
C9     C     0.10377   0.95898   0.34233   0.00000  Uiso   1.00
C10    C     0.13392   0.80329   0.51771   0.00000  Uiso   1.00
C11    C     0.21191   0.77540   0.58433   0.00000  Uiso   1.00
C12    C     0.23891   0.90692   0.62147   0.00000  Uiso   1.00
C13    C     0.31106   0.07969   0.70290   0.00000  Uiso   1.00
C14    C     0.00159   0.96015   0.41558   0.00000  Uiso   1.00
C15    C     0.94656   0.80068   0.38943   0.00000  Uiso   1.00
C16    C     0.85731   0.80073   0.34257   0.00000  Uiso   1.00
C17    C     0.81903   0.64131   0.32520   0.00000  Uiso   1.00
C18    C     0.03572   0.92861   0.40407   0.00000  Uiso   1.00
C19    C     0.02146   0.03623   0.36954   0.00000  Uiso   1.00
C20    C     0.05824   0.98453   0.36451   0.00000  Uiso   1.00
C21    C     0.08466   0.95710   0.48921   0.00000  Uiso   1.00
C22    C     0.11155   0.08870   0.52625   0.00000  Uiso   1.00
C23    C     0.18955   0.06101   0.59291   0.00000  Uiso   1.00
H24    H     0.13066   0.55722   0.49026   0.00000  Uiso   1.00
H25    H     0.99581   0.36842   0.42271   0.00000  Uiso   1.00
H26    H     0.15994   0.60390   0.44968   0.00000  Uiso   1.00
H27    H     0.25002   0.65636   0.60637   0.00000  Uiso   1.00
H28    H     0.82458   0.22692   0.33522   0.00000  Uiso   1.00
H29    H     0.17068   0.72347   0.39212   0.00000  Uiso   1.00
H30    H     0.36062   0.83409   0.72253   0.00000  Uiso   1.00
H31    H     0.96324   0.07990   0.39339   0.00000  Uiso   1.00
H32    H     0.81920   0.91978   0.32051   0.00000  Uiso   1.00
H33    H     0.98333   0.15525   0.34749   0.00000  Uiso   1.00
H34    H     0.07341   0.20771   0.50418   0.00000  Uiso   1.00
H35    H     0.68124   0.67442   0.25227   0.00000  Uiso   1.00
H36    H     0.02734   0.17098   0.30917   0.00000  Uiso   1.00
H37    H     0.21728   0.28159   0.63958   0.00000  Uiso   1.00
O38    O     0.66117   0.33590   0.24754   0.00000  Uiso   1.00
O39    O     0.11525   0.98737   0.32220   0.00000  Uiso   1.00
O40    O     0.36445   0.13250   0.75569   0.00000  Uiso   1.00
N41    N     0.81062   0.35422   0.32571   0.00000  Uiso   1.00
N42    N     0.13418   0.81845   0.37890   0.00000  Uiso   1.00
N43    N     0.31178   0.92189   0.68780   0.00000  Uiso   1.00
N44    N     0.73348   0.59502   0.28107   0.00000  Uiso   1.00
N45    N     0.05705   0.05925   0.33426   0.00000  Uiso   1.00
N46    N     0.23465   0.16269   0.64317   0.00000  Uiso   1.00
C47    C     0.59230   0.17696   0.46807   0.00000  Uiso   1.00
C48    C     0.49582   0.14687   0.41793   0.00000  Uiso   1.00
C49    C     0.45767   0.98743   0.40064   0.00000  Uiso   1.00
C50    C     0.36839   0.98723   0.35376   0.00000  Uiso   1.00
C51    C     0.22607   0.91709   0.28023   0.00000  Uiso   1.00
C52    C     0.58499   0.27480   0.43258   0.00000  Uiso   1.00
C53    C     0.62181   0.22293   0.42761   0.00000  Uiso   1.00
C54    C     0.60760   0.33044   0.39307   0.00000  Uiso   1.00
C55    C     0.60377   0.45898   0.34233   0.00000  Uiso   1.00
C56    C     0.63392   0.30329   0.51771   0.00000  Uiso   1.00
C57    C     0.71191   0.27540   0.58433   0.00000  Uiso   1.00
C58    C     0.73891   0.40692   0.62147   0.00000  Uiso   1.00
C59    C     0.81106   0.57969   0.70290   0.00000  Uiso   1.00
C60    C     0.50159   0.46015   0.41558   0.00000  Uiso   1.00
C61    C     0.44656   0.30068   0.38943   0.00000  Uiso   1.00
C62    C     0.35731   0.30073   0.34257   0.00000  Uiso   1.00
C63    C     0.31903   0.14131   0.32520   0.00000  Uiso   1.00
C64    C     0.53572   0.42861   0.40407   0.00000  Uiso   1.00
C65    C     0.52146   0.53623   0.36954   0.00000  Uiso   1.00
C66    C     0.55824   0.48453   0.36451   0.00000  Uiso   1.00
C67    C     0.58466   0.45710   0.48921   0.00000  Uiso   1.00
C68    C     0.61155   0.58870   0.52625   0.00000  Uiso   1.00
C69    C     0.68955   0.56101   0.59291   0.00000  Uiso   1.00
H70    H     0.63066   0.05722   0.49026   0.00000  Uiso   1.00
H71    H     0.49581   0.86842   0.42271   0.00000  Uiso   1.00
H72    H     0.65994   0.10390   0.44968   0.00000  Uiso   1.00
H73    H     0.75002   0.15636   0.60637   0.00000  Uiso   1.00
H74    H     0.32458   0.72692   0.33522   0.00000  Uiso   1.00
H75    H     0.67068   0.22347   0.39212   0.00000  Uiso   1.00
H76    H     0.86062   0.33409   0.72253   0.00000  Uiso   1.00
H77    H     0.46324   0.57990   0.39339   0.00000  Uiso   1.00
H78    H     0.31920   0.41978   0.32051   0.00000  Uiso   1.00
H79    H     0.48333   0.65525   0.34749   0.00000  Uiso   1.00
H80    H     0.57341   0.70771   0.50418   0.00000  Uiso   1.00
H81    H     0.18124   0.17442   0.25227   0.00000  Uiso   1.00
H82    H     0.52734   0.67098   0.30917   0.00000  Uiso   1.00
H83    H     0.71728   0.78159   0.63958   0.00000  Uiso   1.00
O84    O     0.16117   0.83590   0.24754   0.00000  Uiso   1.00
O85    O     0.61525   0.48737   0.32220   0.00000  Uiso   1.00
O86    O     0.86445   0.63250   0.75569   0.00000  Uiso   1.00
N87    N     0.31062   0.85422   0.32571   0.00000  Uiso   1.00
N88    N     0.63418   0.31845   0.37890   0.00000  Uiso   1.00
N89    N     0.81178   0.42189   0.68780   0.00000  Uiso   1.00
N90    N     0.23348   0.09502   0.28107   0.00000  Uiso   1.00
N91    N     0.55705   0.55925   0.33426   0.00000  Uiso   1.00
N92    N     0.73465   0.66269   0.64317   0.00000  Uiso   1.00
C93    C     0.90770   0.67696   0.03193   0.00000  Uiso   1.00
C94    C     0.00418   0.64687   0.08207   0.00000  Uiso   1.00
C95    C     0.04233   0.48743   0.09936   0.00000  Uiso   1.00
C96    C     0.13161   0.48723   0.14624   0.00000  Uiso   1.00
C97    C     0.27393   0.41709   0.21977   0.00000  Uiso   1.00
C98    C     0.91501   0.77480   0.06742   0.00000  Uiso   1.00
C99    C     0.87819   0.72293   0.07239   0.00000  Uiso   1.00
C100   C     0.89240   0.83044   0.10693   0.00000  Uiso   1.00
C101   C     0.89623   0.95898   0.15767   0.00000  Uiso   1.00
C102   C     0.86608   0.80329   0.98229   0.00000  Uiso   1.00
C103   C     0.78809   0.77540   0.91567   0.00000  Uiso   1.00
C104   C     0.76109   0.90692   0.87853   0.00000  Uiso   1.00
C105   C     0.68894   0.07969   0.79710   0.00000  Uiso   1.00
C106   C     0.99841   0.96015   0.08442   0.00000  Uiso   1.00
C107   C     0.05344   0.80068   0.11057   0.00000  Uiso   1.00
C108   C     0.14269   0.80073   0.15743   0.00000  Uiso   1.00
C109   C     0.18097   0.64131   0.17480   0.00000  Uiso   1.00
C110   C     0.96428   0.92861   0.09593   0.00000  Uiso   1.00
C111   C     0.97854   0.03623   0.13046   0.00000  Uiso   1.00
C112   C     0.94176   0.98453   0.13549   0.00000  Uiso   1.00
C113   C     0.91534   0.95710   0.01079   0.00000  Uiso   1.00
C114   C     0.88845   0.08870   0.97375   0.00000  Uiso   1.00
C115   C     0.81045   0.06101   0.90709   0.00000  Uiso   1.00
H116   H     0.86934   0.55722   0.00974   0.00000  Uiso   1.00
H117   H     0.00419   0.36842   0.07729   0.00000  Uiso   1.00
H118   H     0.84006   0.60390   0.05032   0.00000  Uiso   1.00
H119   H     0.74998   0.65636   0.89363   0.00000  Uiso   1.00
H120   H     0.17542   0.22692   0.16478   0.00000  Uiso   1.00
H121   H     0.82932   0.72347   0.10788   0.00000  Uiso   1.00
H122   H     0.63938   0.83409   0.77747   0.00000  Uiso   1.00
H123   H     0.03676   0.07990   0.10661   0.00000  Uiso   1.00
H124   H     0.18080   0.91978   0.17949   0.00000  Uiso   1.00
H125   H     0.01667   0.15525   0.15251   0.00000  Uiso   1.00
H126   H     0.92659   0.20771   0.99582   0.00000  Uiso   1.00
H127   H     0.31876   0.67442   0.24773   0.00000  Uiso   1.00
H128   H     0.97266   0.17098   0.19083   0.00000  Uiso   1.00
H129   H     0.78272   0.28159   0.86042   0.00000  Uiso   1.00
O130   O     0.33883   0.33590   0.25246   0.00000  Uiso   1.00
O131   O     0.88475   0.98737   0.17780   0.00000  Uiso   1.00
O132   O     0.63555   0.13250   0.74431   0.00000  Uiso   1.00
N133   N     0.18938   0.35422   0.17429   0.00000  Uiso   1.00
N134   N     0.86582   0.81845   0.12110   0.00000  Uiso   1.00
N135   N     0.68822   0.92189   0.81220   0.00000  Uiso   1.00
N136   N     0.26652   0.59502   0.21893   0.00000  Uiso   1.00
N137   N     0.94295   0.05925   0.16574   0.00000  Uiso   1.00
N138   N     0.76535   0.16269   0.85683   0.00000  Uiso   1.00
C139   C     0.40770   0.17696   0.03193   0.00000  Uiso   1.00
C140   C     0.50418   0.14687   0.08207   0.00000  Uiso   1.00
C141   C     0.54233   0.98743   0.09936   0.00000  Uiso   1.00
C142   C     0.63161   0.98723   0.14624   0.00000  Uiso   1.00
C143   C     0.77393   0.91709   0.21977   0.00000  Uiso   1.00
C144   C     0.41501   0.27480   0.06742   0.00000  Uiso   1.00
C145   C     0.37819   0.22293   0.07239   0.00000  Uiso   1.00
C146   C     0.39240   0.33044   0.10693   0.00000  Uiso   1.00
C147   C     0.39623   0.45898   0.15767   0.00000  Uiso   1.00
C148   C     0.36608   0.30329   0.98229   0.00000  Uiso   1.00
C149   C     0.28809   0.27540   0.91567   0.00000  Uiso   1.00
C150   C     0.26109   0.40692   0.87853   0.00000  Uiso   1.00
C151   C     0.18894   0.57969   0.79710   0.00000  Uiso   1.00
C152   C     0.49841   0.46015   0.08442   0.00000  Uiso   1.00
C153   C     0.55344   0.30068   0.11057   0.00000  Uiso   1.00
C154   C     0.64269   0.30073   0.15743   0.00000  Uiso   1.00
C155   C     0.68097   0.14131   0.17480   0.00000  Uiso   1.00
C156   C     0.46428   0.42861   0.09593   0.00000  Uiso   1.00
C157   C     0.47854   0.53623   0.13046   0.00000  Uiso   1.00
C158   C     0.44176   0.48453   0.13549   0.00000  Uiso   1.00
C159   C     0.41534   0.45710   0.01079   0.00000  Uiso   1.00
C160   C     0.38845   0.58870   0.97375   0.00000  Uiso   1.00
C161   C     0.31045   0.56101   0.90709   0.00000  Uiso   1.00
H162   H     0.36934   0.05722   0.00974   0.00000  Uiso   1.00
H163   H     0.50419   0.86842   0.07729   0.00000  Uiso   1.00
H164   H     0.34006   0.10390   0.05032   0.00000  Uiso   1.00
H165   H     0.24998   0.15636   0.89363   0.00000  Uiso   1.00
H166   H     0.67542   0.72692   0.16478   0.00000  Uiso   1.00
H167   H     0.32932   0.22347   0.10788   0.00000  Uiso   1.00
H168   H     0.13938   0.33409   0.77747   0.00000  Uiso   1.00
H169   H     0.53676   0.57990   0.10661   0.00000  Uiso   1.00
H170   H     0.68080   0.41978   0.17949   0.00000  Uiso   1.00
H171   H     0.51667   0.65525   0.15251   0.00000  Uiso   1.00
H172   H     0.42659   0.70771   0.99582   0.00000  Uiso   1.00
H173   H     0.81876   0.17442   0.24773   0.00000  Uiso   1.00
H174   H     0.47266   0.67098   0.19083   0.00000  Uiso   1.00
H175   H     0.28272   0.78159   0.86042   0.00000  Uiso   1.00
O176   O     0.83883   0.83590   0.25246   0.00000  Uiso   1.00
O177   O     0.38475   0.48737   0.17780   0.00000  Uiso   1.00
O178   O     0.13555   0.63250   0.74431   0.00000  Uiso   1.00
N179   N     0.68938   0.85422   0.17429   0.00000  Uiso   1.00
N180   N     0.36582   0.31845   0.12110   0.00000  Uiso   1.00
N181   N     0.18822   0.42189   0.81220   0.00000  Uiso   1.00
N182   N     0.76652   0.09502   0.21893   0.00000  Uiso   1.00
N183   N     0.44295   0.55925   0.16574   0.00000  Uiso   1.00
N184   N     0.26535   0.66269   0.85683   0.00000  Uiso   1.00
C185   C     0.90770   0.32304   0.53193   0.00000  Uiso   1.00
C186   C     0.00418   0.35313   0.58207   0.00000  Uiso   1.00
C187   C     0.04233   0.51257   0.59936   0.00000  Uiso   1.00
C188   C     0.13161   0.51277   0.64624   0.00000  Uiso   1.00
C189   C     0.27393   0.58291   0.71977   0.00000  Uiso   1.00
C190   C     0.91501   0.22520   0.56742   0.00000  Uiso   1.00
C191   C     0.87819   0.27707   0.57239   0.00000  Uiso   1.00
C192   C     0.89240   0.16956   0.60693   0.00000  Uiso   1.00
C193   C     0.89623   0.04102   0.65767   0.00000  Uiso   1.00
C194   C     0.86608   0.19671   0.48229   0.00000  Uiso   1.00
C195   C     0.78809   0.22460   0.41567   0.00000  Uiso   1.00
C196   C     0.76109   0.09308   0.37853   0.00000  Uiso   1.00
C197   C     0.68894   0.92031   0.29710   0.00000  Uiso   1.00
C198   C     0.99841   0.03985   0.58442   0.00000  Uiso   1.00
C199   C     0.05344   0.19932   0.61057   0.00000  Uiso   1.00
C200   C     0.14269   0.19927   0.65743   0.00000  Uiso   1.00
C201   C     0.18097   0.35869   0.67480   0.00000  Uiso   1.00
C202   C     0.96428   0.07139   0.59593   0.00000  Uiso   1.00
C203   C     0.97854   0.96377   0.63046   0.00000  Uiso   1.00
C204   C     0.94176   0.01547   0.63549   0.00000  Uiso   1.00
C205   C     0.91534   0.04290   0.51079   0.00000  Uiso   1.00
C206   C     0.88845   0.91130   0.47375   0.00000  Uiso   1.00
C207   C     0.81045   0.93899   0.40709   0.00000  Uiso   1.00
H208   H     0.86934   0.44278   0.50974   0.00000  Uiso   1.00
H209   H     0.00419   0.63158   0.57729   0.00000  Uiso   1.00
H210   H     0.84006   0.39610   0.55032   0.00000  Uiso   1.00
H211   H     0.74998   0.34364   0.39363   0.00000  Uiso   1.00
H212   H     0.17542   0.77308   0.66478   0.00000  Uiso   1.00
H213   H     0.82932   0.27653   0.60788   0.00000  Uiso   1.00
H214   H     0.63938   0.16591   0.27747   0.00000  Uiso   1.00
H215   H     0.03676   0.92010   0.60661   0.00000  Uiso   1.00
H216   H     0.18080   0.08022   0.67949   0.00000  Uiso   1.00
H217   H     0.01667   0.84475   0.65251   0.00000  Uiso   1.00
H218   H     0.92659   0.79229   0.49582   0.00000  Uiso   1.00
H219   H     0.31876   0.32558   0.74773   0.00000  Uiso   1.00
H220   H     0.97266   0.82902   0.69083   0.00000  Uiso   1.00
H221   H     0.78272   0.71841   0.36042   0.00000  Uiso   1.00
O222   O     0.33883   0.66410   0.75246   0.00000  Uiso   1.00
O223   O     0.88475   0.01263   0.67780   0.00000  Uiso   1.00
O224   O     0.63555   0.86750   0.24431   0.00000  Uiso   1.00
N225   N     0.18938   0.64578   0.67429   0.00000  Uiso   1.00
N226   N     0.86582   0.18155   0.62110   0.00000  Uiso   1.00
N227   N     0.68822   0.07811   0.31220   0.00000  Uiso   1.00
N228   N     0.26652   0.40498   0.71893   0.00000  Uiso   1.00
N229   N     0.94295   0.94075   0.66574   0.00000  Uiso   1.00
N230   N     0.76535   0.83731   0.35683   0.00000  Uiso   1.00
C231   C     0.40770   0.82304   0.53193   0.00000  Uiso   1.00
C232   C     0.50418   0.85313   0.58207   0.00000  Uiso   1.00
C233   C     0.54233   0.01257   0.59936   0.00000  Uiso   1.00
C234   C     0.63161   0.01277   0.64624   0.00000  Uiso   1.00
C235   C     0.77393   0.08291   0.71977   0.00000  Uiso   1.00
C236   C     0.41501   0.72520   0.56742   0.00000  Uiso   1.00
C237   C     0.37819   0.77707   0.57239   0.00000  Uiso   1.00
C238   C     0.39240   0.66956   0.60693   0.00000  Uiso   1.00
C239   C     0.39623   0.54102   0.65767   0.00000  Uiso   1.00
C240   C     0.36608   0.69671   0.48229   0.00000  Uiso   1.00
C241   C     0.28809   0.72460   0.41567   0.00000  Uiso   1.00
C242   C     0.26109   0.59308   0.37853   0.00000  Uiso   1.00
C243   C     0.18894   0.42031   0.29710   0.00000  Uiso   1.00
C244   C     0.49841   0.53985   0.58442   0.00000  Uiso   1.00
C245   C     0.55344   0.69932   0.61057   0.00000  Uiso   1.00
C246   C     0.64269   0.69927   0.65743   0.00000  Uiso   1.00
C247   C     0.68097   0.85869   0.67480   0.00000  Uiso   1.00
C248   C     0.46428   0.57139   0.59593   0.00000  Uiso   1.00
C249   C     0.47854   0.46377   0.63046   0.00000  Uiso   1.00
C250   C     0.44176   0.51547   0.63549   0.00000  Uiso   1.00
C251   C     0.41534   0.54290   0.51079   0.00000  Uiso   1.00
C252   C     0.38845   0.41130   0.47375   0.00000  Uiso   1.00
C253   C     0.31045   0.43899   0.40709   0.00000  Uiso   1.00
H254   H     0.36934   0.94278   0.50974   0.00000  Uiso   1.00
H255   H     0.50419   0.13158   0.57729   0.00000  Uiso   1.00
H256   H     0.34006   0.89610   0.55032   0.00000  Uiso   1.00
H257   H     0.24998   0.84364   0.39363   0.00000  Uiso   1.00
H258   H     0.67542   0.27308   0.66478   0.00000  Uiso   1.00
H259   H     0.32932   0.77653   0.60788   0.00000  Uiso   1.00
H260   H     0.13938   0.66591   0.27747   0.00000  Uiso   1.00
H261   H     0.53676   0.42010   0.60661   0.00000  Uiso   1.00
H262   H     0.68080   0.58022   0.67949   0.00000  Uiso   1.00
H263   H     0.51667   0.34475   0.65251   0.00000  Uiso   1.00
H264   H     0.42659   0.29229   0.49582   0.00000  Uiso   1.00
H265   H     0.81876   0.82558   0.74773   0.00000  Uiso   1.00
H266   H     0.47266   0.32902   0.69083   0.00000  Uiso   1.00
H267   H     0.28272   0.21841   0.36042   0.00000  Uiso   1.00
O268   O     0.83883   0.16410   0.75246   0.00000  Uiso   1.00
O269   O     0.38475   0.51263   0.67780   0.00000  Uiso   1.00
O270   O     0.13555   0.36750   0.24431   0.00000  Uiso   1.00
N271   N     0.68938   0.14578   0.67429   0.00000  Uiso   1.00
N272   N     0.36582   0.68155   0.62110   0.00000  Uiso   1.00
N273   N     0.18822   0.57811   0.31220   0.00000  Uiso   1.00
N274   N     0.76652   0.90498   0.71893   0.00000  Uiso   1.00
N275   N     0.44295   0.44075   0.66574   0.00000  Uiso   1.00
N276   N     0.26535   0.33731   0.35683   0.00000  Uiso   1.00
C277   C     0.09230   0.32304   0.96807   0.00000  Uiso   1.00
C278   C     0.99582   0.35313   0.91793   0.00000  Uiso   1.00
C279   C     0.95767   0.51257   0.90064   0.00000  Uiso   1.00
C280   C     0.86839   0.51277   0.85376   0.00000  Uiso   1.00
C281   C     0.72607   0.58291   0.78023   0.00000  Uiso   1.00
C282   C     0.08499   0.22520   0.93258   0.00000  Uiso   1.00
C283   C     0.12181   0.27707   0.92761   0.00000  Uiso   1.00
C284   C     0.10760   0.16956   0.89307   0.00000  Uiso   1.00
C285   C     0.10377   0.04102   0.84233   0.00000  Uiso   1.00
C286   C     0.13392   0.19671   0.01771   0.00000  Uiso   1.00
C287   C     0.21191   0.22460   0.08433   0.00000  Uiso   1.00
C288   C     0.23891   0.09308   0.12147   0.00000  Uiso   1.00
C289   C     0.31106   0.92031   0.20290   0.00000  Uiso   1.00
C290   C     0.00159   0.03985   0.91558   0.00000  Uiso   1.00
C291   C     0.94656   0.19932   0.88943   0.00000  Uiso   1.00
C292   C     0.85731   0.19927   0.84257   0.00000  Uiso   1.00
C293   C     0.81903   0.35869   0.82520   0.00000  Uiso   1.00
C294   C     0.03572   0.07139   0.90407   0.00000  Uiso   1.00
C295   C     0.02146   0.96377   0.86954   0.00000  Uiso   1.00
C296   C     0.05824   0.01547   0.86451   0.00000  Uiso   1.00
C297   C     0.08466   0.04290   0.98921   0.00000  Uiso   1.00
C298   C     0.11155   0.91130   0.02625   0.00000  Uiso   1.00
C299   C     0.18955   0.93899   0.09291   0.00000  Uiso   1.00
H300   H     0.13066   0.44278   0.99026   0.00000  Uiso   1.00
H301   H     0.99581   0.63158   0.92271   0.00000  Uiso   1.00
H302   H     0.15994   0.39610   0.94968   0.00000  Uiso   1.00
H303   H     0.25002   0.34364   0.10637   0.00000  Uiso   1.00
H304   H     0.82458   0.77308   0.83522   0.00000  Uiso   1.00
H305   H     0.17068   0.27653   0.89212   0.00000  Uiso   1.00
H306   H     0.36062   0.16591   0.22253   0.00000  Uiso   1.00
H307   H     0.96324   0.92010   0.89339   0.00000  Uiso   1.00
H308   H     0.81920   0.08022   0.82051   0.00000  Uiso   1.00
H309   H     0.98333   0.84475   0.84749   0.00000  Uiso   1.00
H310   H     0.07341   0.79229   0.00418   0.00000  Uiso   1.00
H311   H     0.68124   0.32558   0.75227   0.00000  Uiso   1.00
H312   H     0.02734   0.82902   0.80917   0.00000  Uiso   1.00
H313   H     0.21728   0.71841   0.13958   0.00000  Uiso   1.00
O314   O     0.66117   0.66410   0.74754   0.00000  Uiso   1.00
O315   O     0.11525   0.01263   0.82220   0.00000  Uiso   1.00
O316   O     0.36445   0.86750   0.25569   0.00000  Uiso   1.00
N317   N     0.81062   0.64578   0.82571   0.00000  Uiso   1.00
N318   N     0.13418   0.18155   0.87890   0.00000  Uiso   1.00
N319   N     0.31178   0.07811   0.18780   0.00000  Uiso   1.00
N320   N     0.73348   0.40498   0.78107   0.00000  Uiso   1.00
N321   N     0.05705   0.94075   0.83426   0.00000  Uiso   1.00
N322   N     0.23465   0.83731   0.14317   0.00000  Uiso   1.00
C323   C     0.59230   0.82304   0.96807   0.00000  Uiso   1.00
C324   C     0.49582   0.85313   0.91793   0.00000  Uiso   1.00
C325   C     0.45767   0.01257   0.90064   0.00000  Uiso   1.00
C326   C     0.36839   0.01277   0.85376   0.00000  Uiso   1.00
C327   C     0.22607   0.08291   0.78023   0.00000  Uiso   1.00
C328   C     0.58499   0.72520   0.93258   0.00000  Uiso   1.00
C329   C     0.62181   0.77707   0.92761   0.00000  Uiso   1.00
C330   C     0.60760   0.66956   0.89307   0.00000  Uiso   1.00
C331   C     0.60377   0.54102   0.84233   0.00000  Uiso   1.00
C332   C     0.63392   0.69671   0.01771   0.00000  Uiso   1.00
C333   C     0.71191   0.72460   0.08433   0.00000  Uiso   1.00
C334   C     0.73891   0.59308   0.12147   0.00000  Uiso   1.00
C335   C     0.81106   0.42031   0.20290   0.00000  Uiso   1.00
C336   C     0.50159   0.53985   0.91558   0.00000  Uiso   1.00
C337   C     0.44656   0.69932   0.88943   0.00000  Uiso   1.00
C338   C     0.35731   0.69927   0.84257   0.00000  Uiso   1.00
C339   C     0.31903   0.85869   0.82520   0.00000  Uiso   1.00
C340   C     0.53572   0.57139   0.90407   0.00000  Uiso   1.00
C341   C     0.52146   0.46377   0.86954   0.00000  Uiso   1.00
C342   C     0.55824   0.51547   0.86451   0.00000  Uiso   1.00
C343   C     0.58466   0.54290   0.98921   0.00000  Uiso   1.00
C344   C     0.61155   0.41130   0.02625   0.00000  Uiso   1.00
C345   C     0.68955   0.43899   0.09291   0.00000  Uiso   1.00
H346   H     0.63066   0.94278   0.99026   0.00000  Uiso   1.00
H347   H     0.49581   0.13158   0.92271   0.00000  Uiso   1.00
H348   H     0.65994   0.89610   0.94968   0.00000  Uiso   1.00
H349   H     0.75002   0.84364   0.10637   0.00000  Uiso   1.00
H350   H     0.32458   0.27308   0.83522   0.00000  Uiso   1.00
H351   H     0.67068   0.77653   0.89212   0.00000  Uiso   1.00
H352   H     0.86062   0.66591   0.22253   0.00000  Uiso   1.00
H353   H     0.46324   0.42010   0.89339   0.00000  Uiso   1.00
H354   H     0.31920   0.58022   0.82051   0.00000  Uiso   1.00
H355   H     0.48333   0.34475   0.84749   0.00000  Uiso   1.00
H356   H     0.57341   0.29229   0.00418   0.00000  Uiso   1.00
H357   H     0.18124   0.82558   0.75227   0.00000  Uiso   1.00
H358   H     0.52734   0.32902   0.80917   0.00000  Uiso   1.00
H359   H     0.71728   0.21841   0.13958   0.00000  Uiso   1.00
O360   O     0.16117   0.16410   0.74754   0.00000  Uiso   1.00
O361   O     0.61525   0.51263   0.82220   0.00000  Uiso   1.00
O362   O     0.86445   0.36750   0.25569   0.00000  Uiso   1.00
N363   N     0.31062   0.14578   0.82571   0.00000  Uiso   1.00
N364   N     0.63418   0.68155   0.87890   0.00000  Uiso   1.00
N365   N     0.81178   0.57811   0.18780   0.00000  Uiso   1.00
N366   N     0.23348   0.90498   0.78107   0.00000  Uiso   1.00
N367   N     0.55705   0.44075   0.83426   0.00000  Uiso   1.00
N368   N     0.73465   0.33731   0.14317   0.00000  Uiso   1.00
