data_job_03037
_audit_creation_date              2018-12-19
_audit_creation_method            'Materials Studio'
_symmetry_space_group_name_H-M    'P1'
_symmetry_Int_Tables_number       1
_symmetry_cell_setting            triclinic
loop_
_symmetry_equiv_pos_as_xyz
  x,y,z
_cell_length_a                    22.0844
_cell_length_b                    9.1756
_cell_length_c                    21.7690
_cell_angle_alpha                 90.0000
_cell_angle_beta                  107.8860
_cell_angle_gamma                 90.0000
loop_
_atom_site_label
_atom_site_type_symbol
_atom_site_fract_x
_atom_site_fract_y
_atom_site_fract_z
_atom_site_U_iso_or_equiv
_atom_site_adp_type
_atom_site_occupancy
C1     C     0.32200   0.97619   0.11627   0.00000  Uiso   1.00
C2     C     0.35699   0.10649   0.15455   0.00000  Uiso   1.00
C3     C     0.37940   0.11685   0.22134   0.00000  Uiso   1.00
C4     C     0.41016   0.24515   0.24709   0.00000  Uiso   1.00
C5     C     0.46325   0.43019   0.31256   0.00000  Uiso   1.00
C6     C     0.25897   0.03512   0.07240   0.00000  Uiso   1.00
C7     C     0.19896   0.98545   0.07011   0.00000  Uiso   1.00
C8     C     0.14721   0.05366   0.02669   0.00000  Uiso   1.00
C9     C     0.04811   0.12781   0.96459   0.00000  Uiso   1.00
C10    C     0.36018   0.93050   0.07180   0.00000  Uiso   1.00
C11    C     0.38524   0.79286   0.06899   0.00000  Uiso   1.00
C12    C     0.41869   0.77297   0.02505   0.00000  Uiso   1.00
C13    C     0.47673   0.68470   0.96201   0.00000  Uiso   1.00
C14    C     0.33680   0.18561   0.04322   0.00000  Uiso   1.00
C15    C     0.36503   0.22024   0.11487   0.00000  Uiso   1.00
C16    C     0.39577   0.34855   0.14052   0.00000  Uiso   1.00
C17    C     0.41822   0.35910   0.20734   0.00000  Uiso   1.00
C18    C     0.26701   0.14886   0.03272   0.00000  Uiso   1.00
C19    C     0.21533   0.21715   0.98929   0.00000  Uiso   1.00
C20    C     0.15526   0.16761   0.98694   0.00000  Uiso   1.00
C21    C     0.36822   0.04425   0.03212   0.00000  Uiso   1.00
C22    C     0.40162   0.02456   0.98817   0.00000  Uiso   1.00
C23    C     0.42674   0.88693   0.98529   0.00000  Uiso   1.00
H24    H     0.31574   0.88764   0.14716   0.00000  Uiso   1.00
H25    H     0.37316   0.02880   0.25203   0.00000  Uiso   1.00
H26    H     0.19275   0.89742   0.10082   0.00000  Uiso   1.00
H27    H     0.37901   0.70486   0.09970   0.00000  Uiso   1.00
H28    H     0.44035   0.23550   0.35081   0.00000  Uiso   1.00
H29    H     0.05995   0.95842   0.03195   0.00000  Uiso   1.00
H30    H     0.45271   0.55238   0.02959   0.00000  Uiso   1.00
H31    H     0.34306   0.27417   0.01232   0.00000  Uiso   1.00
H32    H     0.40199   0.43656   0.10980   0.00000  Uiso   1.00
H33    H     0.22157   0.30516   0.95859   0.00000  Uiso   1.00
H34    H     0.40784   0.11261   0.95747   0.00000  Uiso   1.00
H35    H     0.46374   0.56645   0.23536   0.00000  Uiso   1.00
H36    H     0.08334   0.28937   0.91651   0.00000  Uiso   1.00
H37    H     0.47611   0.88333   0.91415   0.00000  Uiso   1.00
O38    O     0.49030   0.50084   0.35964   0.00000  Uiso   1.00
O39    O     0.99123   0.13730   0.94131   0.00000  Uiso   1.00
O40    O     0.50653   0.60459   0.93821   0.00000  Uiso   1.00
N41    N     0.43778   0.29109   0.31026   0.00000  Uiso   1.00
N42    N     0.08213   0.03206   0.01216   0.00000  Uiso   1.00
N43    N     0.44931   0.65243   0.00993   0.00000  Uiso   1.00
N44    N     0.45037   0.46917   0.24814   0.00000  Uiso   1.00
N45    N     0.09471   0.21014   0.95004   0.00000  Uiso   1.00
N46    N     0.46190   0.83051   0.94782   0.00000  Uiso   1.00
C47    C     0.67800   0.47619   0.38373   0.00000  Uiso   1.00
C48    C     0.64301   0.60649   0.34545   0.00000  Uiso   1.00
C49    C     0.62060   0.61685   0.27866   0.00000  Uiso   1.00
C50    C     0.58984   0.74515   0.25291   0.00000  Uiso   1.00
C51    C     0.53675   0.93019   0.18744   0.00000  Uiso   1.00
C52    C     0.74103   0.53512   0.42760   0.00000  Uiso   1.00
C53    C     0.80104   0.48545   0.42989   0.00000  Uiso   1.00
C54    C     0.85279   0.55366   0.47331   0.00000  Uiso   1.00
C55    C     0.95189   0.62781   0.53541   0.00000  Uiso   1.00
C56    C     0.63982   0.43050   0.42820   0.00000  Uiso   1.00
C57    C     0.61476   0.29286   0.43101   0.00000  Uiso   1.00
C58    C     0.58131   0.27297   0.47495   0.00000  Uiso   1.00
C59    C     0.52327   0.18470   0.53799   0.00000  Uiso   1.00
C60    C     0.66320   0.68561   0.45678   0.00000  Uiso   1.00
C61    C     0.63497   0.72024   0.38513   0.00000  Uiso   1.00
C62    C     0.60423   0.84855   0.35948   0.00000  Uiso   1.00
C63    C     0.58178   0.85910   0.29266   0.00000  Uiso   1.00
C64    C     0.73299   0.64886   0.46728   0.00000  Uiso   1.00
C65    C     0.78467   0.71715   0.51071   0.00000  Uiso   1.00
C66    C     0.84474   0.66761   0.51306   0.00000  Uiso   1.00
C67    C     0.63178   0.54425   0.46788   0.00000  Uiso   1.00
C68    C     0.59838   0.52456   0.51183   0.00000  Uiso   1.00
C69    C     0.57326   0.38693   0.51471   0.00000  Uiso   1.00
H70    H     0.68426   0.38764   0.35284   0.00000  Uiso   1.00
H71    H     0.62684   0.52880   0.24797   0.00000  Uiso   1.00
H72    H     0.80725   0.39742   0.39918   0.00000  Uiso   1.00
H73    H     0.62099   0.20486   0.40030   0.00000  Uiso   1.00
H74    H     0.55965   0.73550   0.14919   0.00000  Uiso   1.00
H75    H     0.94005   0.45842   0.46805   0.00000  Uiso   1.00
H76    H     0.54729   0.05238   0.47041   0.00000  Uiso   1.00
H77    H     0.65694   0.77417   0.48768   0.00000  Uiso   1.00
H78    H     0.59801   0.93656   0.39020   0.00000  Uiso   1.00
H79    H     0.77843   0.80516   0.54141   0.00000  Uiso   1.00
H80    H     0.59216   0.61261   0.54253   0.00000  Uiso   1.00
H81    H     0.53626   0.06645   0.26464   0.00000  Uiso   1.00
H82    H     0.91666   0.78937   0.58349   0.00000  Uiso   1.00
H83    H     0.52389   0.38333   0.58585   0.00000  Uiso   1.00
O84    O     0.50970   0.00084   0.14036   0.00000  Uiso   1.00
O85    O     0.00877   0.63730   0.55869   0.00000  Uiso   1.00
O86    O     0.49347   0.10459   0.56179   0.00000  Uiso   1.00
N87    N     0.56222   0.79109   0.18974   0.00000  Uiso   1.00
N88    N     0.91787   0.53206   0.48784   0.00000  Uiso   1.00
N89    N     0.55069   0.15243   0.49007   0.00000  Uiso   1.00
N90    N     0.54963   0.96917   0.25186   0.00000  Uiso   1.00
N91    N     0.90529   0.71014   0.54996   0.00000  Uiso   1.00
N92    N     0.53810   0.33051   0.55218   0.00000  Uiso   1.00
C93    C     0.67800   0.02381   0.88373   0.00000  Uiso   1.00
C94    C     0.64301   0.89351   0.84545   0.00000  Uiso   1.00
C95    C     0.62060   0.88315   0.77866   0.00000  Uiso   1.00
C96    C     0.58984   0.75485   0.75291   0.00000  Uiso   1.00
C97    C     0.53675   0.56981   0.68744   0.00000  Uiso   1.00
C98    C     0.74103   0.96488   0.92760   0.00000  Uiso   1.00
C99    C     0.80104   0.01455   0.92989   0.00000  Uiso   1.00
C100   C     0.85279   0.94634   0.97331   0.00000  Uiso   1.00
C101   C     0.95189   0.87219   0.03541   0.00000  Uiso   1.00
C102   C     0.63982   0.06950   0.92820   0.00000  Uiso   1.00
C103   C     0.61476   0.20714   0.93101   0.00000  Uiso   1.00
C104   C     0.58131   0.22703   0.97495   0.00000  Uiso   1.00
C105   C     0.52327   0.31530   0.03799   0.00000  Uiso   1.00
C106   C     0.66320   0.81439   0.95678   0.00000  Uiso   1.00
C107   C     0.63497   0.77976   0.88513   0.00000  Uiso   1.00
C108   C     0.60423   0.65145   0.85948   0.00000  Uiso   1.00
C109   C     0.58178   0.64090   0.79266   0.00000  Uiso   1.00
C110   C     0.73299   0.85114   0.96728   0.00000  Uiso   1.00
C111   C     0.78467   0.78285   0.01071   0.00000  Uiso   1.00
C112   C     0.84474   0.83239   0.01306   0.00000  Uiso   1.00
C113   C     0.63178   0.95575   0.96788   0.00000  Uiso   1.00
C114   C     0.59838   0.97544   0.01183   0.00000  Uiso   1.00
C115   C     0.57326   0.11307   0.01471   0.00000  Uiso   1.00
H116   H     0.68426   0.11236   0.85284   0.00000  Uiso   1.00
H117   H     0.62684   0.97120   0.74797   0.00000  Uiso   1.00
H118   H     0.80725   0.10258   0.89918   0.00000  Uiso   1.00
H119   H     0.62099   0.29514   0.90030   0.00000  Uiso   1.00
H120   H     0.55965   0.76450   0.64919   0.00000  Uiso   1.00
H121   H     0.94005   0.04158   0.96805   0.00000  Uiso   1.00
H122   H     0.54729   0.44762   0.97041   0.00000  Uiso   1.00
H123   H     0.65694   0.72583   0.98768   0.00000  Uiso   1.00
H124   H     0.59801   0.56344   0.89020   0.00000  Uiso   1.00
H125   H     0.77843   0.69484   0.04141   0.00000  Uiso   1.00
H126   H     0.59216   0.88739   0.04253   0.00000  Uiso   1.00
H127   H     0.53626   0.43355   0.76464   0.00000  Uiso   1.00
H128   H     0.91666   0.71063   0.08349   0.00000  Uiso   1.00
H129   H     0.52389   0.11667   0.08585   0.00000  Uiso   1.00
O130   O     0.50970   0.49916   0.64036   0.00000  Uiso   1.00
O131   O     0.00877   0.86270   0.05869   0.00000  Uiso   1.00
O132   O     0.49347   0.39541   0.06179   0.00000  Uiso   1.00
N133   N     0.56222   0.70891   0.68974   0.00000  Uiso   1.00
N134   N     0.91787   0.96794   0.98784   0.00000  Uiso   1.00
N135   N     0.55069   0.34757   0.99007   0.00000  Uiso   1.00
N136   N     0.54963   0.53083   0.75186   0.00000  Uiso   1.00
N137   N     0.90529   0.78986   0.04996   0.00000  Uiso   1.00
N138   N     0.53810   0.16949   0.05218   0.00000  Uiso   1.00
C139   C     0.32200   0.52381   0.61627   0.00000  Uiso   1.00
C140   C     0.35699   0.39351   0.65455   0.00000  Uiso   1.00
C141   C     0.37940   0.38315   0.72134   0.00000  Uiso   1.00
C142   C     0.41016   0.25485   0.74709   0.00000  Uiso   1.00
C143   C     0.46325   0.06981   0.81256   0.00000  Uiso   1.00
C144   C     0.25897   0.46488   0.57240   0.00000  Uiso   1.00
C145   C     0.19896   0.51455   0.57011   0.00000  Uiso   1.00
C146   C     0.14721   0.44634   0.52669   0.00000  Uiso   1.00
C147   C     0.04811   0.37219   0.46459   0.00000  Uiso   1.00
C148   C     0.36018   0.56950   0.57180   0.00000  Uiso   1.00
C149   C     0.38524   0.70714   0.56899   0.00000  Uiso   1.00
C150   C     0.41869   0.72703   0.52505   0.00000  Uiso   1.00
C151   C     0.47673   0.81530   0.46201   0.00000  Uiso   1.00
C152   C     0.33680   0.31439   0.54322   0.00000  Uiso   1.00
C153   C     0.36503   0.27976   0.61487   0.00000  Uiso   1.00
C154   C     0.39577   0.15145   0.64052   0.00000  Uiso   1.00
C155   C     0.41822   0.14090   0.70734   0.00000  Uiso   1.00
C156   C     0.26701   0.35114   0.53272   0.00000  Uiso   1.00
C157   C     0.21533   0.28285   0.48929   0.00000  Uiso   1.00
C158   C     0.15526   0.33239   0.48694   0.00000  Uiso   1.00
C159   C     0.36822   0.45575   0.53212   0.00000  Uiso   1.00
C160   C     0.40162   0.47544   0.48817   0.00000  Uiso   1.00
C161   C     0.42674   0.61307   0.48529   0.00000  Uiso   1.00
H162   H     0.31574   0.61236   0.64716   0.00000  Uiso   1.00
H163   H     0.37316   0.47120   0.75203   0.00000  Uiso   1.00
H164   H     0.19275   0.60258   0.60082   0.00000  Uiso   1.00
H165   H     0.37901   0.79514   0.59970   0.00000  Uiso   1.00
H166   H     0.44035   0.26450   0.85081   0.00000  Uiso   1.00
H167   H     0.05995   0.54158   0.53195   0.00000  Uiso   1.00
H168   H     0.45271   0.94762   0.52959   0.00000  Uiso   1.00
H169   H     0.34306   0.22583   0.51232   0.00000  Uiso   1.00
H170   H     0.40199   0.06344   0.60980   0.00000  Uiso   1.00
H171   H     0.22157   0.19484   0.45859   0.00000  Uiso   1.00
H172   H     0.40784   0.38739   0.45747   0.00000  Uiso   1.00
H173   H     0.46374   0.93355   0.73536   0.00000  Uiso   1.00
H174   H     0.08334   0.21063   0.41651   0.00000  Uiso   1.00
H175   H     0.47611   0.61667   0.41415   0.00000  Uiso   1.00
O176   O     0.49030   0.99916   0.85964   0.00000  Uiso   1.00
O177   O     0.99123   0.36270   0.44131   0.00000  Uiso   1.00
O178   O     0.50653   0.89541   0.43821   0.00000  Uiso   1.00
N179   N     0.43778   0.20891   0.81026   0.00000  Uiso   1.00
N180   N     0.08213   0.46794   0.51216   0.00000  Uiso   1.00
N181   N     0.44931   0.84757   0.50993   0.00000  Uiso   1.00
N182   N     0.45037   0.03083   0.74814   0.00000  Uiso   1.00
N183   N     0.09471   0.28986   0.45004   0.00000  Uiso   1.00
N184   N     0.46190   0.66949   0.44782   0.00000  Uiso   1.00
