data_job_00231
_audit_creation_date              2018-12-19
_audit_creation_method            'Materials Studio'
_symmetry_space_group_name_H-M    'P1'
_symmetry_Int_Tables_number       1
_symmetry_cell_setting            triclinic
loop_
_symmetry_equiv_pos_as_xyz
  x,y,z
_cell_length_a                    20.3145
_cell_length_b                    10.2703
_cell_length_c                    23.4676
_cell_angle_alpha                 90.0000
_cell_angle_beta                  95.1955
_cell_angle_gamma                 90.0000
loop_
_atom_site_label
_atom_site_type_symbol
_atom_site_fract_x
_atom_site_fract_y
_atom_site_fract_z
_atom_site_U_iso_or_equiv
_atom_site_adp_type
_atom_site_occupancy
C1     C     0.79656   0.54882   0.77156   0.00000  Uiso   1.00
C2     C     0.81200   0.63559   0.72175   0.00000  Uiso   1.00
C3     C     0.77983   0.63254   0.66701   0.00000  Uiso   1.00
C4     C     0.80129   0.71985   0.62749   0.00000  Uiso   1.00
C5     C     0.81737   0.84136   0.54791   0.00000  Uiso   1.00
C6     C     0.78190   0.64066   0.81988   0.00000  Uiso   1.00
C7     C     0.72442   0.64186   0.84766   0.00000  Uiso   1.00
C8     C     0.72055   0.73343   0.89075   0.00000  Uiso   1.00
C9     C     0.68992   0.86275   0.96356   0.00000  Uiso   1.00
C10    C     0.86108   0.48020   0.79165   0.00000  Uiso   1.00
C11    C     0.87018   0.34649   0.79571   0.00000  Uiso   1.00
C12    C     0.93297   0.30296   0.81505   0.00000  Uiso   1.00
C13    C     0.02528   0.18315   0.84402   0.00000  Uiso   1.00
C14    C     0.89187   0.70930   0.79870   0.00000  Uiso   1.00
C15    C     0.86377   0.72275   0.73649   0.00000  Uiso   1.00
C16    C     0.88528   0.81009   0.69704   0.00000  Uiso   1.00
C17    C     0.85315   0.80717   0.64225   0.00000  Uiso   1.00
C18    C     0.83366   0.72783   0.83462   0.00000  Uiso   1.00
C19    C     0.82987   0.81941   0.87769   0.00000  Uiso   1.00
C20    C     0.77241   0.82076   0.90552   0.00000  Uiso   1.00
C21    C     0.91285   0.56737   0.80639   0.00000  Uiso   1.00
C22    C     0.97563   0.52404   0.82573   0.00000  Uiso   1.00
C23    C     0.98483   0.39029   0.82982   0.00000  Uiso   1.00
H24    H     0.75625   0.48096   0.76009   0.00000  Uiso   1.00
H25    H     0.73977   0.56507   0.65562   0.00000  Uiso   1.00
H26    H     0.68437   0.57439   0.83625   0.00000  Uiso   1.00
H27    H     0.83011   0.27907   0.78430   0.00000  Uiso   1.00
H28    H     0.74431   0.69680   0.54631   0.00000  Uiso   1.00
H29    H     0.62751   0.71641   0.92718   0.00000  Uiso   1.00
H30    H     0.93483   0.09366   0.81764   0.00000  Uiso   1.00
H31    H     0.93217   0.77717   0.81018   0.00000  Uiso   1.00
H32    H     0.92535   0.87753   0.70846   0.00000  Uiso   1.00
H33    H     0.86995   0.88684   0.88909   0.00000  Uiso   1.00
H34    H     0.01568   0.59152   0.83714   0.00000  Uiso   1.00
H35    H     0.89493   0.95041   0.58920   0.00000  Uiso   1.00
H36    H     0.77813   0.97001   0.97007   0.00000  Uiso   1.00
H37    H     0.08545   0.34726   0.86053   0.00000  Uiso   1.00
O38    O     0.81194   0.88431   0.49994   0.00000  Uiso   1.00
O39    O     0.65871   0.91001   0.99963   0.00000  Uiso   1.00
O40    O     0.06190   0.09299   0.85592   0.00000  Uiso   1.00
N41    N     0.78070   0.74269   0.57036   0.00000  Uiso   1.00
N42    N     0.67150   0.76104   0.92644   0.00000  Uiso   1.00
N43    N     0.95881   0.17882   0.82405   0.00000  Uiso   1.00
N44    N     0.86175   0.87916   0.59344   0.00000  Uiso   1.00
N45    N     0.75255   0.89750   0.94952   0.00000  Uiso   1.00
N46    N     0.03986   0.31528   0.84713   0.00000  Uiso   1.00
C47    C     0.29656   0.04882   0.77156   0.00000  Uiso   1.00
C48    C     0.31200   0.13559   0.72175   0.00000  Uiso   1.00
C49    C     0.27983   0.13254   0.66701   0.00000  Uiso   1.00
C50    C     0.30129   0.21985   0.62749   0.00000  Uiso   1.00
C51    C     0.31737   0.34136   0.54791   0.00000  Uiso   1.00
C52    C     0.28190   0.14066   0.81988   0.00000  Uiso   1.00
C53    C     0.22442   0.14186   0.84766   0.00000  Uiso   1.00
C54    C     0.22055   0.23343   0.89075   0.00000  Uiso   1.00
C55    C     0.18992   0.36275   0.96356   0.00000  Uiso   1.00
C56    C     0.36108   0.98020   0.79165   0.00000  Uiso   1.00
C57    C     0.37018   0.84649   0.79571   0.00000  Uiso   1.00
C58    C     0.43297   0.80296   0.81505   0.00000  Uiso   1.00
C59    C     0.52528   0.68315   0.84402   0.00000  Uiso   1.00
C60    C     0.39187   0.20930   0.79870   0.00000  Uiso   1.00
C61    C     0.36377   0.22275   0.73649   0.00000  Uiso   1.00
C62    C     0.38528   0.31009   0.69704   0.00000  Uiso   1.00
C63    C     0.35315   0.30717   0.64225   0.00000  Uiso   1.00
C64    C     0.33366   0.22783   0.83462   0.00000  Uiso   1.00
C65    C     0.32987   0.31941   0.87769   0.00000  Uiso   1.00
C66    C     0.27241   0.32076   0.90552   0.00000  Uiso   1.00
C67    C     0.41285   0.06737   0.80639   0.00000  Uiso   1.00
C68    C     0.47563   0.02404   0.82573   0.00000  Uiso   1.00
C69    C     0.48483   0.89029   0.82982   0.00000  Uiso   1.00
H70    H     0.25625   0.98096   0.76009   0.00000  Uiso   1.00
H71    H     0.23977   0.06507   0.65562   0.00000  Uiso   1.00
H72    H     0.18437   0.07439   0.83625   0.00000  Uiso   1.00
H73    H     0.33011   0.77907   0.78430   0.00000  Uiso   1.00
H74    H     0.24431   0.19680   0.54631   0.00000  Uiso   1.00
H75    H     0.12751   0.21641   0.92718   0.00000  Uiso   1.00
H76    H     0.43483   0.59366   0.81764   0.00000  Uiso   1.00
H77    H     0.43217   0.27717   0.81018   0.00000  Uiso   1.00
H78    H     0.42535   0.37753   0.70846   0.00000  Uiso   1.00
H79    H     0.36995   0.38684   0.88909   0.00000  Uiso   1.00
H80    H     0.51568   0.09152   0.83714   0.00000  Uiso   1.00
H81    H     0.39493   0.45041   0.58920   0.00000  Uiso   1.00
H82    H     0.27813   0.47001   0.97007   0.00000  Uiso   1.00
H83    H     0.58545   0.84726   0.86053   0.00000  Uiso   1.00
O84    O     0.31194   0.38431   0.49994   0.00000  Uiso   1.00
O85    O     0.15871   0.41001   0.99963   0.00000  Uiso   1.00
O86    O     0.56190   0.59299   0.85592   0.00000  Uiso   1.00
N87    N     0.28070   0.24269   0.57036   0.00000  Uiso   1.00
N88    N     0.17150   0.26104   0.92644   0.00000  Uiso   1.00
N89    N     0.45881   0.67882   0.82405   0.00000  Uiso   1.00
N90    N     0.36175   0.37916   0.59344   0.00000  Uiso   1.00
N91    N     0.25255   0.39750   0.94952   0.00000  Uiso   1.00
N92    N     0.53986   0.81528   0.84713   0.00000  Uiso   1.00
C93    C     0.20344   0.54882   0.72844   0.00000  Uiso   1.00
C94    C     0.18800   0.63559   0.77825   0.00000  Uiso   1.00
C95    C     0.22017   0.63254   0.83299   0.00000  Uiso   1.00
C96    C     0.19871   0.71985   0.87251   0.00000  Uiso   1.00
C97    C     0.18263   0.84136   0.95209   0.00000  Uiso   1.00
C98    C     0.21810   0.64066   0.68012   0.00000  Uiso   1.00
C99    C     0.27558   0.64186   0.65234   0.00000  Uiso   1.00
C100   C     0.27945   0.73343   0.60925   0.00000  Uiso   1.00
C101   C     0.31008   0.86275   0.53644   0.00000  Uiso   1.00
C102   C     0.13892   0.48020   0.70835   0.00000  Uiso   1.00
C103   C     0.12982   0.34649   0.70429   0.00000  Uiso   1.00
C104   C     0.06703   0.30296   0.68495   0.00000  Uiso   1.00
C105   C     0.97472   0.18315   0.65598   0.00000  Uiso   1.00
C106   C     0.10813   0.70930   0.70130   0.00000  Uiso   1.00
C107   C     0.13623   0.72275   0.76351   0.00000  Uiso   1.00
C108   C     0.11472   0.81009   0.80296   0.00000  Uiso   1.00
C109   C     0.14685   0.80717   0.85775   0.00000  Uiso   1.00
C110   C     0.16634   0.72783   0.66538   0.00000  Uiso   1.00
C111   C     0.17013   0.81941   0.62231   0.00000  Uiso   1.00
C112   C     0.22759   0.82076   0.59448   0.00000  Uiso   1.00
C113   C     0.08715   0.56737   0.69361   0.00000  Uiso   1.00
C114   C     0.02437   0.52404   0.67427   0.00000  Uiso   1.00
C115   C     0.01517   0.39029   0.67018   0.00000  Uiso   1.00
H116   H     0.24375   0.48096   0.73991   0.00000  Uiso   1.00
H117   H     0.26023   0.56507   0.84438   0.00000  Uiso   1.00
H118   H     0.31563   0.57439   0.66375   0.00000  Uiso   1.00
H119   H     0.16989   0.27907   0.71570   0.00000  Uiso   1.00
H120   H     0.25569   0.69680   0.95369   0.00000  Uiso   1.00
H121   H     0.37249   0.71641   0.57282   0.00000  Uiso   1.00
H122   H     0.06517   0.09366   0.68236   0.00000  Uiso   1.00
H123   H     0.06783   0.77717   0.68982   0.00000  Uiso   1.00
H124   H     0.07465   0.87753   0.79154   0.00000  Uiso   1.00
H125   H     0.13005   0.88684   0.61091   0.00000  Uiso   1.00
H126   H     0.98432   0.59152   0.66286   0.00000  Uiso   1.00
H127   H     0.10507   0.95041   0.91080   0.00000  Uiso   1.00
H128   H     0.22187   0.97001   0.52993   0.00000  Uiso   1.00
H129   H     0.91455   0.34726   0.63947   0.00000  Uiso   1.00
O130   O     0.18806   0.88431   0.00006   0.00000  Uiso   1.00
O131   O     0.34129   0.91001   0.50037   0.00000  Uiso   1.00
O132   O     0.93810   0.09299   0.64408   0.00000  Uiso   1.00
N133   N     0.21930   0.74269   0.92964   0.00000  Uiso   1.00
N134   N     0.32850   0.76104   0.57356   0.00000  Uiso   1.00
N135   N     0.04119   0.17882   0.67595   0.00000  Uiso   1.00
N136   N     0.13825   0.87916   0.90656   0.00000  Uiso   1.00
N137   N     0.24745   0.89750   0.55048   0.00000  Uiso   1.00
N138   N     0.96014   0.31528   0.65287   0.00000  Uiso   1.00
C139   C     0.70344   0.04882   0.72844   0.00000  Uiso   1.00
C140   C     0.68800   0.13559   0.77825   0.00000  Uiso   1.00
C141   C     0.72017   0.13254   0.83299   0.00000  Uiso   1.00
C142   C     0.69871   0.21985   0.87251   0.00000  Uiso   1.00
C143   C     0.68263   0.34136   0.95209   0.00000  Uiso   1.00
C144   C     0.71810   0.14066   0.68012   0.00000  Uiso   1.00
C145   C     0.77558   0.14186   0.65234   0.00000  Uiso   1.00
C146   C     0.77945   0.23343   0.60925   0.00000  Uiso   1.00
C147   C     0.81008   0.36275   0.53644   0.00000  Uiso   1.00
C148   C     0.63892   0.98020   0.70835   0.00000  Uiso   1.00
C149   C     0.62982   0.84649   0.70429   0.00000  Uiso   1.00
C150   C     0.56703   0.80296   0.68495   0.00000  Uiso   1.00
C151   C     0.47472   0.68315   0.65598   0.00000  Uiso   1.00
C152   C     0.60813   0.20930   0.70130   0.00000  Uiso   1.00
C153   C     0.63623   0.22275   0.76351   0.00000  Uiso   1.00
C154   C     0.61472   0.31009   0.80296   0.00000  Uiso   1.00
C155   C     0.64685   0.30717   0.85775   0.00000  Uiso   1.00
C156   C     0.66634   0.22783   0.66538   0.00000  Uiso   1.00
C157   C     0.67013   0.31941   0.62231   0.00000  Uiso   1.00
C158   C     0.72759   0.32076   0.59448   0.00000  Uiso   1.00
C159   C     0.58715   0.06737   0.69361   0.00000  Uiso   1.00
C160   C     0.52437   0.02404   0.67427   0.00000  Uiso   1.00
C161   C     0.51517   0.89029   0.67018   0.00000  Uiso   1.00
H162   H     0.74375   0.98096   0.73991   0.00000  Uiso   1.00
H163   H     0.76023   0.06507   0.84438   0.00000  Uiso   1.00
H164   H     0.81563   0.07439   0.66375   0.00000  Uiso   1.00
H165   H     0.66989   0.77907   0.71570   0.00000  Uiso   1.00
H166   H     0.75569   0.19680   0.95369   0.00000  Uiso   1.00
H167   H     0.87249   0.21641   0.57282   0.00000  Uiso   1.00
H168   H     0.56517   0.59366   0.68236   0.00000  Uiso   1.00
H169   H     0.56783   0.27717   0.68982   0.00000  Uiso   1.00
H170   H     0.57465   0.37753   0.79154   0.00000  Uiso   1.00
H171   H     0.63005   0.38684   0.61091   0.00000  Uiso   1.00
H172   H     0.48432   0.09152   0.66286   0.00000  Uiso   1.00
H173   H     0.60507   0.45041   0.91080   0.00000  Uiso   1.00
H174   H     0.72187   0.47001   0.52993   0.00000  Uiso   1.00
H175   H     0.41455   0.84726   0.63947   0.00000  Uiso   1.00
O176   O     0.68806   0.38431   0.00006   0.00000  Uiso   1.00
O177   O     0.84129   0.41001   0.50037   0.00000  Uiso   1.00
O178   O     0.43810   0.59299   0.64408   0.00000  Uiso   1.00
N179   N     0.71930   0.24269   0.92964   0.00000  Uiso   1.00
N180   N     0.82850   0.26104   0.57356   0.00000  Uiso   1.00
N181   N     0.54119   0.67882   0.67595   0.00000  Uiso   1.00
N182   N     0.63825   0.37916   0.90656   0.00000  Uiso   1.00
N183   N     0.74745   0.39750   0.55048   0.00000  Uiso   1.00
N184   N     0.46014   0.81528   0.65287   0.00000  Uiso   1.00
C185   C     0.20344   0.45118   0.22844   0.00000  Uiso   1.00
C186   C     0.18800   0.36441   0.27825   0.00000  Uiso   1.00
C187   C     0.22017   0.36746   0.33299   0.00000  Uiso   1.00
C188   C     0.19871   0.28015   0.37251   0.00000  Uiso   1.00
C189   C     0.18263   0.15864   0.45209   0.00000  Uiso   1.00
C190   C     0.21810   0.35934   0.18012   0.00000  Uiso   1.00
C191   C     0.27558   0.35814   0.15234   0.00000  Uiso   1.00
C192   C     0.27945   0.26657   0.10925   0.00000  Uiso   1.00
C193   C     0.31008   0.13725   0.03644   0.00000  Uiso   1.00
C194   C     0.13892   0.51980   0.20835   0.00000  Uiso   1.00
C195   C     0.12982   0.65351   0.20429   0.00000  Uiso   1.00
C196   C     0.06703   0.69704   0.18495   0.00000  Uiso   1.00
C197   C     0.97472   0.81685   0.15598   0.00000  Uiso   1.00
C198   C     0.10813   0.29070   0.20130   0.00000  Uiso   1.00
C199   C     0.13623   0.27725   0.26351   0.00000  Uiso   1.00
C200   C     0.11472   0.18991   0.30296   0.00000  Uiso   1.00
C201   C     0.14685   0.19283   0.35775   0.00000  Uiso   1.00
C202   C     0.16634   0.27217   0.16538   0.00000  Uiso   1.00
C203   C     0.17013   0.18059   0.12231   0.00000  Uiso   1.00
C204   C     0.22759   0.17924   0.09448   0.00000  Uiso   1.00
C205   C     0.08715   0.43263   0.19361   0.00000  Uiso   1.00
C206   C     0.02437   0.47596   0.17427   0.00000  Uiso   1.00
C207   C     0.01517   0.60971   0.17018   0.00000  Uiso   1.00
H208   H     0.24375   0.51904   0.23991   0.00000  Uiso   1.00
H209   H     0.26023   0.43493   0.34438   0.00000  Uiso   1.00
H210   H     0.31563   0.42561   0.16375   0.00000  Uiso   1.00
H211   H     0.16989   0.72093   0.21570   0.00000  Uiso   1.00
H212   H     0.25569   0.30320   0.45369   0.00000  Uiso   1.00
H213   H     0.37249   0.28359   0.07282   0.00000  Uiso   1.00
H214   H     0.06517   0.90634   0.18236   0.00000  Uiso   1.00
H215   H     0.06783   0.22283   0.18982   0.00000  Uiso   1.00
H216   H     0.07465   0.12247   0.29154   0.00000  Uiso   1.00
H217   H     0.13005   0.11316   0.11091   0.00000  Uiso   1.00
H218   H     0.98432   0.40848   0.16286   0.00000  Uiso   1.00
H219   H     0.10507   0.04959   0.41080   0.00000  Uiso   1.00
H220   H     0.22187   0.02999   0.02993   0.00000  Uiso   1.00
H221   H     0.91455   0.65274   0.13947   0.00000  Uiso   1.00
O222   O     0.18806   0.11569   0.50006   0.00000  Uiso   1.00
O223   O     0.34129   0.08999   0.00037   0.00000  Uiso   1.00
O224   O     0.93810   0.90701   0.14408   0.00000  Uiso   1.00
N225   N     0.21930   0.25731   0.42964   0.00000  Uiso   1.00
N226   N     0.32850   0.23896   0.07356   0.00000  Uiso   1.00
N227   N     0.04119   0.82118   0.17595   0.00000  Uiso   1.00
N228   N     0.13825   0.12084   0.40656   0.00000  Uiso   1.00
N229   N     0.24745   0.10250   0.05048   0.00000  Uiso   1.00
N230   N     0.96014   0.68472   0.15287   0.00000  Uiso   1.00
C231   C     0.70344   0.95118   0.22844   0.00000  Uiso   1.00
C232   C     0.68800   0.86441   0.27825   0.00000  Uiso   1.00
C233   C     0.72017   0.86746   0.33299   0.00000  Uiso   1.00
C234   C     0.69871   0.78015   0.37251   0.00000  Uiso   1.00
C235   C     0.68263   0.65864   0.45209   0.00000  Uiso   1.00
C236   C     0.71810   0.85934   0.18012   0.00000  Uiso   1.00
C237   C     0.77558   0.85814   0.15234   0.00000  Uiso   1.00
C238   C     0.77945   0.76657   0.10925   0.00000  Uiso   1.00
C239   C     0.81008   0.63725   0.03644   0.00000  Uiso   1.00
C240   C     0.63892   0.01980   0.20835   0.00000  Uiso   1.00
C241   C     0.62982   0.15351   0.20429   0.00000  Uiso   1.00
C242   C     0.56703   0.19704   0.18495   0.00000  Uiso   1.00
C243   C     0.47472   0.31685   0.15598   0.00000  Uiso   1.00
C244   C     0.60813   0.79070   0.20130   0.00000  Uiso   1.00
C245   C     0.63623   0.77725   0.26351   0.00000  Uiso   1.00
C246   C     0.61472   0.68991   0.30296   0.00000  Uiso   1.00
C247   C     0.64685   0.69283   0.35775   0.00000  Uiso   1.00
C248   C     0.66634   0.77217   0.16538   0.00000  Uiso   1.00
C249   C     0.67013   0.68059   0.12231   0.00000  Uiso   1.00
C250   C     0.72759   0.67924   0.09448   0.00000  Uiso   1.00
C251   C     0.58715   0.93263   0.19361   0.00000  Uiso   1.00
C252   C     0.52437   0.97596   0.17427   0.00000  Uiso   1.00
C253   C     0.51517   0.10971   0.17018   0.00000  Uiso   1.00
H254   H     0.74375   0.01904   0.23991   0.00000  Uiso   1.00
H255   H     0.76023   0.93493   0.34438   0.00000  Uiso   1.00
H256   H     0.81563   0.92561   0.16375   0.00000  Uiso   1.00
H257   H     0.66989   0.22093   0.21570   0.00000  Uiso   1.00
H258   H     0.75569   0.80320   0.45369   0.00000  Uiso   1.00
H259   H     0.87249   0.78359   0.07282   0.00000  Uiso   1.00
H260   H     0.56517   0.40634   0.18236   0.00000  Uiso   1.00
H261   H     0.56783   0.72283   0.18982   0.00000  Uiso   1.00
H262   H     0.57465   0.62247   0.29154   0.00000  Uiso   1.00
H263   H     0.63005   0.61316   0.11091   0.00000  Uiso   1.00
H264   H     0.48432   0.90848   0.16286   0.00000  Uiso   1.00
H265   H     0.60507   0.54959   0.41080   0.00000  Uiso   1.00
H266   H     0.72187   0.52999   0.02993   0.00000  Uiso   1.00
H267   H     0.41455   0.15274   0.13947   0.00000  Uiso   1.00
O268   O     0.68806   0.61569   0.50006   0.00000  Uiso   1.00
O269   O     0.84129   0.58999   0.00037   0.00000  Uiso   1.00
O270   O     0.43810   0.40701   0.14408   0.00000  Uiso   1.00
N271   N     0.71930   0.75731   0.42964   0.00000  Uiso   1.00
N272   N     0.82850   0.73896   0.07356   0.00000  Uiso   1.00
N273   N     0.54119   0.32118   0.17595   0.00000  Uiso   1.00
N274   N     0.63825   0.62084   0.40656   0.00000  Uiso   1.00
N275   N     0.74745   0.60250   0.05048   0.00000  Uiso   1.00
N276   N     0.46014   0.18472   0.15287   0.00000  Uiso   1.00
C277   C     0.79656   0.45118   0.27156   0.00000  Uiso   1.00
C278   C     0.81200   0.36441   0.22175   0.00000  Uiso   1.00
C279   C     0.77983   0.36746   0.16701   0.00000  Uiso   1.00
C280   C     0.80129   0.28015   0.12749   0.00000  Uiso   1.00
C281   C     0.81737   0.15864   0.04791   0.00000  Uiso   1.00
C282   C     0.78190   0.35934   0.31988   0.00000  Uiso   1.00
C283   C     0.72442   0.35814   0.34766   0.00000  Uiso   1.00
C284   C     0.72055   0.26657   0.39075   0.00000  Uiso   1.00
C285   C     0.68992   0.13725   0.46356   0.00000  Uiso   1.00
C286   C     0.86108   0.51980   0.29165   0.00000  Uiso   1.00
C287   C     0.87018   0.65351   0.29571   0.00000  Uiso   1.00
C288   C     0.93297   0.69704   0.31505   0.00000  Uiso   1.00
C289   C     0.02528   0.81685   0.34402   0.00000  Uiso   1.00
C290   C     0.89187   0.29070   0.29870   0.00000  Uiso   1.00
C291   C     0.86377   0.27725   0.23649   0.00000  Uiso   1.00
C292   C     0.88528   0.18991   0.19704   0.00000  Uiso   1.00
C293   C     0.85315   0.19283   0.14225   0.00000  Uiso   1.00
C294   C     0.83366   0.27217   0.33462   0.00000  Uiso   1.00
C295   C     0.82987   0.18059   0.37769   0.00000  Uiso   1.00
C296   C     0.77241   0.17924   0.40552   0.00000  Uiso   1.00
C297   C     0.91285   0.43263   0.30639   0.00000  Uiso   1.00
C298   C     0.97563   0.47596   0.32573   0.00000  Uiso   1.00
C299   C     0.98483   0.60971   0.32982   0.00000  Uiso   1.00
H300   H     0.75625   0.51904   0.26009   0.00000  Uiso   1.00
H301   H     0.73977   0.43493   0.15562   0.00000  Uiso   1.00
H302   H     0.68437   0.42561   0.33625   0.00000  Uiso   1.00
H303   H     0.83011   0.72093   0.28430   0.00000  Uiso   1.00
H304   H     0.74431   0.30320   0.04631   0.00000  Uiso   1.00
H305   H     0.62751   0.28359   0.42718   0.00000  Uiso   1.00
H306   H     0.93483   0.90634   0.31764   0.00000  Uiso   1.00
H307   H     0.93217   0.22283   0.31018   0.00000  Uiso   1.00
H308   H     0.92535   0.12247   0.20846   0.00000  Uiso   1.00
H309   H     0.86995   0.11316   0.38909   0.00000  Uiso   1.00
H310   H     0.01568   0.40848   0.33714   0.00000  Uiso   1.00
H311   H     0.89493   0.04959   0.08920   0.00000  Uiso   1.00
H312   H     0.77813   0.02999   0.47007   0.00000  Uiso   1.00
H313   H     0.08545   0.65274   0.36053   0.00000  Uiso   1.00
O314   O     0.81194   0.11569   0.99994   0.00000  Uiso   1.00
O315   O     0.65871   0.08999   0.49963   0.00000  Uiso   1.00
O316   O     0.06190   0.90701   0.35592   0.00000  Uiso   1.00
N317   N     0.78070   0.25731   0.07036   0.00000  Uiso   1.00
N318   N     0.67150   0.23896   0.42644   0.00000  Uiso   1.00
N319   N     0.95881   0.82118   0.32405   0.00000  Uiso   1.00
N320   N     0.86175   0.12084   0.09344   0.00000  Uiso   1.00
N321   N     0.75255   0.10250   0.44952   0.00000  Uiso   1.00
N322   N     0.03986   0.68472   0.34713   0.00000  Uiso   1.00
C323   C     0.29656   0.95118   0.27156   0.00000  Uiso   1.00
C324   C     0.31200   0.86441   0.22175   0.00000  Uiso   1.00
C325   C     0.27983   0.86746   0.16701   0.00000  Uiso   1.00
C326   C     0.30129   0.78015   0.12749   0.00000  Uiso   1.00
C327   C     0.31737   0.65864   0.04791   0.00000  Uiso   1.00
C328   C     0.28190   0.85934   0.31988   0.00000  Uiso   1.00
C329   C     0.22442   0.85814   0.34766   0.00000  Uiso   1.00
C330   C     0.22055   0.76657   0.39075   0.00000  Uiso   1.00
C331   C     0.18992   0.63725   0.46356   0.00000  Uiso   1.00
C332   C     0.36108   0.01980   0.29165   0.00000  Uiso   1.00
C333   C     0.37018   0.15351   0.29571   0.00000  Uiso   1.00
C334   C     0.43297   0.19704   0.31505   0.00000  Uiso   1.00
C335   C     0.52528   0.31685   0.34402   0.00000  Uiso   1.00
C336   C     0.39187   0.79070   0.29870   0.00000  Uiso   1.00
C337   C     0.36377   0.77725   0.23649   0.00000  Uiso   1.00
C338   C     0.38528   0.68991   0.19704   0.00000  Uiso   1.00
C339   C     0.35315   0.69283   0.14225   0.00000  Uiso   1.00
C340   C     0.33366   0.77217   0.33462   0.00000  Uiso   1.00
C341   C     0.32987   0.68059   0.37769   0.00000  Uiso   1.00
C342   C     0.27241   0.67924   0.40552   0.00000  Uiso   1.00
C343   C     0.41285   0.93263   0.30639   0.00000  Uiso   1.00
C344   C     0.47563   0.97596   0.32573   0.00000  Uiso   1.00
C345   C     0.48483   0.10971   0.32982   0.00000  Uiso   1.00
H346   H     0.25625   0.01904   0.26009   0.00000  Uiso   1.00
H347   H     0.23977   0.93493   0.15562   0.00000  Uiso   1.00
H348   H     0.18437   0.92561   0.33625   0.00000  Uiso   1.00
H349   H     0.33011   0.22093   0.28430   0.00000  Uiso   1.00
H350   H     0.24431   0.80320   0.04631   0.00000  Uiso   1.00
H351   H     0.12751   0.78359   0.42718   0.00000  Uiso   1.00
H352   H     0.43483   0.40634   0.31764   0.00000  Uiso   1.00
H353   H     0.43217   0.72283   0.31018   0.00000  Uiso   1.00
H354   H     0.42535   0.62247   0.20846   0.00000  Uiso   1.00
H355   H     0.36995   0.61316   0.38909   0.00000  Uiso   1.00
H356   H     0.51568   0.90848   0.33714   0.00000  Uiso   1.00
H357   H     0.39493   0.54959   0.08920   0.00000  Uiso   1.00
H358   H     0.27813   0.52999   0.47007   0.00000  Uiso   1.00
H359   H     0.58545   0.15274   0.36053   0.00000  Uiso   1.00
O360   O     0.31194   0.61569   0.99994   0.00000  Uiso   1.00
O361   O     0.15871   0.58999   0.49963   0.00000  Uiso   1.00
O362   O     0.56190   0.40701   0.35592   0.00000  Uiso   1.00
N363   N     0.28070   0.75731   0.07036   0.00000  Uiso   1.00
N364   N     0.17150   0.73896   0.42644   0.00000  Uiso   1.00
N365   N     0.45881   0.32118   0.32405   0.00000  Uiso   1.00
N366   N     0.36175   0.62084   0.09344   0.00000  Uiso   1.00
N367   N     0.25255   0.60250   0.44952   0.00000  Uiso   1.00
N368   N     0.53986   0.18472   0.34713   0.00000  Uiso   1.00
