data_job_00342
_audit_creation_date              2018-12-19
_audit_creation_method            'Materials Studio'
_symmetry_space_group_name_H-M    'P1'
_symmetry_Int_Tables_number       1
_symmetry_cell_setting            triclinic
loop_
_symmetry_equiv_pos_as_xyz
  x,y,z
_cell_length_a                    18.4166
_cell_length_b                    19.0528
_cell_length_c                    14.6533
_cell_angle_alpha                 90.0000
_cell_angle_beta                  90.0000
_cell_angle_gamma                 90.0000
loop_
_atom_site_label
_atom_site_type_symbol
_atom_site_fract_x
_atom_site_fract_y
_atom_site_fract_z
_atom_site_U_iso_or_equiv
_atom_site_adp_type
_atom_site_occupancy
C1     C     0.25057   0.56096   0.53099   0.00000  Uiso   1.00
C2     C     0.25032   0.48714   0.57118   0.00000  Uiso   1.00
C3     C     0.25063   0.42506   0.52163   0.00000  Uiso   1.00
C4     C     0.25030   0.36291   0.57108   0.00000  Uiso   1.00
C5     C     0.24997   0.24827   0.61895   0.00000  Uiso   1.00
C6     C     0.18417   0.59787   0.57052   0.00000  Uiso   1.00
C7     C     0.12887   0.62891   0.52042   0.00000  Uiso   1.00
C8     C     0.07287   0.65998   0.56933   0.00000  Uiso   1.00
C9     C     0.96987   0.71731   0.61617   0.00000  Uiso   1.00
C10    C     0.31645   0.59788   0.57184   0.00000  Uiso   1.00
C11    C     0.37237   0.62895   0.52285   0.00000  Uiso   1.00
C12    C     0.42773   0.66005   0.57287   0.00000  Uiso   1.00
C13    C     0.53011   0.71740   0.62176   0.00000  Uiso   1.00
C14    C     0.24946   0.56096   0.70693   0.00000  Uiso   1.00
C15    C     0.24972   0.48714   0.66674   0.00000  Uiso   1.00
C16    C     0.24940   0.42506   0.71629   0.00000  Uiso   1.00
C17    C     0.24970   0.36291   0.66682   0.00000  Uiso   1.00
C18    C     0.18357   0.59787   0.66608   0.00000  Uiso   1.00
C19    C     0.12764   0.62891   0.71508   0.00000  Uiso   1.00
C20    C     0.07226   0.65998   0.66506   0.00000  Uiso   1.00
C21    C     0.31585   0.59788   0.66741   0.00000  Uiso   1.00
C22    C     0.37113   0.62895   0.71751   0.00000  Uiso   1.00
C23    C     0.42712   0.66005   0.66861   0.00000  Uiso   1.00
H24    H     0.25104   0.56097   0.45659   0.00000  Uiso   1.00
H25    H     0.25109   0.42509   0.44767   0.00000  Uiso   1.00
H26    H     0.12936   0.62891   0.44646   0.00000  Uiso   1.00
H27    H     0.37281   0.62894   0.44889   0.00000  Uiso   1.00
H28    H     0.25085   0.27444   0.47993   0.00000  Uiso   1.00
H29    H     0.99418   0.70423   0.47738   0.00000  Uiso   1.00
H30    H     0.50756   0.70431   0.48251   0.00000  Uiso   1.00
H31    H     0.24899   0.56097   0.78134   0.00000  Uiso   1.00
H32    H     0.24893   0.42508   0.79025   0.00000  Uiso   1.00
H33    H     0.12719   0.62890   0.78903   0.00000  Uiso   1.00
H34    H     0.37065   0.62894   0.79147   0.00000  Uiso   1.00
H35    H     0.24909   0.27443   0.75798   0.00000  Uiso   1.00
H36    H     0.99242   0.70423   0.75543   0.00000  Uiso   1.00
H37    H     0.50580   0.70430   0.76056   0.00000  Uiso   1.00
O38    O     0.24994   0.18504   0.61895   0.00000  Uiso   1.00
O39    O     0.91321   0.74892   0.61561   0.00000  Uiso   1.00
O40    O     0.58675   0.74902   0.62233   0.00000  Uiso   1.00
N41    N     0.25046   0.29308   0.54415   0.00000  Uiso   1.00
N42    N     0.01048   0.69490   0.54176   0.00000  Uiso   1.00
N43    N     0.49044   0.69499   0.54656   0.00000  Uiso   1.00
N44    N     0.24951   0.29308   0.69376   0.00000  Uiso   1.00
N45    N     0.00954   0.69490   0.69138   0.00000  Uiso   1.00
N46    N     0.48949   0.69499   0.69617   0.00000  Uiso   1.00
C47    C     0.87892   0.06196   0.45695   0.00000  Uiso   1.00
C48    C     0.87897   0.98813   0.41676   0.00000  Uiso   1.00
C49    C     0.87903   0.92606   0.46631   0.00000  Uiso   1.00
C50    C     0.87909   0.86390   0.41685   0.00000  Uiso   1.00
C51    C     0.87921   0.74927   0.36898   0.00000  Uiso   1.00
C52    C     0.94503   0.09891   0.41675   0.00000  Uiso   1.00
C53    C     0.00063   0.13000   0.46630   0.00000  Uiso   1.00
C54    C     0.05629   0.16111   0.41683   0.00000  Uiso   1.00
C55    C     0.15895   0.21851   0.36896   0.00000  Uiso   1.00
C56    C     0.81275   0.09883   0.41676   0.00000  Uiso   1.00
C57    C     0.75713   0.12986   0.46631   0.00000  Uiso   1.00
C58    C     0.70142   0.16091   0.41684   0.00000  Uiso   1.00
C59    C     0.59869   0.21819   0.36898   0.00000  Uiso   1.00
C60    C     0.87892   0.06196   0.28100   0.00000  Uiso   1.00
C61    C     0.87897   0.98813   0.32119   0.00000  Uiso   1.00
C62    C     0.87903   0.92606   0.27164   0.00000  Uiso   1.00
C63    C     0.87909   0.86390   0.32111   0.00000  Uiso   1.00
C64    C     0.94504   0.09892   0.32119   0.00000  Uiso   1.00
C65    C     0.00063   0.12999   0.27163   0.00000  Uiso   1.00
C66    C     0.05629   0.16111   0.32109   0.00000  Uiso   1.00
C67    C     0.81275   0.09883   0.32119   0.00000  Uiso   1.00
C68    C     0.75713   0.12985   0.27164   0.00000  Uiso   1.00
C69    C     0.70143   0.16092   0.32110   0.00000  Uiso   1.00
H70    H     0.87892   0.06196   0.53135   0.00000  Uiso   1.00
H71    H     0.87904   0.92608   0.54027   0.00000  Uiso   1.00
H72    H     0.00061   0.12999   0.54026   0.00000  Uiso   1.00
H73    H     0.75715   0.12985   0.54026   0.00000  Uiso   1.00
H74    H     0.87919   0.77543   0.50801   0.00000  Uiso   1.00
H75    H     0.13553   0.20541   0.50799   0.00000  Uiso   1.00
H76    H     0.62213   0.20511   0.50800   0.00000  Uiso   1.00
H77    H     0.87892   0.06196   0.20659   0.00000  Uiso   1.00
H78    H     0.87903   0.92607   0.19768   0.00000  Uiso   1.00
H79    H     0.00061   0.12999   0.19767   0.00000  Uiso   1.00
H80    H     0.75714   0.12984   0.19768   0.00000  Uiso   1.00
H81    H     0.87919   0.77542   0.22995   0.00000  Uiso   1.00
H82    H     0.13552   0.20541   0.22993   0.00000  Uiso   1.00
H83    H     0.62213   0.20510   0.22994   0.00000  Uiso   1.00
O84    O     0.87929   0.68604   0.36898   0.00000  Uiso   1.00
O85    O     0.21558   0.25017   0.36896   0.00000  Uiso   1.00
O86    O     0.54202   0.24977   0.36897   0.00000  Uiso   1.00
N87    N     0.87916   0.79408   0.44379   0.00000  Uiso   1.00
N88    N     0.11882   0.19607   0.44377   0.00000  Uiso   1.00
N89    N     0.63885   0.19581   0.44378   0.00000  Uiso   1.00
N90    N     0.87916   0.79407   0.29417   0.00000  Uiso   1.00
N91    N     0.11882   0.19607   0.29415   0.00000  Uiso   1.00
N92    N     0.63885   0.19581   0.29416   0.00000  Uiso   1.00
C93    C     0.74943   0.43904   0.03099   0.00000  Uiso   1.00
C94    C     0.74968   0.51286   0.07118   0.00000  Uiso   1.00
C95    C     0.74937   0.57494   0.02163   0.00000  Uiso   1.00
C96    C     0.74970   0.63709   0.07108   0.00000  Uiso   1.00
C97    C     0.75003   0.75173   0.11895   0.00000  Uiso   1.00
C98    C     0.81583   0.40213   0.07052   0.00000  Uiso   1.00
C99    C     0.87113   0.37109   0.02042   0.00000  Uiso   1.00
C100   C     0.92713   0.34002   0.06933   0.00000  Uiso   1.00
C101   C     0.03013   0.28269   0.11617   0.00000  Uiso   1.00
C102   C     0.68355   0.40212   0.07184   0.00000  Uiso   1.00
C103   C     0.62763   0.37105   0.02285   0.00000  Uiso   1.00
C104   C     0.57227   0.33995   0.07287   0.00000  Uiso   1.00
C105   C     0.46989   0.28260   0.12176   0.00000  Uiso   1.00
C106   C     0.75054   0.43904   0.20693   0.00000  Uiso   1.00
C107   C     0.75028   0.51286   0.16674   0.00000  Uiso   1.00
C108   C     0.75060   0.57494   0.21629   0.00000  Uiso   1.00
C109   C     0.75030   0.63709   0.16682   0.00000  Uiso   1.00
C110   C     0.81643   0.40213   0.16608   0.00000  Uiso   1.00
C111   C     0.87236   0.37109   0.21508   0.00000  Uiso   1.00
C112   C     0.92774   0.34002   0.16506   0.00000  Uiso   1.00
C113   C     0.68415   0.40212   0.16741   0.00000  Uiso   1.00
C114   C     0.62887   0.37105   0.21751   0.00000  Uiso   1.00
C115   C     0.57288   0.33995   0.16861   0.00000  Uiso   1.00
H116   H     0.74896   0.43903   0.95659   0.00000  Uiso   1.00
H117   H     0.74891   0.57491   0.94767   0.00000  Uiso   1.00
H118   H     0.87064   0.37109   0.94646   0.00000  Uiso   1.00
H119   H     0.62719   0.37106   0.94889   0.00000  Uiso   1.00
H120   H     0.74915   0.72556   0.97993   0.00000  Uiso   1.00
H121   H     0.00582   0.29577   0.97738   0.00000  Uiso   1.00
H122   H     0.49244   0.29569   0.98251   0.00000  Uiso   1.00
H123   H     0.75101   0.43903   0.28134   0.00000  Uiso   1.00
H124   H     0.75107   0.57492   0.29025   0.00000  Uiso   1.00
H125   H     0.87281   0.37110   0.28903   0.00000  Uiso   1.00
H126   H     0.62935   0.37106   0.29147   0.00000  Uiso   1.00
H127   H     0.75091   0.72557   0.25798   0.00000  Uiso   1.00
H128   H     0.00758   0.29577   0.25543   0.00000  Uiso   1.00
H129   H     0.49420   0.29570   0.26056   0.00000  Uiso   1.00
O130   O     0.75006   0.81496   0.11895   0.00000  Uiso   1.00
O131   O     0.08679   0.25108   0.11561   0.00000  Uiso   1.00
O132   O     0.41325   0.25098   0.12233   0.00000  Uiso   1.00
N133   N     0.74954   0.70692   0.04415   0.00000  Uiso   1.00
N134   N     0.98952   0.30510   0.04176   0.00000  Uiso   1.00
N135   N     0.50956   0.30501   0.04656   0.00000  Uiso   1.00
N136   N     0.75049   0.70692   0.19376   0.00000  Uiso   1.00
N137   N     0.99046   0.30510   0.19138   0.00000  Uiso   1.00
N138   N     0.51051   0.30501   0.19617   0.00000  Uiso   1.00
C139   C     0.12108   0.93804   0.95695   0.00000  Uiso   1.00
C140   C     0.12103   0.01187   0.91676   0.00000  Uiso   1.00
C141   C     0.12097   0.07394   0.96631   0.00000  Uiso   1.00
C142   C     0.12091   0.13610   0.91685   0.00000  Uiso   1.00
C143   C     0.12079   0.25073   0.86898   0.00000  Uiso   1.00
C144   C     0.05497   0.90109   0.91675   0.00000  Uiso   1.00
C145   C     0.99937   0.87000   0.96630   0.00000  Uiso   1.00
C146   C     0.94371   0.83889   0.91683   0.00000  Uiso   1.00
C147   C     0.84105   0.78149   0.86896   0.00000  Uiso   1.00
C148   C     0.18725   0.90117   0.91676   0.00000  Uiso   1.00
C149   C     0.24287   0.87014   0.96631   0.00000  Uiso   1.00
C150   C     0.29857   0.83909   0.91684   0.00000  Uiso   1.00
C151   C     0.40131   0.78181   0.86898   0.00000  Uiso   1.00
C152   C     0.12108   0.93804   0.78100   0.00000  Uiso   1.00
C153   C     0.12103   0.01187   0.82119   0.00000  Uiso   1.00
C154   C     0.12097   0.07394   0.77164   0.00000  Uiso   1.00
C155   C     0.12091   0.13610   0.82111   0.00000  Uiso   1.00
C156   C     0.05496   0.90108   0.82119   0.00000  Uiso   1.00
C157   C     0.99937   0.87001   0.77163   0.00000  Uiso   1.00
C158   C     0.94371   0.83889   0.82109   0.00000  Uiso   1.00
C159   C     0.18725   0.90117   0.82119   0.00000  Uiso   1.00
C160   C     0.24287   0.87015   0.77164   0.00000  Uiso   1.00
C161   C     0.29857   0.83908   0.82110   0.00000  Uiso   1.00
H162   H     0.12108   0.93804   0.03135   0.00000  Uiso   1.00
H163   H     0.12096   0.07392   0.04027   0.00000  Uiso   1.00
H164   H     0.99939   0.87001   0.04026   0.00000  Uiso   1.00
H165   H     0.24285   0.87015   0.04026   0.00000  Uiso   1.00
H166   H     0.12081   0.22457   0.00801   0.00000  Uiso   1.00
H167   H     0.86447   0.79459   0.00799   0.00000  Uiso   1.00
H168   H     0.37787   0.79489   0.00800   0.00000  Uiso   1.00
H169   H     0.12108   0.93804   0.70659   0.00000  Uiso   1.00
H170   H     0.12097   0.07393   0.69768   0.00000  Uiso   1.00
H171   H     0.99939   0.87001   0.69767   0.00000  Uiso   1.00
H172   H     0.24286   0.87016   0.69768   0.00000  Uiso   1.00
H173   H     0.12081   0.22458   0.72995   0.00000  Uiso   1.00
H174   H     0.86448   0.79459   0.72993   0.00000  Uiso   1.00
H175   H     0.37787   0.79490   0.72994   0.00000  Uiso   1.00
O176   O     0.12071   0.31396   0.86898   0.00000  Uiso   1.00
O177   O     0.78442   0.74983   0.86896   0.00000  Uiso   1.00
O178   O     0.45798   0.75023   0.86897   0.00000  Uiso   1.00
N179   N     0.12084   0.20592   0.94379   0.00000  Uiso   1.00
N180   N     0.88118   0.80393   0.94377   0.00000  Uiso   1.00
N181   N     0.36115   0.80419   0.94378   0.00000  Uiso   1.00
N182   N     0.12084   0.20593   0.79417   0.00000  Uiso   1.00
N183   N     0.88118   0.80393   0.79415   0.00000  Uiso   1.00
N184   N     0.36115   0.80419   0.79416   0.00000  Uiso   1.00
C185   C     0.75057   0.43904   0.53099   0.00000  Uiso   1.00
C186   C     0.75032   0.51286   0.57118   0.00000  Uiso   1.00
C187   C     0.75063   0.57494   0.52163   0.00000  Uiso   1.00
C188   C     0.75030   0.63709   0.57108   0.00000  Uiso   1.00
C189   C     0.74997   0.75173   0.61895   0.00000  Uiso   1.00
C190   C     0.68417   0.40213   0.57052   0.00000  Uiso   1.00
C191   C     0.62887   0.37109   0.52042   0.00000  Uiso   1.00
C192   C     0.57287   0.34002   0.56933   0.00000  Uiso   1.00
C193   C     0.46987   0.28269   0.61617   0.00000  Uiso   1.00
C194   C     0.81645   0.40212   0.57184   0.00000  Uiso   1.00
C195   C     0.87237   0.37105   0.52285   0.00000  Uiso   1.00
C196   C     0.92773   0.33995   0.57287   0.00000  Uiso   1.00
C197   C     0.03011   0.28260   0.62176   0.00000  Uiso   1.00
C198   C     0.74946   0.43904   0.70693   0.00000  Uiso   1.00
C199   C     0.74972   0.51286   0.66674   0.00000  Uiso   1.00
C200   C     0.74940   0.57494   0.71629   0.00000  Uiso   1.00
C201   C     0.74970   0.63709   0.66682   0.00000  Uiso   1.00
C202   C     0.68357   0.40213   0.66608   0.00000  Uiso   1.00
C203   C     0.62764   0.37109   0.71508   0.00000  Uiso   1.00
C204   C     0.57226   0.34002   0.66506   0.00000  Uiso   1.00
C205   C     0.81585   0.40212   0.66741   0.00000  Uiso   1.00
C206   C     0.87113   0.37105   0.71751   0.00000  Uiso   1.00
C207   C     0.92712   0.33995   0.66861   0.00000  Uiso   1.00
H208   H     0.75104   0.43903   0.45659   0.00000  Uiso   1.00
H209   H     0.75109   0.57491   0.44767   0.00000  Uiso   1.00
H210   H     0.62936   0.37109   0.44646   0.00000  Uiso   1.00
H211   H     0.87281   0.37106   0.44889   0.00000  Uiso   1.00
H212   H     0.75085   0.72556   0.47993   0.00000  Uiso   1.00
H213   H     0.49418   0.29577   0.47738   0.00000  Uiso   1.00
H214   H     0.00756   0.29569   0.48251   0.00000  Uiso   1.00
H215   H     0.74899   0.43903   0.78134   0.00000  Uiso   1.00
H216   H     0.74893   0.57492   0.79025   0.00000  Uiso   1.00
H217   H     0.62719   0.37110   0.78903   0.00000  Uiso   1.00
H218   H     0.87065   0.37106   0.79147   0.00000  Uiso   1.00
H219   H     0.74909   0.72557   0.75798   0.00000  Uiso   1.00
H220   H     0.49242   0.29577   0.75543   0.00000  Uiso   1.00
H221   H     0.00580   0.29570   0.76056   0.00000  Uiso   1.00
O222   O     0.74994   0.81496   0.61895   0.00000  Uiso   1.00
O223   O     0.41321   0.25108   0.61561   0.00000  Uiso   1.00
O224   O     0.08675   0.25098   0.62233   0.00000  Uiso   1.00
N225   N     0.75046   0.70692   0.54415   0.00000  Uiso   1.00
N226   N     0.51048   0.30510   0.54176   0.00000  Uiso   1.00
N227   N     0.99044   0.30501   0.54656   0.00000  Uiso   1.00
N228   N     0.74951   0.70692   0.69376   0.00000  Uiso   1.00
N229   N     0.50954   0.30510   0.69138   0.00000  Uiso   1.00
N230   N     0.98949   0.30501   0.69617   0.00000  Uiso   1.00
C231   C     0.37892   0.93804   0.45695   0.00000  Uiso   1.00
C232   C     0.37897   0.01187   0.41676   0.00000  Uiso   1.00
C233   C     0.37903   0.07394   0.46631   0.00000  Uiso   1.00
C234   C     0.37909   0.13610   0.41685   0.00000  Uiso   1.00
C235   C     0.37921   0.25073   0.36898   0.00000  Uiso   1.00
C236   C     0.44503   0.90109   0.41675   0.00000  Uiso   1.00
C237   C     0.50063   0.87000   0.46630   0.00000  Uiso   1.00
C238   C     0.55629   0.83889   0.41683   0.00000  Uiso   1.00
C239   C     0.65895   0.78149   0.36896   0.00000  Uiso   1.00
C240   C     0.31275   0.90117   0.41676   0.00000  Uiso   1.00
C241   C     0.25713   0.87014   0.46631   0.00000  Uiso   1.00
C242   C     0.20143   0.83909   0.41684   0.00000  Uiso   1.00
C243   C     0.09869   0.78181   0.36898   0.00000  Uiso   1.00
C244   C     0.37892   0.93804   0.28100   0.00000  Uiso   1.00
C245   C     0.37897   0.01187   0.32119   0.00000  Uiso   1.00
C246   C     0.37903   0.07394   0.27164   0.00000  Uiso   1.00
C247   C     0.37909   0.13610   0.32111   0.00000  Uiso   1.00
C248   C     0.44504   0.90108   0.32119   0.00000  Uiso   1.00
C249   C     0.50063   0.87001   0.27163   0.00000  Uiso   1.00
C250   C     0.55629   0.83889   0.32109   0.00000  Uiso   1.00
C251   C     0.31275   0.90117   0.32119   0.00000  Uiso   1.00
C252   C     0.25713   0.87015   0.27164   0.00000  Uiso   1.00
C253   C     0.20143   0.83908   0.32110   0.00000  Uiso   1.00
H254   H     0.37892   0.93804   0.53135   0.00000  Uiso   1.00
H255   H     0.37904   0.07392   0.54027   0.00000  Uiso   1.00
H256   H     0.50061   0.87001   0.54026   0.00000  Uiso   1.00
H257   H     0.25715   0.87015   0.54026   0.00000  Uiso   1.00
H258   H     0.37919   0.22457   0.50801   0.00000  Uiso   1.00
H259   H     0.63553   0.79459   0.50799   0.00000  Uiso   1.00
H260   H     0.12213   0.79489   0.50800   0.00000  Uiso   1.00
H261   H     0.37892   0.93804   0.20659   0.00000  Uiso   1.00
H262   H     0.37903   0.07393   0.19768   0.00000  Uiso   1.00
H263   H     0.50061   0.87001   0.19767   0.00000  Uiso   1.00
H264   H     0.25714   0.87016   0.19768   0.00000  Uiso   1.00
H265   H     0.37919   0.22458   0.22995   0.00000  Uiso   1.00
H266   H     0.63552   0.79459   0.22993   0.00000  Uiso   1.00
H267   H     0.12213   0.79490   0.22994   0.00000  Uiso   1.00
O268   O     0.37929   0.31396   0.36898   0.00000  Uiso   1.00
O269   O     0.71558   0.74983   0.36896   0.00000  Uiso   1.00
O270   O     0.04202   0.75023   0.36897   0.00000  Uiso   1.00
N271   N     0.37916   0.20592   0.44379   0.00000  Uiso   1.00
N272   N     0.61882   0.80393   0.44377   0.00000  Uiso   1.00
N273   N     0.13885   0.80419   0.44378   0.00000  Uiso   1.00
N274   N     0.37916   0.20593   0.29417   0.00000  Uiso   1.00
N275   N     0.61882   0.80393   0.29415   0.00000  Uiso   1.00
N276   N     0.13885   0.80419   0.29416   0.00000  Uiso   1.00
C277   C     0.24943   0.56096   0.03099   0.00000  Uiso   1.00
C278   C     0.24968   0.48714   0.07118   0.00000  Uiso   1.00
C279   C     0.24937   0.42506   0.02163   0.00000  Uiso   1.00
C280   C     0.24970   0.36291   0.07108   0.00000  Uiso   1.00
C281   C     0.25003   0.24827   0.11895   0.00000  Uiso   1.00
C282   C     0.31583   0.59787   0.07052   0.00000  Uiso   1.00
C283   C     0.37113   0.62891   0.02042   0.00000  Uiso   1.00
C284   C     0.42713   0.65998   0.06933   0.00000  Uiso   1.00
C285   C     0.53013   0.71731   0.11617   0.00000  Uiso   1.00
C286   C     0.18355   0.59788   0.07184   0.00000  Uiso   1.00
C287   C     0.12763   0.62895   0.02285   0.00000  Uiso   1.00
C288   C     0.07227   0.66005   0.07287   0.00000  Uiso   1.00
C289   C     0.96989   0.71740   0.12176   0.00000  Uiso   1.00
C290   C     0.25054   0.56096   0.20693   0.00000  Uiso   1.00
C291   C     0.25028   0.48714   0.16674   0.00000  Uiso   1.00
C292   C     0.25060   0.42506   0.21629   0.00000  Uiso   1.00
C293   C     0.25030   0.36291   0.16682   0.00000  Uiso   1.00
C294   C     0.31643   0.59787   0.16608   0.00000  Uiso   1.00
C295   C     0.37236   0.62891   0.21508   0.00000  Uiso   1.00
C296   C     0.42774   0.65998   0.16506   0.00000  Uiso   1.00
C297   C     0.18415   0.59788   0.16741   0.00000  Uiso   1.00
C298   C     0.12887   0.62895   0.21751   0.00000  Uiso   1.00
C299   C     0.07288   0.66005   0.16861   0.00000  Uiso   1.00
H300   H     0.24896   0.56097   0.95659   0.00000  Uiso   1.00
H301   H     0.24891   0.42509   0.94767   0.00000  Uiso   1.00
H302   H     0.37064   0.62891   0.94646   0.00000  Uiso   1.00
H303   H     0.12719   0.62894   0.94889   0.00000  Uiso   1.00
H304   H     0.24915   0.27444   0.97993   0.00000  Uiso   1.00
H305   H     0.50582   0.70423   0.97738   0.00000  Uiso   1.00
H306   H     0.99244   0.70431   0.98251   0.00000  Uiso   1.00
H307   H     0.25101   0.56097   0.28134   0.00000  Uiso   1.00
H308   H     0.25107   0.42508   0.29025   0.00000  Uiso   1.00
H309   H     0.37281   0.62890   0.28903   0.00000  Uiso   1.00
H310   H     0.12935   0.62894   0.29147   0.00000  Uiso   1.00
H311   H     0.25091   0.27443   0.25798   0.00000  Uiso   1.00
H312   H     0.50758   0.70423   0.25543   0.00000  Uiso   1.00
H313   H     0.99420   0.70430   0.26056   0.00000  Uiso   1.00
O314   O     0.25006   0.18504   0.11895   0.00000  Uiso   1.00
O315   O     0.58679   0.74892   0.11561   0.00000  Uiso   1.00
O316   O     0.91325   0.74902   0.12233   0.00000  Uiso   1.00
N317   N     0.24954   0.29308   0.04415   0.00000  Uiso   1.00
N318   N     0.48952   0.69490   0.04176   0.00000  Uiso   1.00
N319   N     0.00956   0.69499   0.04656   0.00000  Uiso   1.00
N320   N     0.25049   0.29308   0.19376   0.00000  Uiso   1.00
N321   N     0.49046   0.69490   0.19138   0.00000  Uiso   1.00
N322   N     0.01051   0.69499   0.19617   0.00000  Uiso   1.00
C323   C     0.62108   0.06196   0.95695   0.00000  Uiso   1.00
C324   C     0.62103   0.98813   0.91676   0.00000  Uiso   1.00
C325   C     0.62097   0.92606   0.96631   0.00000  Uiso   1.00
C326   C     0.62091   0.86390   0.91685   0.00000  Uiso   1.00
C327   C     0.62079   0.74927   0.86898   0.00000  Uiso   1.00
C328   C     0.55497   0.09891   0.91675   0.00000  Uiso   1.00
C329   C     0.49937   0.13000   0.96630   0.00000  Uiso   1.00
C330   C     0.44371   0.16111   0.91683   0.00000  Uiso   1.00
C331   C     0.34105   0.21851   0.86896   0.00000  Uiso   1.00
C332   C     0.68725   0.09883   0.91676   0.00000  Uiso   1.00
C333   C     0.74287   0.12986   0.96631   0.00000  Uiso   1.00
C334   C     0.79857   0.16091   0.91684   0.00000  Uiso   1.00
C335   C     0.90131   0.21819   0.86898   0.00000  Uiso   1.00
C336   C     0.62108   0.06196   0.78100   0.00000  Uiso   1.00
C337   C     0.62103   0.98813   0.82119   0.00000  Uiso   1.00
C338   C     0.62097   0.92606   0.77164   0.00000  Uiso   1.00
C339   C     0.62091   0.86390   0.82111   0.00000  Uiso   1.00
C340   C     0.55496   0.09892   0.82119   0.00000  Uiso   1.00
C341   C     0.49937   0.12999   0.77163   0.00000  Uiso   1.00
C342   C     0.44371   0.16111   0.82109   0.00000  Uiso   1.00
C343   C     0.68725   0.09883   0.82119   0.00000  Uiso   1.00
C344   C     0.74287   0.12985   0.77164   0.00000  Uiso   1.00
C345   C     0.79857   0.16092   0.82110   0.00000  Uiso   1.00
H346   H     0.62108   0.06196   0.03135   0.00000  Uiso   1.00
H347   H     0.62096   0.92608   0.04027   0.00000  Uiso   1.00
H348   H     0.49939   0.12999   0.04026   0.00000  Uiso   1.00
H349   H     0.74285   0.12985   0.04026   0.00000  Uiso   1.00
H350   H     0.62081   0.77543   0.00801   0.00000  Uiso   1.00
H351   H     0.36447   0.20541   0.00799   0.00000  Uiso   1.00
H352   H     0.87787   0.20511   0.00800   0.00000  Uiso   1.00
H353   H     0.62108   0.06196   0.70659   0.00000  Uiso   1.00
H354   H     0.62097   0.92607   0.69768   0.00000  Uiso   1.00
H355   H     0.49939   0.12999   0.69767   0.00000  Uiso   1.00
H356   H     0.74286   0.12984   0.69768   0.00000  Uiso   1.00
H357   H     0.62081   0.77542   0.72995   0.00000  Uiso   1.00
H358   H     0.36448   0.20541   0.72993   0.00000  Uiso   1.00
H359   H     0.87787   0.20510   0.72994   0.00000  Uiso   1.00
O360   O     0.62071   0.68604   0.86898   0.00000  Uiso   1.00
O361   O     0.28442   0.25017   0.86896   0.00000  Uiso   1.00
O362   O     0.95798   0.24977   0.86897   0.00000  Uiso   1.00
N363   N     0.62084   0.79408   0.94379   0.00000  Uiso   1.00
N364   N     0.38118   0.19607   0.94377   0.00000  Uiso   1.00
N365   N     0.86115   0.19581   0.94378   0.00000  Uiso   1.00
N366   N     0.62084   0.79407   0.79417   0.00000  Uiso   1.00
N367   N     0.38118   0.19607   0.79415   0.00000  Uiso   1.00
N368   N     0.86115   0.19581   0.79416   0.00000  Uiso   1.00
