data_job_04000
_audit_creation_date              2018-12-19
_audit_creation_method            'Materials Studio'
_symmetry_space_group_name_H-M    'P1'
_symmetry_Int_Tables_number       1
_symmetry_cell_setting            triclinic
loop_
_symmetry_equiv_pos_as_xyz
  x,y,z
_cell_length_a                    9.2334
_cell_length_b                    10.3245
_cell_length_c                    16.0805
_cell_angle_alpha                 82.2449
_cell_angle_beta                  88.1827
_cell_angle_gamma                 74.8361
loop_
_atom_site_label
_atom_site_type_symbol
_atom_site_fract_x
_atom_site_fract_y
_atom_site_fract_z
_atom_site_U_iso_or_equiv
_atom_site_adp_type
_atom_site_occupancy
C1     C     0.63934   0.04376   0.79203   0.00000  Uiso   1.00
C2     C     0.51378   0.13911   0.83497   0.00000  Uiso   1.00
C3     C     0.49657   0.14022   0.92094   0.00000  Uiso   1.00
C4     C     0.37428   0.23529   0.94774   0.00000  Uiso   1.00
C5     C     0.19469   0.36951   0.02310   0.00000  Uiso   1.00
C6     C     0.56233   0.97244   0.73685   0.00000  Uiso   1.00
C7     C     0.58596   0.83342   0.74032   0.00000  Uiso   1.00
C8     C     0.50455   0.78820   0.68452   0.00000  Uiso   1.00
C9     C     0.40042   0.66366   0.60752   0.00000  Uiso   1.00
C10    C     0.71404   0.13408   0.73213   0.00000  Uiso   1.00
C11    C     0.86525   0.13095   0.73160   0.00000  Uiso   1.00
C12    C     0.91158   0.22179   0.67180   0.00000  Uiso   1.00
C13    C     0.04301   0.34822   0.58747   0.00000  Uiso   1.00
C14    C     0.45276   0.21064   0.68675   0.00000  Uiso   1.00
C15    C     0.41243   0.22974   0.77778   0.00000  Uiso   1.00
C16    C     0.29014   0.32485   0.80445   0.00000  Uiso   1.00
C17    C     0.27276   0.32610   0.89045   0.00000  Uiso   1.00
C18    C     0.46098   0.06308   0.67967   0.00000  Uiso   1.00
C19    C     0.37953   0.01805   0.62384   0.00000  Uiso   1.00
C20    C     0.40303   0.87900   0.62722   0.00000  Uiso   1.00
C21    C     0.61270   0.22472   0.67494   0.00000  Uiso   1.00
C22    C     0.65881   0.31558   0.61512   0.00000  Uiso   1.00
C23    C     0.81005   0.31259   0.61451   0.00000  Uiso   1.00
H24    H     0.71824   0.97319   0.83655   0.00000  Uiso   1.00
H25    H     0.57502   0.07005   0.96517   0.00000  Uiso   1.00
H26    H     0.66440   0.76330   0.78458   0.00000  Uiso   1.00
H27    H     0.94364   0.06079   0.77587   0.00000  Uiso   1.00
H28    H     0.37151   0.21737   0.08256   0.00000  Uiso   1.00
H29    H     0.56002   0.57059   0.70174   0.00000  Uiso   1.00
H30    H     0.14885   0.19789   0.68337   0.00000  Uiso   1.00
H31    H     0.37385   0.28120   0.64222   0.00000  Uiso   1.00
H32    H     0.21173   0.39498   0.76018   0.00000  Uiso   1.00
H33    H     0.30112   0.08822   0.57959   0.00000  Uiso   1.00
H34    H     0.58036   0.38571   0.57088   0.00000  Uiso   1.00
H35    H     0.07665   0.48109   0.91618   0.00000  Uiso   1.00
H36    H     0.26517   0.83430   0.53536   0.00000  Uiso   1.00
H37    H     0.85399   0.46161   0.51699   0.00000  Uiso   1.00
O38    O     0.12361   0.41849   0.08047   0.00000  Uiso   1.00
O39    O     0.37097   0.56993   0.58085   0.00000  Uiso   1.00
O40    O     0.14349   0.39293   0.55675   0.00000  Uiso   1.00
N41    N     0.32438   0.26385   0.02721   0.00000  Uiso   1.00
N42    N     0.50061   0.65914   0.67118   0.00000  Uiso   1.00
N43    N     0.05112   0.24559   0.65399   0.00000  Uiso   1.00
N44    N     0.16572   0.40575   0.93769   0.00000  Uiso   1.00
N45    N     0.34195   0.80104   0.58166   0.00000  Uiso   1.00
N46    N     0.89247   0.38749   0.56447   0.00000  Uiso   1.00
C47    C     0.36066   0.95624   0.20797   0.00000  Uiso   1.00
C48    C     0.48622   0.86089   0.16503   0.00000  Uiso   1.00
C49    C     0.50343   0.85978   0.07906   0.00000  Uiso   1.00
C50    C     0.62572   0.76471   0.05226   0.00000  Uiso   1.00
C51    C     0.80531   0.63049   0.97690   0.00000  Uiso   1.00
C52    C     0.43767   0.02756   0.26315   0.00000  Uiso   1.00
C53    C     0.41404   0.16658   0.25968   0.00000  Uiso   1.00
C54    C     0.49545   0.21180   0.31548   0.00000  Uiso   1.00
C55    C     0.59958   0.33634   0.39248   0.00000  Uiso   1.00
C56    C     0.28596   0.86592   0.26787   0.00000  Uiso   1.00
C57    C     0.13475   0.86905   0.26840   0.00000  Uiso   1.00
C58    C     0.08842   0.77821   0.32820   0.00000  Uiso   1.00
C59    C     0.95699   0.65178   0.41253   0.00000  Uiso   1.00
C60    C     0.54724   0.78936   0.31325   0.00000  Uiso   1.00
C61    C     0.58757   0.77026   0.22222   0.00000  Uiso   1.00
C62    C     0.70986   0.67515   0.19555   0.00000  Uiso   1.00
C63    C     0.72724   0.67390   0.10955   0.00000  Uiso   1.00
C64    C     0.53902   0.93692   0.32033   0.00000  Uiso   1.00
C65    C     0.62047   0.98195   0.37616   0.00000  Uiso   1.00
C66    C     0.59697   0.12100   0.37278   0.00000  Uiso   1.00
C67    C     0.38730   0.77528   0.32506   0.00000  Uiso   1.00
C68    C     0.34119   0.68442   0.38488   0.00000  Uiso   1.00
C69    C     0.18995   0.68741   0.38549   0.00000  Uiso   1.00
H70    H     0.28176   0.02681   0.16345   0.00000  Uiso   1.00
H71    H     0.42498   0.92995   0.03483   0.00000  Uiso   1.00
H72    H     0.33560   0.23670   0.21542   0.00000  Uiso   1.00
H73    H     0.05636   0.93921   0.22413   0.00000  Uiso   1.00
H74    H     0.62849   0.78263   0.91744   0.00000  Uiso   1.00
H75    H     0.43998   0.42941   0.29826   0.00000  Uiso   1.00
H76    H     0.85115   0.80211   0.31663   0.00000  Uiso   1.00
H77    H     0.62615   0.71880   0.35778   0.00000  Uiso   1.00
H78    H     0.78827   0.60502   0.23982   0.00000  Uiso   1.00
H79    H     0.69888   0.91178   0.42041   0.00000  Uiso   1.00
H80    H     0.41964   0.61429   0.42912   0.00000  Uiso   1.00
H81    H     0.92335   0.51891   0.08382   0.00000  Uiso   1.00
H82    H     0.73483   0.16570   0.46464   0.00000  Uiso   1.00
H83    H     0.14601   0.53839   0.48301   0.00000  Uiso   1.00
O84    O     0.87639   0.58151   0.91953   0.00000  Uiso   1.00
O85    O     0.62903   0.43007   0.41915   0.00000  Uiso   1.00
O86    O     0.85651   0.60707   0.44325   0.00000  Uiso   1.00
N87    N     0.67562   0.73615   0.97279   0.00000  Uiso   1.00
N88    N     0.49939   0.34086   0.32882   0.00000  Uiso   1.00
N89    N     0.94888   0.75441   0.34601   0.00000  Uiso   1.00
N90    N     0.83428   0.59425   0.06231   0.00000  Uiso   1.00
N91    N     0.65805   0.19896   0.41834   0.00000  Uiso   1.00
N92    N     0.10753   0.61251   0.43553   0.00000  Uiso   1.00
