data_job_03212
_audit_creation_date              2018-12-19
_audit_creation_method            'Materials Studio'
_symmetry_space_group_name_H-M    'P1'
_symmetry_Int_Tables_number       1
_symmetry_cell_setting            triclinic
loop_
_symmetry_equiv_pos_as_xyz
  x,y,z
_cell_length_a                    9.1082
_cell_length_b                    12.4037
_cell_length_c                    18.5000
_cell_angle_alpha                 107.7956
_cell_angle_beta                  84.8130
_cell_angle_gamma                 84.0554
loop_
_atom_site_label
_atom_site_type_symbol
_atom_site_fract_x
_atom_site_fract_y
_atom_site_fract_z
_atom_site_U_iso_or_equiv
_atom_site_adp_type
_atom_site_occupancy
C1     C     0.38888   0.23517   0.59622   0.00000  Uiso   1.00
C2     C     0.32378   0.33372   0.57060   0.00000  Uiso   1.00
C3     C     0.38147   0.36183   0.50773   0.00000  Uiso   1.00
C4     C     0.30560   0.45508   0.49391   0.00000  Uiso   1.00
C5     C     0.22416   0.59858   0.44694   0.00000  Uiso   1.00
C6     C     0.41576   0.28844   0.67902   0.00000  Uiso   1.00
C7     C     0.55079   0.27846   0.70730   0.00000  Uiso   1.00
C8     C     0.55234   0.33358   0.78476   0.00000  Uiso   1.00
C9     C     0.61369   0.40672   0.90612   0.00000  Uiso   1.00
C10    C     0.26447   0.16259   0.59886   0.00000  Uiso   1.00
C11    C     0.27230   0.04678   0.55976   0.00000  Uiso   1.00
C12    C     0.14648   0.99592   0.56974   0.00000  Uiso   1.00
C13    C     0.97292   0.87365   0.56664   0.00000  Uiso   1.00
C14    C     0.15154   0.35078   0.68349   0.00000  Uiso   1.00
C15    C     0.19486   0.39652   0.61800   0.00000  Uiso   1.00
C16    C     0.11888   0.48974   0.60428   0.00000  Uiso   1.00
C17    C     0.17645   0.51798   0.54139   0.00000  Uiso   1.00
C18    C     0.28685   0.35124   0.72642   0.00000  Uiso   1.00
C19    C     0.28820   0.40637   0.80385   0.00000  Uiso   1.00
C20    C     0.42320   0.39649   0.83225   0.00000  Uiso   1.00
C21    C     0.13555   0.22538   0.64626   0.00000  Uiso   1.00
C22    C     0.00970   0.17469   0.65631   0.00000  Uiso   1.00
C23    C     0.01733   0.05883   0.61723   0.00000  Uiso   1.00
H24    H     0.48925   0.18629   0.55933   0.00000  Uiso   1.00
H25    H     0.48125   0.31322   0.47106   0.00000  Uiso   1.00
H26    H     0.65053   0.22986   0.67061   0.00000  Uiso   1.00
H27    H     0.37208   0.99821   0.52309   0.00000  Uiso   1.00
H28    H     0.41555   0.48167   0.39413   0.00000  Uiso   1.00
H29    H     0.77249   0.30586   0.81489   0.00000  Uiso   1.00
H30    H     0.18532   0.81738   0.50380   0.00000  Uiso   1.00
H31    H     0.05117   0.39967   0.72040   0.00000  Uiso   1.00
H32    H     0.01912   0.53832   0.64097   0.00000  Uiso   1.00
H33    H     0.18841   0.45495   0.84052   0.00000  Uiso   1.00
H34    H     0.90996   0.22331   0.69299   0.00000  Uiso   1.00
H35    H     0.04048   0.66437   0.53203   0.00000  Uiso   1.00
H36    H     0.39742   0.48856   0.95279   0.00000  Uiso   1.00
H37    H     0.81024   0.00009   0.64171   0.00000  Uiso   1.00
O38    O     0.21486   0.66040   0.40794   0.00000  Uiso   1.00
O39    O     0.68315   0.42972   0.95996   0.00000  Uiso   1.00
O40    O     0.91279   0.78886   0.55182   0.00000  Uiso   1.00
N41    N     0.33166   0.50563   0.43748   0.00000  Uiso   1.00
N42    N     0.66538   0.34127   0.83086   0.00000  Uiso   1.00
N43    N     0.11644   0.88458   0.54004   0.00000  Uiso   1.00
N44    N     0.12983   0.60394   0.51168   0.00000  Uiso   1.00
N45    N     0.46356   0.43958   0.90506   0.00000  Uiso   1.00
N46    N     0.91461   0.98289   0.61424   0.00000  Uiso   1.00
C47    C     0.61112   0.76483   0.40378   0.00000  Uiso   1.00
C48    C     0.67622   0.66628   0.42940   0.00000  Uiso   1.00
C49    C     0.61853   0.63817   0.49227   0.00000  Uiso   1.00
C50    C     0.69440   0.54492   0.50609   0.00000  Uiso   1.00
C51    C     0.77584   0.40142   0.55306   0.00000  Uiso   1.00
C52    C     0.58424   0.71156   0.32098   0.00000  Uiso   1.00
C53    C     0.44921   0.72154   0.29270   0.00000  Uiso   1.00
C54    C     0.44766   0.66642   0.21524   0.00000  Uiso   1.00
C55    C     0.38631   0.59328   0.09388   0.00000  Uiso   1.00
C56    C     0.73553   0.83741   0.40114   0.00000  Uiso   1.00
C57    C     0.72770   0.95322   0.44024   0.00000  Uiso   1.00
C58    C     0.85352   0.00408   0.43026   0.00000  Uiso   1.00
C59    C     0.02708   0.12635   0.43336   0.00000  Uiso   1.00
C60    C     0.84846   0.64922   0.31651   0.00000  Uiso   1.00
C61    C     0.80514   0.60348   0.38200   0.00000  Uiso   1.00
C62    C     0.88112   0.51026   0.39572   0.00000  Uiso   1.00
C63    C     0.82355   0.48202   0.45861   0.00000  Uiso   1.00
C64    C     0.71315   0.64876   0.27358   0.00000  Uiso   1.00
C65    C     0.71180   0.59363   0.19615   0.00000  Uiso   1.00
C66    C     0.57680   0.60351   0.16775   0.00000  Uiso   1.00
C67    C     0.86445   0.77462   0.35374   0.00000  Uiso   1.00
C68    C     0.99030   0.82531   0.34369   0.00000  Uiso   1.00
C69    C     0.98267   0.94117   0.38277   0.00000  Uiso   1.00
H70    H     0.51075   0.81371   0.44067   0.00000  Uiso   1.00
H71    H     0.51875   0.68678   0.52894   0.00000  Uiso   1.00
H72    H     0.34947   0.77014   0.32939   0.00000  Uiso   1.00
H73    H     0.62792   0.00179   0.47691   0.00000  Uiso   1.00
H74    H     0.58445   0.51833   0.60587   0.00000  Uiso   1.00
H75    H     0.22751   0.69414   0.18511   0.00000  Uiso   1.00
H76    H     0.81468   0.18262   0.49620   0.00000  Uiso   1.00
H77    H     0.94883   0.60033   0.27960   0.00000  Uiso   1.00
H78    H     0.98088   0.46168   0.35903   0.00000  Uiso   1.00
H79    H     0.81159   0.54505   0.15948   0.00000  Uiso   1.00
H80    H     0.09004   0.77669   0.30701   0.00000  Uiso   1.00
H81    H     0.95952   0.33563   0.46797   0.00000  Uiso   1.00
H82    H     0.60258   0.51144   0.04721   0.00000  Uiso   1.00
H83    H     0.18976   0.99991   0.35829   0.00000  Uiso   1.00
O84    O     0.78514   0.33960   0.59206   0.00000  Uiso   1.00
O85    O     0.31685   0.57028   0.04004   0.00000  Uiso   1.00
O86    O     0.08721   0.21114   0.44818   0.00000  Uiso   1.00
N87    N     0.66834   0.49437   0.56252   0.00000  Uiso   1.00
N88    N     0.33462   0.65873   0.16914   0.00000  Uiso   1.00
N89    N     0.88356   0.11542   0.45996   0.00000  Uiso   1.00
N90    N     0.87017   0.39606   0.48832   0.00000  Uiso   1.00
N91    N     0.53644   0.56042   0.09494   0.00000  Uiso   1.00
N92    N     0.08539   0.01711   0.38576   0.00000  Uiso   1.00
