data_job_05069
_audit_creation_date              2018-12-19
_audit_creation_method            'Materials Studio'
_symmetry_space_group_name_H-M    'P1'
_symmetry_Int_Tables_number       1
_symmetry_cell_setting            triclinic
loop_
_symmetry_equiv_pos_as_xyz
  x,y,z
_cell_length_a                    31.5095
_cell_length_b                    13.0174
_cell_length_c                    12.3151
_cell_angle_alpha                 90.0000
_cell_angle_beta                  73.5423
_cell_angle_gamma                 90.0000
loop_
_atom_site_label
_atom_site_type_symbol
_atom_site_fract_x
_atom_site_fract_y
_atom_site_fract_z
_atom_site_U_iso_or_equiv
_atom_site_adp_type
_atom_site_occupancy
C1     C     0.12895   0.62710   0.34184   0.00000  Uiso   1.00
C2     C     0.10472   0.65024   0.25357   0.00000  Uiso   1.00
C3     C     0.08012   0.58048   0.21128   0.00000  Uiso   1.00
C4     C     0.06052   0.61668   0.13097   0.00000  Uiso   1.00
C5     C     0.02218   0.63704   0.99943   0.00000  Uiso   1.00
C6     C     0.17714   0.65679   0.28776   0.00000  Uiso   1.00
C7     C     0.21342   0.59254   0.27424   0.00000  Uiso   1.00
C8     C     0.25478   0.63426   0.22271   0.00000  Uiso   1.00
C9     C     0.32887   0.66480   0.14434   0.00000  Uiso   1.00
C10    C     0.11113   0.70334   0.43798   0.00000  Uiso   1.00
C11    C     0.09192   0.67824   0.55076   0.00000  Uiso   1.00
C12    C     0.07772   0.75915   0.62572   0.00000  Uiso   1.00
C13    C     0.04933   0.86197   0.78058   0.00000  Uiso   1.00
C14    C     0.13791   0.81545   0.27442   0.00000  Uiso   1.00
C15    C     0.10959   0.75255   0.21695   0.00000  Uiso   1.00
C16    C     0.09003   0.78887   0.13668   0.00000  Uiso   1.00
C17    C     0.06539   0.71917   0.09428   0.00000  Uiso   1.00
C18    C     0.18201   0.75909   0.25114   0.00000  Uiso   1.00
C19    C     0.22333   0.80092   0.19964   0.00000  Uiso   1.00
C20    C     0.25966   0.73675   0.18603   0.00000  Uiso   1.00
C21    C     0.11600   0.80565   0.40136   0.00000  Uiso   1.00
C22    C     0.10183   0.88662   0.47616   0.00000  Uiso   1.00
C23    C     0.08260   0.86164   0.58903   0.00000  Uiso   1.00
H24    H     0.12517   0.54746   0.37035   0.00000  Uiso   1.00
H25    H     0.07636   0.50132   0.23964   0.00000  Uiso   1.00
H26    H     0.20964   0.51338   0.30259   0.00000  Uiso   1.00
H27    H     0.08816   0.59906   0.57907   0.00000  Uiso   1.00
H28    H     0.02442   0.49527   0.07853   0.00000  Uiso   1.00
H29    H     0.30544   0.52070   0.21131   0.00000  Uiso   1.00
H30    H     0.04928   0.70139   0.79433   0.00000  Uiso   1.00
H31    H     0.14170   0.89510   0.24590   0.00000  Uiso   1.00
H32    H     0.09380   0.86804   0.10836   0.00000  Uiso   1.00
H33    H     0.22708   0.88009   0.17131   0.00000  Uiso   1.00
H34    H     0.10560   0.96578   0.44779   0.00000  Uiso   1.00
H35    H     0.03857   0.79291   0.97197   0.00000  Uiso   1.00
H36    H     0.31960   0.81834   0.10476   0.00000  Uiso   1.00
H37    H     0.06343   0.99903   0.68777   0.00000  Uiso   1.00
O38    O     0.99970   0.62001   0.93699   0.00000  Uiso   1.00
O39    O     0.36839   0.65338   0.11122   0.00000  Uiso   1.00
O40    O     0.03231   0.89043   0.87611   0.00000  Uiso   1.00
N41    N     0.03431   0.56904   0.07235   0.00000  Uiso   1.00
N42    N     0.29706   0.59281   0.19647   0.00000  Uiso   1.00
N43    N     0.05758   0.76174   0.74155   0.00000  Uiso   1.00
N44    N     0.04193   0.72920   0.01501   0.00000  Uiso   1.00
N45    N     0.30467   0.75297   0.13914   0.00000  Uiso   1.00
N46    N     0.06519   0.92190   0.68421   0.00000  Uiso   1.00
C47    C     0.62895   0.12710   0.34184   0.00000  Uiso   1.00
C48    C     0.60472   0.15024   0.25357   0.00000  Uiso   1.00
C49    C     0.58012   0.08048   0.21128   0.00000  Uiso   1.00
C50    C     0.56052   0.11668   0.13097   0.00000  Uiso   1.00
C51    C     0.52218   0.13704   0.99943   0.00000  Uiso   1.00
C52    C     0.67714   0.15679   0.28776   0.00000  Uiso   1.00
C53    C     0.71342   0.09254   0.27424   0.00000  Uiso   1.00
C54    C     0.75478   0.13426   0.22271   0.00000  Uiso   1.00
C55    C     0.82887   0.16480   0.14434   0.00000  Uiso   1.00
C56    C     0.61113   0.20334   0.43798   0.00000  Uiso   1.00
C57    C     0.59192   0.17824   0.55076   0.00000  Uiso   1.00
C58    C     0.57772   0.25915   0.62572   0.00000  Uiso   1.00
C59    C     0.54933   0.36197   0.78058   0.00000  Uiso   1.00
C60    C     0.63791   0.31545   0.27442   0.00000  Uiso   1.00
C61    C     0.60959   0.25255   0.21695   0.00000  Uiso   1.00
C62    C     0.59003   0.28887   0.13668   0.00000  Uiso   1.00
C63    C     0.56539   0.21917   0.09428   0.00000  Uiso   1.00
C64    C     0.68201   0.25909   0.25114   0.00000  Uiso   1.00
C65    C     0.72333   0.30092   0.19964   0.00000  Uiso   1.00
C66    C     0.75966   0.23675   0.18603   0.00000  Uiso   1.00
C67    C     0.61600   0.30565   0.40136   0.00000  Uiso   1.00
C68    C     0.60183   0.38662   0.47616   0.00000  Uiso   1.00
C69    C     0.58260   0.36164   0.58903   0.00000  Uiso   1.00
H70    H     0.62517   0.04746   0.37035   0.00000  Uiso   1.00
H71    H     0.57636   0.00132   0.23964   0.00000  Uiso   1.00
H72    H     0.70964   0.01338   0.30259   0.00000  Uiso   1.00
H73    H     0.58816   0.09906   0.57907   0.00000  Uiso   1.00
H74    H     0.52442   0.99527   0.07853   0.00000  Uiso   1.00
H75    H     0.80544   0.02070   0.21131   0.00000  Uiso   1.00
H76    H     0.54928   0.20139   0.79433   0.00000  Uiso   1.00
H77    H     0.64170   0.39510   0.24590   0.00000  Uiso   1.00
H78    H     0.59380   0.36804   0.10836   0.00000  Uiso   1.00
H79    H     0.72708   0.38009   0.17131   0.00000  Uiso   1.00
H80    H     0.60560   0.46578   0.44779   0.00000  Uiso   1.00
H81    H     0.53857   0.29291   0.97197   0.00000  Uiso   1.00
H82    H     0.81960   0.31834   0.10476   0.00000  Uiso   1.00
H83    H     0.56343   0.49903   0.68777   0.00000  Uiso   1.00
O84    O     0.49970   0.12001   0.93699   0.00000  Uiso   1.00
O85    O     0.86839   0.15338   0.11122   0.00000  Uiso   1.00
O86    O     0.53231   0.39043   0.87611   0.00000  Uiso   1.00
N87    N     0.53431   0.06904   0.07235   0.00000  Uiso   1.00
N88    N     0.79706   0.09281   0.19647   0.00000  Uiso   1.00
N89    N     0.55758   0.26174   0.74155   0.00000  Uiso   1.00
N90    N     0.54193   0.22920   0.01501   0.00000  Uiso   1.00
N91    N     0.80467   0.25297   0.13914   0.00000  Uiso   1.00
N92    N     0.56519   0.42190   0.68421   0.00000  Uiso   1.00
C93    C     0.87105   0.62710   0.15816   0.00000  Uiso   1.00
C94    C     0.89528   0.65024   0.24643   0.00000  Uiso   1.00
C95    C     0.91988   0.58048   0.28872   0.00000  Uiso   1.00
C96    C     0.93948   0.61668   0.36903   0.00000  Uiso   1.00
C97    C     0.97782   0.63704   0.50057   0.00000  Uiso   1.00
C98    C     0.82286   0.65679   0.21224   0.00000  Uiso   1.00
C99    C     0.78658   0.59254   0.22576   0.00000  Uiso   1.00
C100   C     0.74522   0.63426   0.27729   0.00000  Uiso   1.00
C101   C     0.67113   0.66480   0.35566   0.00000  Uiso   1.00
C102   C     0.88887   0.70334   0.06202   0.00000  Uiso   1.00
C103   C     0.90808   0.67824   0.94924   0.00000  Uiso   1.00
C104   C     0.92228   0.75915   0.87428   0.00000  Uiso   1.00
C105   C     0.95067   0.86197   0.71942   0.00000  Uiso   1.00
C106   C     0.86209   0.81545   0.22558   0.00000  Uiso   1.00
C107   C     0.89041   0.75255   0.28305   0.00000  Uiso   1.00
C108   C     0.90997   0.78887   0.36332   0.00000  Uiso   1.00
C109   C     0.93461   0.71917   0.40572   0.00000  Uiso   1.00
C110   C     0.81799   0.75909   0.24886   0.00000  Uiso   1.00
C111   C     0.77667   0.80092   0.30036   0.00000  Uiso   1.00
C112   C     0.74034   0.73675   0.31397   0.00000  Uiso   1.00
C113   C     0.88400   0.80565   0.09864   0.00000  Uiso   1.00
C114   C     0.89817   0.88662   0.02384   0.00000  Uiso   1.00
C115   C     0.91740   0.86164   0.91097   0.00000  Uiso   1.00
H116   H     0.87483   0.54746   0.12965   0.00000  Uiso   1.00
H117   H     0.92364   0.50132   0.26036   0.00000  Uiso   1.00
H118   H     0.79036   0.51338   0.19741   0.00000  Uiso   1.00
H119   H     0.91184   0.59906   0.92093   0.00000  Uiso   1.00
H120   H     0.97558   0.49527   0.42147   0.00000  Uiso   1.00
H121   H     0.69456   0.52070   0.28869   0.00000  Uiso   1.00
H122   H     0.95072   0.70139   0.70567   0.00000  Uiso   1.00
H123   H     0.85830   0.89510   0.25410   0.00000  Uiso   1.00
H124   H     0.90620   0.86804   0.39164   0.00000  Uiso   1.00
H125   H     0.77292   0.88009   0.32869   0.00000  Uiso   1.00
H126   H     0.89440   0.96578   0.05221   0.00000  Uiso   1.00
H127   H     0.96143   0.79291   0.52803   0.00000  Uiso   1.00
H128   H     0.68040   0.81834   0.39524   0.00000  Uiso   1.00
H129   H     0.93657   0.99903   0.81223   0.00000  Uiso   1.00
O130   O     0.00030   0.62001   0.56301   0.00000  Uiso   1.00
O131   O     0.63161   0.65338   0.38878   0.00000  Uiso   1.00
O132   O     0.96769   0.89043   0.62389   0.00000  Uiso   1.00
N133   N     0.96569   0.56904   0.42765   0.00000  Uiso   1.00
N134   N     0.70294   0.59281   0.30353   0.00000  Uiso   1.00
N135   N     0.94242   0.76174   0.75845   0.00000  Uiso   1.00
N136   N     0.95807   0.72920   0.48499   0.00000  Uiso   1.00
N137   N     0.69533   0.75297   0.36086   0.00000  Uiso   1.00
N138   N     0.93481   0.92190   0.81579   0.00000  Uiso   1.00
C139   C     0.37105   0.12710   0.15816   0.00000  Uiso   1.00
C140   C     0.39528   0.15024   0.24643   0.00000  Uiso   1.00
C141   C     0.41988   0.08048   0.28872   0.00000  Uiso   1.00
C142   C     0.43948   0.11668   0.36903   0.00000  Uiso   1.00
C143   C     0.47782   0.13704   0.50057   0.00000  Uiso   1.00
C144   C     0.32286   0.15679   0.21224   0.00000  Uiso   1.00
C145   C     0.28658   0.09254   0.22576   0.00000  Uiso   1.00
C146   C     0.24522   0.13426   0.27729   0.00000  Uiso   1.00
C147   C     0.17113   0.16480   0.35566   0.00000  Uiso   1.00
C148   C     0.38887   0.20334   0.06202   0.00000  Uiso   1.00
C149   C     0.40808   0.17824   0.94924   0.00000  Uiso   1.00
C150   C     0.42228   0.25915   0.87428   0.00000  Uiso   1.00
C151   C     0.45067   0.36197   0.71942   0.00000  Uiso   1.00
C152   C     0.36209   0.31545   0.22558   0.00000  Uiso   1.00
C153   C     0.39041   0.25255   0.28305   0.00000  Uiso   1.00
C154   C     0.40997   0.28887   0.36332   0.00000  Uiso   1.00
C155   C     0.43461   0.21917   0.40572   0.00000  Uiso   1.00
C156   C     0.31799   0.25909   0.24886   0.00000  Uiso   1.00
C157   C     0.27667   0.30092   0.30036   0.00000  Uiso   1.00
C158   C     0.24034   0.23675   0.31397   0.00000  Uiso   1.00
C159   C     0.38400   0.30565   0.09864   0.00000  Uiso   1.00
C160   C     0.39817   0.38662   0.02384   0.00000  Uiso   1.00
C161   C     0.41740   0.36164   0.91097   0.00000  Uiso   1.00
H162   H     0.37483   0.04746   0.12965   0.00000  Uiso   1.00
H163   H     0.42364   0.00132   0.26036   0.00000  Uiso   1.00
H164   H     0.29036   0.01338   0.19741   0.00000  Uiso   1.00
H165   H     0.41184   0.09906   0.92093   0.00000  Uiso   1.00
H166   H     0.47558   0.99527   0.42147   0.00000  Uiso   1.00
H167   H     0.19456   0.02070   0.28869   0.00000  Uiso   1.00
H168   H     0.45072   0.20139   0.70567   0.00000  Uiso   1.00
H169   H     0.35830   0.39510   0.25410   0.00000  Uiso   1.00
H170   H     0.40620   0.36804   0.39164   0.00000  Uiso   1.00
H171   H     0.27292   0.38009   0.32869   0.00000  Uiso   1.00
H172   H     0.39440   0.46578   0.05221   0.00000  Uiso   1.00
H173   H     0.46143   0.29291   0.52803   0.00000  Uiso   1.00
H174   H     0.18040   0.31834   0.39524   0.00000  Uiso   1.00
H175   H     0.43657   0.49903   0.81223   0.00000  Uiso   1.00
O176   O     0.50030   0.12001   0.56301   0.00000  Uiso   1.00
O177   O     0.13161   0.15338   0.38878   0.00000  Uiso   1.00
O178   O     0.46769   0.39043   0.62389   0.00000  Uiso   1.00
N179   N     0.46569   0.06904   0.42765   0.00000  Uiso   1.00
N180   N     0.20294   0.09281   0.30353   0.00000  Uiso   1.00
N181   N     0.44242   0.26174   0.75845   0.00000  Uiso   1.00
N182   N     0.45807   0.22920   0.48499   0.00000  Uiso   1.00
N183   N     0.19533   0.25297   0.36086   0.00000  Uiso   1.00
N184   N     0.43481   0.42190   0.81579   0.00000  Uiso   1.00
C185   C     0.87105   0.37290   0.65816   0.00000  Uiso   1.00
C186   C     0.89528   0.34976   0.74643   0.00000  Uiso   1.00
C187   C     0.91988   0.41952   0.78872   0.00000  Uiso   1.00
C188   C     0.93948   0.38332   0.86903   0.00000  Uiso   1.00
C189   C     0.97782   0.36296   0.00057   0.00000  Uiso   1.00
C190   C     0.82286   0.34321   0.71224   0.00000  Uiso   1.00
C191   C     0.78658   0.40746   0.72576   0.00000  Uiso   1.00
C192   C     0.74522   0.36574   0.77729   0.00000  Uiso   1.00
C193   C     0.67113   0.33520   0.85566   0.00000  Uiso   1.00
C194   C     0.88887   0.29666   0.56202   0.00000  Uiso   1.00
C195   C     0.90808   0.32176   0.44924   0.00000  Uiso   1.00
C196   C     0.92228   0.24085   0.37428   0.00000  Uiso   1.00
C197   C     0.95067   0.13803   0.21942   0.00000  Uiso   1.00
C198   C     0.86209   0.18455   0.72558   0.00000  Uiso   1.00
C199   C     0.89041   0.24745   0.78305   0.00000  Uiso   1.00
C200   C     0.90997   0.21113   0.86332   0.00000  Uiso   1.00
C201   C     0.93461   0.28083   0.90572   0.00000  Uiso   1.00
C202   C     0.81799   0.24091   0.74886   0.00000  Uiso   1.00
C203   C     0.77667   0.19908   0.80036   0.00000  Uiso   1.00
C204   C     0.74034   0.26325   0.81397   0.00000  Uiso   1.00
C205   C     0.88400   0.19435   0.59864   0.00000  Uiso   1.00
C206   C     0.89817   0.11338   0.52384   0.00000  Uiso   1.00
C207   C     0.91740   0.13836   0.41097   0.00000  Uiso   1.00
H208   H     0.87483   0.45254   0.62965   0.00000  Uiso   1.00
H209   H     0.92364   0.49868   0.76036   0.00000  Uiso   1.00
H210   H     0.79036   0.48662   0.69741   0.00000  Uiso   1.00
H211   H     0.91184   0.40094   0.42093   0.00000  Uiso   1.00
H212   H     0.97558   0.50473   0.92147   0.00000  Uiso   1.00
H213   H     0.69456   0.47930   0.78869   0.00000  Uiso   1.00
H214   H     0.95072   0.29861   0.20567   0.00000  Uiso   1.00
H215   H     0.85830   0.10490   0.75410   0.00000  Uiso   1.00
H216   H     0.90620   0.13196   0.89164   0.00000  Uiso   1.00
H217   H     0.77292   0.11991   0.82869   0.00000  Uiso   1.00
H218   H     0.89440   0.03422   0.55221   0.00000  Uiso   1.00
H219   H     0.96143   0.20709   0.02803   0.00000  Uiso   1.00
H220   H     0.68040   0.18166   0.89524   0.00000  Uiso   1.00
H221   H     0.93657   0.00097   0.31223   0.00000  Uiso   1.00
O222   O     0.00030   0.37999   0.06301   0.00000  Uiso   1.00
O223   O     0.63161   0.34662   0.88878   0.00000  Uiso   1.00
O224   O     0.96769   0.10957   0.12389   0.00000  Uiso   1.00
N225   N     0.96569   0.43096   0.92765   0.00000  Uiso   1.00
N226   N     0.70294   0.40719   0.80353   0.00000  Uiso   1.00
N227   N     0.94242   0.23826   0.25845   0.00000  Uiso   1.00
N228   N     0.95807   0.27080   0.98499   0.00000  Uiso   1.00
N229   N     0.69533   0.24703   0.86086   0.00000  Uiso   1.00
N230   N     0.93481   0.07810   0.31579   0.00000  Uiso   1.00
C231   C     0.37105   0.87290   0.65816   0.00000  Uiso   1.00
C232   C     0.39528   0.84976   0.74643   0.00000  Uiso   1.00
C233   C     0.41988   0.91952   0.78872   0.00000  Uiso   1.00
C234   C     0.43948   0.88332   0.86903   0.00000  Uiso   1.00
C235   C     0.47782   0.86296   0.00057   0.00000  Uiso   1.00
C236   C     0.32286   0.84321   0.71224   0.00000  Uiso   1.00
C237   C     0.28658   0.90746   0.72576   0.00000  Uiso   1.00
C238   C     0.24522   0.86574   0.77729   0.00000  Uiso   1.00
C239   C     0.17113   0.83520   0.85566   0.00000  Uiso   1.00
C240   C     0.38887   0.79666   0.56202   0.00000  Uiso   1.00
C241   C     0.40808   0.82176   0.44924   0.00000  Uiso   1.00
C242   C     0.42228   0.74085   0.37428   0.00000  Uiso   1.00
C243   C     0.45067   0.63803   0.21942   0.00000  Uiso   1.00
C244   C     0.36209   0.68455   0.72558   0.00000  Uiso   1.00
C245   C     0.39041   0.74745   0.78305   0.00000  Uiso   1.00
C246   C     0.40997   0.71113   0.86332   0.00000  Uiso   1.00
C247   C     0.43461   0.78083   0.90572   0.00000  Uiso   1.00
C248   C     0.31799   0.74091   0.74886   0.00000  Uiso   1.00
C249   C     0.27667   0.69908   0.80036   0.00000  Uiso   1.00
C250   C     0.24034   0.76325   0.81397   0.00000  Uiso   1.00
C251   C     0.38400   0.69435   0.59864   0.00000  Uiso   1.00
C252   C     0.39817   0.61338   0.52384   0.00000  Uiso   1.00
C253   C     0.41740   0.63836   0.41097   0.00000  Uiso   1.00
H254   H     0.37483   0.95254   0.62965   0.00000  Uiso   1.00
H255   H     0.42364   0.99868   0.76036   0.00000  Uiso   1.00
H256   H     0.29036   0.98662   0.69741   0.00000  Uiso   1.00
H257   H     0.41184   0.90094   0.42093   0.00000  Uiso   1.00
H258   H     0.47558   0.00473   0.92147   0.00000  Uiso   1.00
H259   H     0.19456   0.97930   0.78869   0.00000  Uiso   1.00
H260   H     0.45072   0.79861   0.20567   0.00000  Uiso   1.00
H261   H     0.35830   0.60490   0.75410   0.00000  Uiso   1.00
H262   H     0.40620   0.63196   0.89164   0.00000  Uiso   1.00
H263   H     0.27292   0.61991   0.82869   0.00000  Uiso   1.00
H264   H     0.39440   0.53422   0.55221   0.00000  Uiso   1.00
H265   H     0.46143   0.70709   0.02803   0.00000  Uiso   1.00
H266   H     0.18040   0.68166   0.89524   0.00000  Uiso   1.00
H267   H     0.43657   0.50097   0.31223   0.00000  Uiso   1.00
O268   O     0.50030   0.87999   0.06301   0.00000  Uiso   1.00
O269   O     0.13161   0.84662   0.88878   0.00000  Uiso   1.00
O270   O     0.46769   0.60957   0.12389   0.00000  Uiso   1.00
N271   N     0.46569   0.93096   0.92765   0.00000  Uiso   1.00
N272   N     0.20294   0.90719   0.80353   0.00000  Uiso   1.00
N273   N     0.44242   0.73826   0.25845   0.00000  Uiso   1.00
N274   N     0.45807   0.77080   0.98499   0.00000  Uiso   1.00
N275   N     0.19533   0.74703   0.86086   0.00000  Uiso   1.00
N276   N     0.43481   0.57810   0.31579   0.00000  Uiso   1.00
C277   C     0.12895   0.37290   0.84184   0.00000  Uiso   1.00
C278   C     0.10472   0.34976   0.75357   0.00000  Uiso   1.00
C279   C     0.08012   0.41952   0.71128   0.00000  Uiso   1.00
C280   C     0.06052   0.38332   0.63097   0.00000  Uiso   1.00
C281   C     0.02218   0.36296   0.49943   0.00000  Uiso   1.00
C282   C     0.17714   0.34321   0.78776   0.00000  Uiso   1.00
C283   C     0.21342   0.40746   0.77424   0.00000  Uiso   1.00
C284   C     0.25478   0.36574   0.72271   0.00000  Uiso   1.00
C285   C     0.32887   0.33520   0.64434   0.00000  Uiso   1.00
C286   C     0.11113   0.29666   0.93798   0.00000  Uiso   1.00
C287   C     0.09192   0.32176   0.05076   0.00000  Uiso   1.00
C288   C     0.07772   0.24085   0.12572   0.00000  Uiso   1.00
C289   C     0.04933   0.13803   0.28058   0.00000  Uiso   1.00
C290   C     0.13791   0.18455   0.77442   0.00000  Uiso   1.00
C291   C     0.10959   0.24745   0.71695   0.00000  Uiso   1.00
C292   C     0.09003   0.21113   0.63668   0.00000  Uiso   1.00
C293   C     0.06539   0.28083   0.59428   0.00000  Uiso   1.00
C294   C     0.18201   0.24091   0.75114   0.00000  Uiso   1.00
C295   C     0.22333   0.19908   0.69964   0.00000  Uiso   1.00
C296   C     0.25966   0.26325   0.68603   0.00000  Uiso   1.00
C297   C     0.11600   0.19435   0.90136   0.00000  Uiso   1.00
C298   C     0.10183   0.11338   0.97616   0.00000  Uiso   1.00
C299   C     0.08260   0.13836   0.08903   0.00000  Uiso   1.00
H300   H     0.12517   0.45254   0.87035   0.00000  Uiso   1.00
H301   H     0.07636   0.49868   0.73964   0.00000  Uiso   1.00
H302   H     0.20964   0.48662   0.80259   0.00000  Uiso   1.00
H303   H     0.08816   0.40094   0.07907   0.00000  Uiso   1.00
H304   H     0.02442   0.50473   0.57853   0.00000  Uiso   1.00
H305   H     0.30544   0.47930   0.71131   0.00000  Uiso   1.00
H306   H     0.04928   0.29861   0.29433   0.00000  Uiso   1.00
H307   H     0.14170   0.10490   0.74590   0.00000  Uiso   1.00
H308   H     0.09380   0.13196   0.60836   0.00000  Uiso   1.00
H309   H     0.22708   0.11991   0.67131   0.00000  Uiso   1.00
H310   H     0.10560   0.03422   0.94779   0.00000  Uiso   1.00
H311   H     0.03857   0.20709   0.47197   0.00000  Uiso   1.00
H312   H     0.31960   0.18166   0.60476   0.00000  Uiso   1.00
H313   H     0.06343   0.00097   0.18777   0.00000  Uiso   1.00
O314   O     0.99970   0.37999   0.43699   0.00000  Uiso   1.00
O315   O     0.36839   0.34662   0.61122   0.00000  Uiso   1.00
O316   O     0.03231   0.10957   0.37611   0.00000  Uiso   1.00
N317   N     0.03431   0.43096   0.57235   0.00000  Uiso   1.00
N318   N     0.29706   0.40719   0.69647   0.00000  Uiso   1.00
N319   N     0.05758   0.23826   0.24155   0.00000  Uiso   1.00
N320   N     0.04193   0.27080   0.51501   0.00000  Uiso   1.00
N321   N     0.30467   0.24703   0.63914   0.00000  Uiso   1.00
N322   N     0.06519   0.07810   0.18421   0.00000  Uiso   1.00
C323   C     0.62895   0.87290   0.84184   0.00000  Uiso   1.00
C324   C     0.60472   0.84976   0.75357   0.00000  Uiso   1.00
C325   C     0.58012   0.91952   0.71128   0.00000  Uiso   1.00
C326   C     0.56052   0.88332   0.63097   0.00000  Uiso   1.00
C327   C     0.52218   0.86296   0.49943   0.00000  Uiso   1.00
C328   C     0.67714   0.84321   0.78776   0.00000  Uiso   1.00
C329   C     0.71342   0.90746   0.77424   0.00000  Uiso   1.00
C330   C     0.75478   0.86574   0.72271   0.00000  Uiso   1.00
C331   C     0.82887   0.83520   0.64434   0.00000  Uiso   1.00
C332   C     0.61113   0.79666   0.93798   0.00000  Uiso   1.00
C333   C     0.59192   0.82176   0.05076   0.00000  Uiso   1.00
C334   C     0.57772   0.74085   0.12572   0.00000  Uiso   1.00
C335   C     0.54933   0.63803   0.28058   0.00000  Uiso   1.00
C336   C     0.63791   0.68455   0.77442   0.00000  Uiso   1.00
C337   C     0.60959   0.74745   0.71695   0.00000  Uiso   1.00
C338   C     0.59003   0.71113   0.63668   0.00000  Uiso   1.00
C339   C     0.56539   0.78083   0.59428   0.00000  Uiso   1.00
C340   C     0.68201   0.74091   0.75114   0.00000  Uiso   1.00
C341   C     0.72333   0.69908   0.69964   0.00000  Uiso   1.00
C342   C     0.75966   0.76325   0.68603   0.00000  Uiso   1.00
C343   C     0.61600   0.69435   0.90136   0.00000  Uiso   1.00
C344   C     0.60183   0.61338   0.97616   0.00000  Uiso   1.00
C345   C     0.58260   0.63836   0.08903   0.00000  Uiso   1.00
H346   H     0.62517   0.95254   0.87035   0.00000  Uiso   1.00
H347   H     0.57636   0.99868   0.73964   0.00000  Uiso   1.00
H348   H     0.70964   0.98662   0.80259   0.00000  Uiso   1.00
H349   H     0.58816   0.90094   0.07907   0.00000  Uiso   1.00
H350   H     0.52442   0.00473   0.57853   0.00000  Uiso   1.00
H351   H     0.80544   0.97930   0.71131   0.00000  Uiso   1.00
H352   H     0.54928   0.79861   0.29433   0.00000  Uiso   1.00
H353   H     0.64170   0.60490   0.74590   0.00000  Uiso   1.00
H354   H     0.59380   0.63196   0.60836   0.00000  Uiso   1.00
H355   H     0.72708   0.61991   0.67131   0.00000  Uiso   1.00
H356   H     0.60560   0.53422   0.94779   0.00000  Uiso   1.00
H357   H     0.53857   0.70709   0.47197   0.00000  Uiso   1.00
H358   H     0.81960   0.68166   0.60476   0.00000  Uiso   1.00
H359   H     0.56343   0.50097   0.18777   0.00000  Uiso   1.00
O360   O     0.49970   0.87999   0.43699   0.00000  Uiso   1.00
O361   O     0.86839   0.84662   0.61122   0.00000  Uiso   1.00
O362   O     0.53231   0.60957   0.37611   0.00000  Uiso   1.00
N363   N     0.53431   0.93096   0.57235   0.00000  Uiso   1.00
N364   N     0.79706   0.90719   0.69647   0.00000  Uiso   1.00
N365   N     0.55758   0.73826   0.24155   0.00000  Uiso   1.00
N366   N     0.54193   0.77080   0.51501   0.00000  Uiso   1.00
N367   N     0.80467   0.74703   0.63914   0.00000  Uiso   1.00
N368   N     0.56519   0.57810   0.18421   0.00000  Uiso   1.00
