data_job_01781
_audit_creation_date              2018-12-19
_audit_creation_method            'Materials Studio'
_symmetry_space_group_name_H-M    'P1'
_symmetry_Int_Tables_number       1
_symmetry_cell_setting            triclinic
loop_
_symmetry_equiv_pos_as_xyz
  x,y,z
_cell_length_a                    13.1094
_cell_length_b                    23.0445
_cell_length_c                    23.7989
_cell_angle_alpha                 90.0000
_cell_angle_beta                  90.0000
_cell_angle_gamma                 90.0000
loop_
_atom_site_label
_atom_site_type_symbol
_atom_site_fract_x
_atom_site_fract_y
_atom_site_fract_z
_atom_site_U_iso_or_equiv
_atom_site_adp_type
_atom_site_occupancy
C1     C     0.28893   0.89167   0.65496   0.00000  Uiso   1.00
C2     C     0.23726   0.95054   0.66178   0.00000  Uiso   1.00
C3     C     0.28290   0.00048   0.68252   0.00000  Uiso   1.00
C4     C     0.22271   0.04996   0.68545   0.00000  Uiso   1.00
C5     C     0.15801   0.14144   0.69868   0.00000  Uiso   1.00
C6     C     0.22419   0.84865   0.68811   0.00000  Uiso   1.00
C7     C     0.25886   0.81291   0.73099   0.00000  Uiso   1.00
C8     C     0.18766   0.77661   0.75609   0.00000  Uiso   1.00
C9     C     0.10269   0.70987   0.81018   0.00000  Uiso   1.00
C10    C     0.27643   0.87519   0.59329   0.00000  Uiso   1.00
C11    C     0.35501   0.86174   0.55645   0.00000  Uiso   1.00
C12    C     0.32779   0.84777   0.50172   0.00000  Uiso   1.00
C13    C     0.32393   0.82222   0.40858   0.00000  Uiso   1.00
C14    C     0.10085   0.89074   0.62328   0.00000  Uiso   1.00
C15    C     0.13511   0.95004   0.64457   0.00000  Uiso   1.00
C16    C     0.07483   0.99945   0.64747   0.00000  Uiso   1.00
C17    C     0.12037   0.04945   0.66821   0.00000  Uiso   1.00
C18    C     0.12205   0.84815   0.67091   0.00000  Uiso   1.00
C19    C     0.05078   0.81189   0.69594   0.00000  Uiso   1.00
C20    C     0.08532   0.77611   0.73885   0.00000  Uiso   1.00
C21    C     0.17428   0.87468   0.57609   0.00000  Uiso   1.00
C22    C     0.14693   0.86072   0.52140   0.00000  Uiso   1.00
C23    C     0.22545   0.84726   0.48448   0.00000  Uiso   1.00
H24    H     0.36845   0.89206   0.66836   0.00000  Uiso   1.00
H25    H     0.36196   0.00085   0.69584   0.00000  Uiso   1.00
H26    H     0.33792   0.81331   0.74430   0.00000  Uiso   1.00
H27    H     0.43405   0.86214   0.56978   0.00000  Uiso   1.00
H28    H     0.30970   0.12123   0.71873   0.00000  Uiso   1.00
H29    H     0.25901   0.72578   0.82090   0.00000  Uiso   1.00
H30    H     0.46174   0.82874   0.45289   0.00000  Uiso   1.00
H31    H     0.02132   0.89035   0.60989   0.00000  Uiso   1.00
H32    H     0.99578   0.99905   0.63415   0.00000  Uiso   1.00
H33    H     0.97173   0.81151   0.68262   0.00000  Uiso   1.00
H34    H     0.06787   0.86033   0.50810   0.00000  Uiso   1.00
H35    H     0.01249   0.11977   0.66867   0.00000  Uiso   1.00
H36    H     0.96180   0.72431   0.77084   0.00000  Uiso   1.00
H37    H     0.16453   0.82727   0.40283   0.00000  Uiso   1.00
O38    O     0.15054   0.19203   0.71074   0.00000  Uiso   1.00
O39    O     0.08405   0.67321   0.84477   0.00000  Uiso   1.00
O40    O     0.35002   0.80828   0.36195   0.00000  Uiso   1.00
N41    N     0.24326   0.10598   0.70361   0.00000  Uiso   1.00
N42    N     0.19587   0.73626   0.79914   0.00000  Uiso   1.00
N43    N     0.38540   0.83250   0.45509   0.00000  Uiso   1.00
N44    N     0.08334   0.10519   0.67667   0.00000  Uiso   1.00
N45    N     0.03594   0.73547   0.77220   0.00000  Uiso   1.00
N46    N     0.22547   0.83171   0.42815   0.00000  Uiso   1.00
C47    C     0.21107   0.10833   0.15496   0.00000  Uiso   1.00
C48    C     0.26274   0.04946   0.16178   0.00000  Uiso   1.00
C49    C     0.21710   0.99952   0.18252   0.00000  Uiso   1.00
C50    C     0.27729   0.95004   0.18545   0.00000  Uiso   1.00
C51    C     0.34199   0.85856   0.19868   0.00000  Uiso   1.00
C52    C     0.27581   0.15135   0.18811   0.00000  Uiso   1.00
C53    C     0.24114   0.18709   0.23099   0.00000  Uiso   1.00
C54    C     0.31234   0.22339   0.25609   0.00000  Uiso   1.00
C55    C     0.39731   0.29013   0.31018   0.00000  Uiso   1.00
C56    C     0.22357   0.12481   0.09329   0.00000  Uiso   1.00
C57    C     0.14499   0.13826   0.05645   0.00000  Uiso   1.00
C58    C     0.17221   0.15223   0.00172   0.00000  Uiso   1.00
C59    C     0.17607   0.17778   0.90858   0.00000  Uiso   1.00
C60    C     0.39915   0.10926   0.12328   0.00000  Uiso   1.00
C61    C     0.36489   0.04996   0.14457   0.00000  Uiso   1.00
C62    C     0.42517   0.00055   0.14747   0.00000  Uiso   1.00
C63    C     0.37963   0.95055   0.16821   0.00000  Uiso   1.00
C64    C     0.37795   0.15185   0.17091   0.00000  Uiso   1.00
C65    C     0.44922   0.18811   0.19594   0.00000  Uiso   1.00
C66    C     0.41468   0.22389   0.23885   0.00000  Uiso   1.00
C67    C     0.32572   0.12532   0.07609   0.00000  Uiso   1.00
C68    C     0.35307   0.13928   0.02140   0.00000  Uiso   1.00
C69    C     0.27455   0.15274   0.98448   0.00000  Uiso   1.00
H70    H     0.13155   0.10794   0.16836   0.00000  Uiso   1.00
H71    H     0.13804   0.99915   0.19584   0.00000  Uiso   1.00
H72    H     0.16208   0.18669   0.24430   0.00000  Uiso   1.00
H73    H     0.06595   0.13786   0.06978   0.00000  Uiso   1.00
H74    H     0.19030   0.87877   0.21873   0.00000  Uiso   1.00
H75    H     0.24099   0.27422   0.32090   0.00000  Uiso   1.00
H76    H     0.03826   0.17126   0.95289   0.00000  Uiso   1.00
H77    H     0.47868   0.10965   0.10989   0.00000  Uiso   1.00
H78    H     0.50422   0.00095   0.13415   0.00000  Uiso   1.00
H79    H     0.52827   0.18849   0.18262   0.00000  Uiso   1.00
H80    H     0.43213   0.13967   0.00810   0.00000  Uiso   1.00
H81    H     0.48751   0.88023   0.16867   0.00000  Uiso   1.00
H82    H     0.53820   0.27569   0.27084   0.00000  Uiso   1.00
H83    H     0.33547   0.17273   0.90283   0.00000  Uiso   1.00
O84    O     0.34946   0.80797   0.21074   0.00000  Uiso   1.00
O85    O     0.41595   0.32679   0.34477   0.00000  Uiso   1.00
O86    O     0.14998   0.19172   0.86195   0.00000  Uiso   1.00
N87    N     0.25674   0.89402   0.20361   0.00000  Uiso   1.00
N88    N     0.30413   0.26374   0.29914   0.00000  Uiso   1.00
N89    N     0.11460   0.16750   0.95509   0.00000  Uiso   1.00
N90    N     0.41666   0.89481   0.17667   0.00000  Uiso   1.00
N91    N     0.46406   0.26453   0.27220   0.00000  Uiso   1.00
N92    N     0.27453   0.16829   0.92815   0.00000  Uiso   1.00
C93    C     0.71107   0.39167   0.84504   0.00000  Uiso   1.00
C94    C     0.76274   0.45054   0.83822   0.00000  Uiso   1.00
C95    C     0.71710   0.50048   0.81748   0.00000  Uiso   1.00
C96    C     0.77729   0.54996   0.81455   0.00000  Uiso   1.00
C97    C     0.84199   0.64144   0.80132   0.00000  Uiso   1.00
C98    C     0.77581   0.34865   0.81189   0.00000  Uiso   1.00
C99    C     0.74114   0.31291   0.76901   0.00000  Uiso   1.00
C100   C     0.81234   0.27661   0.74391   0.00000  Uiso   1.00
C101   C     0.89731   0.20987   0.68982   0.00000  Uiso   1.00
C102   C     0.72357   0.37519   0.90671   0.00000  Uiso   1.00
C103   C     0.64499   0.36174   0.94355   0.00000  Uiso   1.00
C104   C     0.67221   0.34777   0.99828   0.00000  Uiso   1.00
C105   C     0.67607   0.32222   0.09142   0.00000  Uiso   1.00
C106   C     0.89915   0.39074   0.87672   0.00000  Uiso   1.00
C107   C     0.86489   0.45004   0.85543   0.00000  Uiso   1.00
C108   C     0.92517   0.49945   0.85253   0.00000  Uiso   1.00
C109   C     0.87963   0.54945   0.83179   0.00000  Uiso   1.00
C110   C     0.87795   0.34815   0.82909   0.00000  Uiso   1.00
C111   C     0.94922   0.31189   0.80406   0.00000  Uiso   1.00
C112   C     0.91468   0.27611   0.76115   0.00000  Uiso   1.00
C113   C     0.82572   0.37468   0.92391   0.00000  Uiso   1.00
C114   C     0.85307   0.36072   0.97860   0.00000  Uiso   1.00
C115   C     0.77455   0.34726   0.01552   0.00000  Uiso   1.00
H116   H     0.63155   0.39206   0.83164   0.00000  Uiso   1.00
H117   H     0.63804   0.50085   0.80416   0.00000  Uiso   1.00
H118   H     0.66208   0.31331   0.75570   0.00000  Uiso   1.00
H119   H     0.56595   0.36214   0.93022   0.00000  Uiso   1.00
H120   H     0.69030   0.62123   0.78127   0.00000  Uiso   1.00
H121   H     0.74099   0.22578   0.67910   0.00000  Uiso   1.00
H122   H     0.53826   0.32874   0.04711   0.00000  Uiso   1.00
H123   H     0.97868   0.39035   0.89011   0.00000  Uiso   1.00
H124   H     0.00422   0.49905   0.86585   0.00000  Uiso   1.00
H125   H     0.02827   0.31151   0.81738   0.00000  Uiso   1.00
H126   H     0.93213   0.36033   0.99190   0.00000  Uiso   1.00
H127   H     0.98751   0.61977   0.83133   0.00000  Uiso   1.00
H128   H     0.03820   0.22431   0.72916   0.00000  Uiso   1.00
H129   H     0.83547   0.32727   0.09717   0.00000  Uiso   1.00
O130   O     0.84946   0.69203   0.78926   0.00000  Uiso   1.00
O131   O     0.91595   0.17321   0.65523   0.00000  Uiso   1.00
O132   O     0.64998   0.30828   0.13805   0.00000  Uiso   1.00
N133   N     0.75674   0.60598   0.79639   0.00000  Uiso   1.00
N134   N     0.80413   0.23626   0.70086   0.00000  Uiso   1.00
N135   N     0.61460   0.33250   0.04491   0.00000  Uiso   1.00
N136   N     0.91666   0.60519   0.82333   0.00000  Uiso   1.00
N137   N     0.96406   0.23547   0.72780   0.00000  Uiso   1.00
N138   N     0.77453   0.33171   0.07185   0.00000  Uiso   1.00
C139   C     0.78893   0.60833   0.34504   0.00000  Uiso   1.00
C140   C     0.73726   0.54946   0.33822   0.00000  Uiso   1.00
C141   C     0.78290   0.49952   0.31748   0.00000  Uiso   1.00
C142   C     0.72271   0.45004   0.31455   0.00000  Uiso   1.00
C143   C     0.65801   0.35856   0.30132   0.00000  Uiso   1.00
C144   C     0.72419   0.65135   0.31189   0.00000  Uiso   1.00
C145   C     0.75886   0.68709   0.26901   0.00000  Uiso   1.00
C146   C     0.68766   0.72339   0.24391   0.00000  Uiso   1.00
C147   C     0.60269   0.79013   0.18982   0.00000  Uiso   1.00
C148   C     0.77643   0.62481   0.40671   0.00000  Uiso   1.00
C149   C     0.85501   0.63826   0.44355   0.00000  Uiso   1.00
C150   C     0.82779   0.65223   0.49828   0.00000  Uiso   1.00
C151   C     0.82393   0.67778   0.59142   0.00000  Uiso   1.00
C152   C     0.60085   0.60926   0.37672   0.00000  Uiso   1.00
C153   C     0.63511   0.54996   0.35543   0.00000  Uiso   1.00
C154   C     0.57483   0.50055   0.35253   0.00000  Uiso   1.00
C155   C     0.62037   0.45055   0.33179   0.00000  Uiso   1.00
C156   C     0.62205   0.65185   0.32909   0.00000  Uiso   1.00
C157   C     0.55078   0.68811   0.30406   0.00000  Uiso   1.00
C158   C     0.58532   0.72389   0.26115   0.00000  Uiso   1.00
C159   C     0.67428   0.62532   0.42391   0.00000  Uiso   1.00
C160   C     0.64693   0.63928   0.47860   0.00000  Uiso   1.00
C161   C     0.72545   0.65274   0.51552   0.00000  Uiso   1.00
H162   H     0.86845   0.60794   0.33164   0.00000  Uiso   1.00
H163   H     0.86196   0.49915   0.30416   0.00000  Uiso   1.00
H164   H     0.83792   0.68669   0.25570   0.00000  Uiso   1.00
H165   H     0.93405   0.63786   0.43022   0.00000  Uiso   1.00
H166   H     0.80970   0.37877   0.28127   0.00000  Uiso   1.00
H167   H     0.75901   0.77422   0.17910   0.00000  Uiso   1.00
H168   H     0.96174   0.67126   0.54711   0.00000  Uiso   1.00
H169   H     0.52132   0.60965   0.39011   0.00000  Uiso   1.00
H170   H     0.49578   0.50095   0.36585   0.00000  Uiso   1.00
H171   H     0.47173   0.68849   0.31738   0.00000  Uiso   1.00
H172   H     0.56787   0.63967   0.49190   0.00000  Uiso   1.00
H173   H     0.51249   0.38023   0.33133   0.00000  Uiso   1.00
H174   H     0.46180   0.77569   0.22916   0.00000  Uiso   1.00
H175   H     0.66453   0.67273   0.59717   0.00000  Uiso   1.00
O176   O     0.65054   0.30797   0.28926   0.00000  Uiso   1.00
O177   O     0.58405   0.82679   0.15523   0.00000  Uiso   1.00
O178   O     0.85002   0.69172   0.63805   0.00000  Uiso   1.00
N179   N     0.74326   0.39402   0.29639   0.00000  Uiso   1.00
N180   N     0.69587   0.76374   0.20086   0.00000  Uiso   1.00
N181   N     0.88540   0.66750   0.54491   0.00000  Uiso   1.00
N182   N     0.58334   0.39481   0.32333   0.00000  Uiso   1.00
N183   N     0.53594   0.76453   0.22780   0.00000  Uiso   1.00
N184   N     0.72547   0.66829   0.57185   0.00000  Uiso   1.00
C185   C     0.71107   0.10833   0.34504   0.00000  Uiso   1.00
C186   C     0.76274   0.04946   0.33822   0.00000  Uiso   1.00
C187   C     0.71710   0.99952   0.31748   0.00000  Uiso   1.00
C188   C     0.77729   0.95004   0.31455   0.00000  Uiso   1.00
C189   C     0.84199   0.85856   0.30132   0.00000  Uiso   1.00
C190   C     0.77581   0.15135   0.31189   0.00000  Uiso   1.00
C191   C     0.74114   0.18709   0.26901   0.00000  Uiso   1.00
C192   C     0.81234   0.22339   0.24391   0.00000  Uiso   1.00
C193   C     0.89731   0.29013   0.18982   0.00000  Uiso   1.00
C194   C     0.72357   0.12481   0.40671   0.00000  Uiso   1.00
C195   C     0.64499   0.13826   0.44355   0.00000  Uiso   1.00
C196   C     0.67221   0.15223   0.49828   0.00000  Uiso   1.00
C197   C     0.67607   0.17778   0.59142   0.00000  Uiso   1.00
C198   C     0.89915   0.10926   0.37672   0.00000  Uiso   1.00
C199   C     0.86489   0.04996   0.35543   0.00000  Uiso   1.00
C200   C     0.92517   0.00055   0.35253   0.00000  Uiso   1.00
C201   C     0.87963   0.95055   0.33179   0.00000  Uiso   1.00
C202   C     0.87795   0.15185   0.32909   0.00000  Uiso   1.00
C203   C     0.94922   0.18811   0.30406   0.00000  Uiso   1.00
C204   C     0.91468   0.22389   0.26115   0.00000  Uiso   1.00
C205   C     0.82572   0.12532   0.42391   0.00000  Uiso   1.00
C206   C     0.85307   0.13928   0.47860   0.00000  Uiso   1.00
C207   C     0.77455   0.15274   0.51552   0.00000  Uiso   1.00
H208   H     0.63155   0.10794   0.33164   0.00000  Uiso   1.00
H209   H     0.63804   0.99915   0.30416   0.00000  Uiso   1.00
H210   H     0.66208   0.18669   0.25570   0.00000  Uiso   1.00
H211   H     0.56595   0.13786   0.43022   0.00000  Uiso   1.00
H212   H     0.69030   0.87877   0.28127   0.00000  Uiso   1.00
H213   H     0.74099   0.27422   0.17910   0.00000  Uiso   1.00
H214   H     0.53826   0.17126   0.54711   0.00000  Uiso   1.00
H215   H     0.97868   0.10965   0.39011   0.00000  Uiso   1.00
H216   H     0.00422   0.00095   0.36585   0.00000  Uiso   1.00
H217   H     0.02827   0.18849   0.31738   0.00000  Uiso   1.00
H218   H     0.93213   0.13967   0.49190   0.00000  Uiso   1.00
H219   H     0.98751   0.88023   0.33133   0.00000  Uiso   1.00
H220   H     0.03820   0.27569   0.22916   0.00000  Uiso   1.00
H221   H     0.83547   0.17273   0.59717   0.00000  Uiso   1.00
O222   O     0.84946   0.80797   0.28926   0.00000  Uiso   1.00
O223   O     0.91595   0.32679   0.15523   0.00000  Uiso   1.00
O224   O     0.64998   0.19172   0.63805   0.00000  Uiso   1.00
N225   N     0.75674   0.89402   0.29639   0.00000  Uiso   1.00
N226   N     0.80413   0.26374   0.20086   0.00000  Uiso   1.00
N227   N     0.61460   0.16750   0.54491   0.00000  Uiso   1.00
N228   N     0.91666   0.89481   0.32333   0.00000  Uiso   1.00
N229   N     0.96406   0.26453   0.22780   0.00000  Uiso   1.00
N230   N     0.77453   0.16829   0.57185   0.00000  Uiso   1.00
C231   C     0.78893   0.89167   0.84504   0.00000  Uiso   1.00
C232   C     0.73726   0.95054   0.83822   0.00000  Uiso   1.00
C233   C     0.78290   0.00048   0.81748   0.00000  Uiso   1.00
C234   C     0.72271   0.04996   0.81455   0.00000  Uiso   1.00
C235   C     0.65801   0.14144   0.80132   0.00000  Uiso   1.00
C236   C     0.72419   0.84865   0.81189   0.00000  Uiso   1.00
C237   C     0.75886   0.81291   0.76901   0.00000  Uiso   1.00
C238   C     0.68766   0.77661   0.74391   0.00000  Uiso   1.00
C239   C     0.60269   0.70987   0.68982   0.00000  Uiso   1.00
C240   C     0.77643   0.87519   0.90671   0.00000  Uiso   1.00
C241   C     0.85501   0.86174   0.94355   0.00000  Uiso   1.00
C242   C     0.82779   0.84777   0.99828   0.00000  Uiso   1.00
C243   C     0.82393   0.82222   0.09142   0.00000  Uiso   1.00
C244   C     0.60085   0.89074   0.87672   0.00000  Uiso   1.00
C245   C     0.63511   0.95004   0.85543   0.00000  Uiso   1.00
C246   C     0.57483   0.99945   0.85253   0.00000  Uiso   1.00
C247   C     0.62037   0.04945   0.83179   0.00000  Uiso   1.00
C248   C     0.62205   0.84815   0.82909   0.00000  Uiso   1.00
C249   C     0.55078   0.81189   0.80406   0.00000  Uiso   1.00
C250   C     0.58532   0.77611   0.76115   0.00000  Uiso   1.00
C251   C     0.67428   0.87468   0.92391   0.00000  Uiso   1.00
C252   C     0.64693   0.86072   0.97860   0.00000  Uiso   1.00
C253   C     0.72545   0.84726   0.01552   0.00000  Uiso   1.00
H254   H     0.86845   0.89206   0.83164   0.00000  Uiso   1.00
H255   H     0.86196   0.00085   0.80416   0.00000  Uiso   1.00
H256   H     0.83792   0.81331   0.75570   0.00000  Uiso   1.00
H257   H     0.93405   0.86214   0.93022   0.00000  Uiso   1.00
H258   H     0.80970   0.12123   0.78127   0.00000  Uiso   1.00
H259   H     0.75901   0.72578   0.67910   0.00000  Uiso   1.00
H260   H     0.96174   0.82874   0.04711   0.00000  Uiso   1.00
H261   H     0.52132   0.89035   0.89011   0.00000  Uiso   1.00
H262   H     0.49578   0.99905   0.86585   0.00000  Uiso   1.00
H263   H     0.47173   0.81151   0.81738   0.00000  Uiso   1.00
H264   H     0.56787   0.86033   0.99190   0.00000  Uiso   1.00
H265   H     0.51249   0.11977   0.83133   0.00000  Uiso   1.00
H266   H     0.46180   0.72431   0.72916   0.00000  Uiso   1.00
H267   H     0.66453   0.82727   0.09717   0.00000  Uiso   1.00
O268   O     0.65054   0.19203   0.78926   0.00000  Uiso   1.00
O269   O     0.58405   0.67321   0.65523   0.00000  Uiso   1.00
O270   O     0.85002   0.80828   0.13805   0.00000  Uiso   1.00
N271   N     0.74326   0.10598   0.79639   0.00000  Uiso   1.00
N272   N     0.69587   0.73626   0.70086   0.00000  Uiso   1.00
N273   N     0.88540   0.83250   0.04491   0.00000  Uiso   1.00
N274   N     0.58334   0.10519   0.82333   0.00000  Uiso   1.00
N275   N     0.53594   0.73547   0.72780   0.00000  Uiso   1.00
N276   N     0.72547   0.83171   0.07185   0.00000  Uiso   1.00
C277   C     0.28893   0.60833   0.15496   0.00000  Uiso   1.00
C278   C     0.23726   0.54946   0.16178   0.00000  Uiso   1.00
C279   C     0.28290   0.49952   0.18252   0.00000  Uiso   1.00
C280   C     0.22271   0.45004   0.18545   0.00000  Uiso   1.00
C281   C     0.15801   0.35856   0.19868   0.00000  Uiso   1.00
C282   C     0.22419   0.65135   0.18811   0.00000  Uiso   1.00
C283   C     0.25886   0.68709   0.23099   0.00000  Uiso   1.00
C284   C     0.18766   0.72339   0.25609   0.00000  Uiso   1.00
C285   C     0.10269   0.79013   0.31018   0.00000  Uiso   1.00
C286   C     0.27643   0.62481   0.09329   0.00000  Uiso   1.00
C287   C     0.35501   0.63826   0.05645   0.00000  Uiso   1.00
C288   C     0.32779   0.65223   0.00172   0.00000  Uiso   1.00
C289   C     0.32393   0.67778   0.90858   0.00000  Uiso   1.00
C290   C     0.10085   0.60926   0.12328   0.00000  Uiso   1.00
C291   C     0.13511   0.54996   0.14457   0.00000  Uiso   1.00
C292   C     0.07483   0.50055   0.14747   0.00000  Uiso   1.00
C293   C     0.12037   0.45055   0.16821   0.00000  Uiso   1.00
C294   C     0.12205   0.65185   0.17091   0.00000  Uiso   1.00
C295   C     0.05078   0.68811   0.19594   0.00000  Uiso   1.00
C296   C     0.08532   0.72389   0.23885   0.00000  Uiso   1.00
C297   C     0.17428   0.62532   0.07609   0.00000  Uiso   1.00
C298   C     0.14693   0.63928   0.02140   0.00000  Uiso   1.00
C299   C     0.22545   0.65274   0.98448   0.00000  Uiso   1.00
H300   H     0.36845   0.60794   0.16836   0.00000  Uiso   1.00
H301   H     0.36196   0.49915   0.19584   0.00000  Uiso   1.00
H302   H     0.33792   0.68669   0.24430   0.00000  Uiso   1.00
H303   H     0.43405   0.63786   0.06978   0.00000  Uiso   1.00
H304   H     0.30970   0.37877   0.21873   0.00000  Uiso   1.00
H305   H     0.25901   0.77422   0.32090   0.00000  Uiso   1.00
H306   H     0.46174   0.67126   0.95289   0.00000  Uiso   1.00
H307   H     0.02132   0.60965   0.10989   0.00000  Uiso   1.00
H308   H     0.99578   0.50095   0.13415   0.00000  Uiso   1.00
H309   H     0.97173   0.68849   0.18262   0.00000  Uiso   1.00
H310   H     0.06787   0.63967   0.00810   0.00000  Uiso   1.00
H311   H     0.01249   0.38023   0.16867   0.00000  Uiso   1.00
H312   H     0.96180   0.77569   0.27084   0.00000  Uiso   1.00
H313   H     0.16453   0.67273   0.90283   0.00000  Uiso   1.00
O314   O     0.15054   0.30797   0.21074   0.00000  Uiso   1.00
O315   O     0.08405   0.82679   0.34477   0.00000  Uiso   1.00
O316   O     0.35002   0.69172   0.86195   0.00000  Uiso   1.00
N317   N     0.24326   0.39402   0.20361   0.00000  Uiso   1.00
N318   N     0.19587   0.76374   0.29914   0.00000  Uiso   1.00
N319   N     0.38540   0.66750   0.95509   0.00000  Uiso   1.00
N320   N     0.08334   0.39481   0.17667   0.00000  Uiso   1.00
N321   N     0.03594   0.76453   0.27220   0.00000  Uiso   1.00
N322   N     0.22547   0.66829   0.92815   0.00000  Uiso   1.00
C323   C     0.21107   0.39167   0.65496   0.00000  Uiso   1.00
C324   C     0.26274   0.45054   0.66178   0.00000  Uiso   1.00
C325   C     0.21710   0.50048   0.68252   0.00000  Uiso   1.00
C326   C     0.27729   0.54996   0.68545   0.00000  Uiso   1.00
C327   C     0.34199   0.64144   0.69868   0.00000  Uiso   1.00
C328   C     0.27581   0.34865   0.68811   0.00000  Uiso   1.00
C329   C     0.24114   0.31291   0.73099   0.00000  Uiso   1.00
C330   C     0.31234   0.27661   0.75609   0.00000  Uiso   1.00
C331   C     0.39731   0.20987   0.81018   0.00000  Uiso   1.00
C332   C     0.22357   0.37519   0.59329   0.00000  Uiso   1.00
C333   C     0.14499   0.36174   0.55645   0.00000  Uiso   1.00
C334   C     0.17221   0.34777   0.50172   0.00000  Uiso   1.00
C335   C     0.17607   0.32222   0.40858   0.00000  Uiso   1.00
C336   C     0.39915   0.39074   0.62328   0.00000  Uiso   1.00
C337   C     0.36489   0.45004   0.64457   0.00000  Uiso   1.00
C338   C     0.42517   0.49945   0.64747   0.00000  Uiso   1.00
C339   C     0.37963   0.54945   0.66821   0.00000  Uiso   1.00
C340   C     0.37795   0.34815   0.67091   0.00000  Uiso   1.00
C341   C     0.44922   0.31189   0.69594   0.00000  Uiso   1.00
C342   C     0.41468   0.27611   0.73885   0.00000  Uiso   1.00
C343   C     0.32572   0.37468   0.57609   0.00000  Uiso   1.00
C344   C     0.35307   0.36072   0.52140   0.00000  Uiso   1.00
C345   C     0.27455   0.34726   0.48448   0.00000  Uiso   1.00
H346   H     0.13155   0.39206   0.66836   0.00000  Uiso   1.00
H347   H     0.13804   0.50085   0.69584   0.00000  Uiso   1.00
H348   H     0.16208   0.31331   0.74430   0.00000  Uiso   1.00
H349   H     0.06595   0.36214   0.56978   0.00000  Uiso   1.00
H350   H     0.19030   0.62123   0.71873   0.00000  Uiso   1.00
H351   H     0.24099   0.22578   0.82090   0.00000  Uiso   1.00
H352   H     0.03826   0.32874   0.45289   0.00000  Uiso   1.00
H353   H     0.47868   0.39035   0.60989   0.00000  Uiso   1.00
H354   H     0.50422   0.49905   0.63415   0.00000  Uiso   1.00
H355   H     0.52827   0.31151   0.68262   0.00000  Uiso   1.00
H356   H     0.43213   0.36033   0.50810   0.00000  Uiso   1.00
H357   H     0.48751   0.61977   0.66867   0.00000  Uiso   1.00
H358   H     0.53820   0.22431   0.77084   0.00000  Uiso   1.00
H359   H     0.33547   0.32727   0.40283   0.00000  Uiso   1.00
O360   O     0.34946   0.69203   0.71074   0.00000  Uiso   1.00
O361   O     0.41595   0.17321   0.84477   0.00000  Uiso   1.00
O362   O     0.14998   0.30828   0.36195   0.00000  Uiso   1.00
N363   N     0.25674   0.60598   0.70361   0.00000  Uiso   1.00
N364   N     0.30413   0.23626   0.79914   0.00000  Uiso   1.00
N365   N     0.11460   0.33250   0.45509   0.00000  Uiso   1.00
N366   N     0.41666   0.60519   0.67667   0.00000  Uiso   1.00
N367   N     0.46406   0.23547   0.77220   0.00000  Uiso   1.00
N368   N     0.27453   0.33171   0.42815   0.00000  Uiso   1.00
