data_job_01329
_audit_creation_date              2018-12-19
_audit_creation_method            'Materials Studio'
_symmetry_space_group_name_H-M    'P1'
_symmetry_Int_Tables_number       1
_symmetry_cell_setting            triclinic
loop_
_symmetry_equiv_pos_as_xyz
  x,y,z
_cell_length_a                    20.1658
_cell_length_b                    13.6542
_cell_length_c                    22.4748
_cell_angle_alpha                 90.0000
_cell_angle_beta                  120.5620
_cell_angle_gamma                 90.0000
loop_
_atom_site_label
_atom_site_type_symbol
_atom_site_fract_x
_atom_site_fract_y
_atom_site_fract_z
_atom_site_U_iso_or_equiv
_atom_site_adp_type
_atom_site_occupancy
C1     C     0.25220   0.90832   0.25807   0.00000  Uiso   1.00
C2     C     0.25063   0.97720   0.20395   0.00000  Uiso   1.00
C3     C     0.22047   0.95547   0.13455   0.00000  Uiso   1.00
C4     C     0.22457   0.02837   0.09348   0.00000  Uiso   1.00
C5     C     0.21713   0.12141   0.00529   0.00000  Uiso   1.00
C6     C     0.33642   0.90062   0.31515   0.00000  Uiso   1.00
C7     C     0.37838   0.81450   0.33926   0.00000  Uiso   1.00
C8     C     0.45469   0.82294   0.39180   0.00000  Uiso   1.00
C9     C     0.58042   0.79709   0.47628   0.00000  Uiso   1.00
C10    C     0.21130   0.96236   0.28967   0.00000  Uiso   1.00
C11    C     0.14808   0.92814   0.29238   0.00000  Uiso   1.00
C12    C     0.11906   0.98856   0.32348   0.00000  Uiso   1.00
C13    C     0.05053   0.05856   0.36841   0.00000  Uiso   1.00
C14    C     0.31310   0.07644   0.30852   0.00000  Uiso   1.00
C15    C     0.28371   0.06851   0.23136   0.00000  Uiso   1.00
C16    C     0.28785   0.14148   0.19038   0.00000  Uiso   1.00
C17    C     0.25770   0.11986   0.12093   0.00000  Uiso   1.00
C18    C     0.36949   0.99193   0.34256   0.00000  Uiso   1.00
C19    C     0.44575   0.00051   0.39508   0.00000  Uiso   1.00
C20    C     0.48783   0.91443   0.41925   0.00000  Uiso   1.00
C21    C     0.24438   0.05368   0.31708   0.00000  Uiso   1.00
C22    C     0.21545   0.11415   0.34820   0.00000  Uiso   1.00
C23    C     0.15220   0.08004   0.35094   0.00000  Uiso   1.00
H24    H     0.22646   0.83722   0.23673   0.00000  Uiso   1.00
H25    H     0.19489   0.88478   0.11337   0.00000  Uiso   1.00
H26    H     0.35277   0.74384   0.31804   0.00000  Uiso   1.00
H27    H     0.12250   0.85747   0.27116   0.00000  Uiso   1.00
H28    H     0.17450   0.97777   0.98868   0.00000  Uiso   1.00
H29    H     0.50739   0.68058   0.42027   0.00000  Uiso   1.00
H30    H     0.02183   0.92019   0.32142   0.00000  Uiso   1.00
H31    H     0.33885   0.14754   0.32986   0.00000  Uiso   1.00
H32    H     0.31345   0.21214   0.21160   0.00000  Uiso   1.00
H33    H     0.47133   0.07119   0.41628   0.00000  Uiso   1.00
H34    H     0.24106   0.18482   0.36940   0.00000  Uiso   1.00
H35    H     0.27073   0.24346   0.06841   0.00000  Uiso   1.00
H36    H     0.60362   0.94627   0.50000   0.00000  Uiso   1.00
H37    H     0.11806   0.18588   0.40115   0.00000  Uiso   1.00
O38    O     0.20390   0.14750   0.94908   0.00000  Uiso   1.00
O39    O     0.64063   0.75759   0.51531   0.00000  Uiso   1.00
O40    O     0.00359   0.07195   0.38562   0.00000  Uiso   1.00
N41    N     0.20062   0.03145   0.02367   0.00000  Uiso   1.00
N42    N     0.51186   0.75359   0.42717   0.00000  Uiso   1.00
N43    N     0.05791   0.97759   0.33477   0.00000  Uiso   1.00
N44    N     0.25240   0.17441   0.06658   0.00000  Uiso   1.00
N45    N     0.56364   0.89655   0.47007   0.00000  Uiso   1.00
N46    N     0.10969   0.12056   0.37768   0.00000  Uiso   1.00
C47    C     0.75220   0.40832   0.25807   0.00000  Uiso   1.00
C48    C     0.75063   0.47720   0.20395   0.00000  Uiso   1.00
C49    C     0.72047   0.45547   0.13455   0.00000  Uiso   1.00
C50    C     0.72457   0.52837   0.09348   0.00000  Uiso   1.00
C51    C     0.71713   0.62141   0.00529   0.00000  Uiso   1.00
C52    C     0.83642   0.40062   0.31515   0.00000  Uiso   1.00
C53    C     0.87838   0.31450   0.33926   0.00000  Uiso   1.00
C54    C     0.95469   0.32294   0.39180   0.00000  Uiso   1.00
C55    C     0.08042   0.29709   0.47628   0.00000  Uiso   1.00
C56    C     0.71130   0.46236   0.28967   0.00000  Uiso   1.00
C57    C     0.64808   0.42814   0.29238   0.00000  Uiso   1.00
C58    C     0.61906   0.48856   0.32348   0.00000  Uiso   1.00
C59    C     0.55053   0.55856   0.36841   0.00000  Uiso   1.00
C60    C     0.81310   0.57644   0.30852   0.00000  Uiso   1.00
C61    C     0.78371   0.56851   0.23136   0.00000  Uiso   1.00
C62    C     0.78785   0.64148   0.19038   0.00000  Uiso   1.00
C63    C     0.75770   0.61986   0.12093   0.00000  Uiso   1.00
C64    C     0.86949   0.49193   0.34256   0.00000  Uiso   1.00
C65    C     0.94575   0.50051   0.39508   0.00000  Uiso   1.00
C66    C     0.98783   0.41443   0.41925   0.00000  Uiso   1.00
C67    C     0.74438   0.55368   0.31708   0.00000  Uiso   1.00
C68    C     0.71545   0.61415   0.34820   0.00000  Uiso   1.00
C69    C     0.65220   0.58004   0.35094   0.00000  Uiso   1.00
H70    H     0.72646   0.33722   0.23673   0.00000  Uiso   1.00
H71    H     0.69489   0.38478   0.11337   0.00000  Uiso   1.00
H72    H     0.85277   0.24384   0.31804   0.00000  Uiso   1.00
H73    H     0.62250   0.35747   0.27116   0.00000  Uiso   1.00
H74    H     0.67450   0.47777   0.98868   0.00000  Uiso   1.00
H75    H     0.00739   0.18058   0.42027   0.00000  Uiso   1.00
H76    H     0.52183   0.42019   0.32142   0.00000  Uiso   1.00
H77    H     0.83885   0.64754   0.32986   0.00000  Uiso   1.00
H78    H     0.81345   0.71214   0.21160   0.00000  Uiso   1.00
H79    H     0.97133   0.57119   0.41628   0.00000  Uiso   1.00
H80    H     0.74106   0.68482   0.36940   0.00000  Uiso   1.00
H81    H     0.77073   0.74346   0.06841   0.00000  Uiso   1.00
H82    H     0.10362   0.44627   0.50000   0.00000  Uiso   1.00
H83    H     0.61806   0.68588   0.40115   0.00000  Uiso   1.00
O84    O     0.70390   0.64750   0.94908   0.00000  Uiso   1.00
O85    O     0.14063   0.25759   0.51531   0.00000  Uiso   1.00
O86    O     0.50359   0.57195   0.38562   0.00000  Uiso   1.00
N87    N     0.70062   0.53145   0.02367   0.00000  Uiso   1.00
N88    N     0.01186   0.25359   0.42717   0.00000  Uiso   1.00
N89    N     0.55791   0.47759   0.33477   0.00000  Uiso   1.00
N90    N     0.75240   0.67441   0.06658   0.00000  Uiso   1.00
N91    N     0.06364   0.39655   0.47007   0.00000  Uiso   1.00
N92    N     0.60969   0.62056   0.37768   0.00000  Uiso   1.00
C93    C     0.74780   0.90832   0.24193   0.00000  Uiso   1.00
C94    C     0.74937   0.97720   0.29605   0.00000  Uiso   1.00
C95    C     0.77953   0.95547   0.36545   0.00000  Uiso   1.00
C96    C     0.77543   0.02837   0.40652   0.00000  Uiso   1.00
C97    C     0.78287   0.12141   0.49471   0.00000  Uiso   1.00
C98    C     0.66358   0.90062   0.18485   0.00000  Uiso   1.00
C99    C     0.62162   0.81450   0.16074   0.00000  Uiso   1.00
C100   C     0.54531   0.82294   0.10820   0.00000  Uiso   1.00
C101   C     0.41958   0.79709   0.02372   0.00000  Uiso   1.00
C102   C     0.78870   0.96236   0.21033   0.00000  Uiso   1.00
C103   C     0.85192   0.92814   0.20762   0.00000  Uiso   1.00
C104   C     0.88094   0.98856   0.17652   0.00000  Uiso   1.00
C105   C     0.94947   0.05856   0.13159   0.00000  Uiso   1.00
C106   C     0.68690   0.07644   0.19148   0.00000  Uiso   1.00
C107   C     0.71629   0.06851   0.26864   0.00000  Uiso   1.00
C108   C     0.71215   0.14148   0.30962   0.00000  Uiso   1.00
C109   C     0.74230   0.11986   0.37907   0.00000  Uiso   1.00
C110   C     0.63051   0.99193   0.15744   0.00000  Uiso   1.00
C111   C     0.55425   0.00051   0.10492   0.00000  Uiso   1.00
C112   C     0.51217   0.91443   0.08075   0.00000  Uiso   1.00
C113   C     0.75562   0.05368   0.18292   0.00000  Uiso   1.00
C114   C     0.78455   0.11415   0.15180   0.00000  Uiso   1.00
C115   C     0.84780   0.08004   0.14906   0.00000  Uiso   1.00
H116   H     0.77354   0.83722   0.26327   0.00000  Uiso   1.00
H117   H     0.80511   0.88478   0.38663   0.00000  Uiso   1.00
H118   H     0.64723   0.74384   0.18196   0.00000  Uiso   1.00
H119   H     0.87750   0.85747   0.22884   0.00000  Uiso   1.00
H120   H     0.82550   0.97777   0.51132   0.00000  Uiso   1.00
H121   H     0.49261   0.68058   0.07973   0.00000  Uiso   1.00
H122   H     0.97817   0.92019   0.17858   0.00000  Uiso   1.00
H123   H     0.66115   0.14754   0.17014   0.00000  Uiso   1.00
H124   H     0.68655   0.21214   0.28840   0.00000  Uiso   1.00
H125   H     0.52867   0.07119   0.08372   0.00000  Uiso   1.00
H126   H     0.75894   0.18482   0.13060   0.00000  Uiso   1.00
H127   H     0.72927   0.24346   0.43159   0.00000  Uiso   1.00
H128   H     0.39638   0.94627  -0.00000   0.00000  Uiso   1.00
H129   H     0.88194   0.18588   0.09885   0.00000  Uiso   1.00
O130   O     0.79610   0.14750   0.55092   0.00000  Uiso   1.00
O131   O     0.35937   0.75759   0.98469   0.00000  Uiso   1.00
O132   O     0.99641   0.07195   0.11438   0.00000  Uiso   1.00
N133   N     0.79938   0.03145   0.47633   0.00000  Uiso   1.00
N134   N     0.48814   0.75359   0.07283   0.00000  Uiso   1.00
N135   N     0.94209   0.97759   0.16523   0.00000  Uiso   1.00
N136   N     0.74760   0.17441   0.43342   0.00000  Uiso   1.00
N137   N     0.43636   0.89655   0.02993   0.00000  Uiso   1.00
N138   N     0.89031   0.12056   0.12232   0.00000  Uiso   1.00
C139   C     0.24780   0.40832   0.24193   0.00000  Uiso   1.00
C140   C     0.24937   0.47720   0.29605   0.00000  Uiso   1.00
C141   C     0.27953   0.45547   0.36545   0.00000  Uiso   1.00
C142   C     0.27543   0.52837   0.40652   0.00000  Uiso   1.00
C143   C     0.28287   0.62141   0.49471   0.00000  Uiso   1.00
C144   C     0.16358   0.40062   0.18485   0.00000  Uiso   1.00
C145   C     0.12162   0.31450   0.16074   0.00000  Uiso   1.00
C146   C     0.04531   0.32294   0.10820   0.00000  Uiso   1.00
C147   C     0.91958   0.29709   0.02372   0.00000  Uiso   1.00
C148   C     0.28870   0.46236   0.21033   0.00000  Uiso   1.00
C149   C     0.35192   0.42814   0.20762   0.00000  Uiso   1.00
C150   C     0.38094   0.48856   0.17652   0.00000  Uiso   1.00
C151   C     0.44947   0.55856   0.13159   0.00000  Uiso   1.00
C152   C     0.18690   0.57644   0.19148   0.00000  Uiso   1.00
C153   C     0.21629   0.56851   0.26864   0.00000  Uiso   1.00
C154   C     0.21215   0.64148   0.30962   0.00000  Uiso   1.00
C155   C     0.24230   0.61986   0.37907   0.00000  Uiso   1.00
C156   C     0.13051   0.49193   0.15744   0.00000  Uiso   1.00
C157   C     0.05425   0.50051   0.10492   0.00000  Uiso   1.00
C158   C     0.01217   0.41443   0.08075   0.00000  Uiso   1.00
C159   C     0.25562   0.55368   0.18292   0.00000  Uiso   1.00
C160   C     0.28455   0.61415   0.15180   0.00000  Uiso   1.00
C161   C     0.34780   0.58004   0.14906   0.00000  Uiso   1.00
H162   H     0.27354   0.33722   0.26327   0.00000  Uiso   1.00
H163   H     0.30511   0.38478   0.38663   0.00000  Uiso   1.00
H164   H     0.14723   0.24384   0.18196   0.00000  Uiso   1.00
H165   H     0.37750   0.35747   0.22884   0.00000  Uiso   1.00
H166   H     0.32550   0.47777   0.51132   0.00000  Uiso   1.00
H167   H     0.99261   0.18058   0.07973   0.00000  Uiso   1.00
H168   H     0.47817   0.42019   0.17858   0.00000  Uiso   1.00
H169   H     0.16115   0.64754   0.17014   0.00000  Uiso   1.00
H170   H     0.18655   0.71214   0.28840   0.00000  Uiso   1.00
H171   H     0.02867   0.57119   0.08372   0.00000  Uiso   1.00
H172   H     0.25894   0.68482   0.13060   0.00000  Uiso   1.00
H173   H     0.22927   0.74346   0.43159   0.00000  Uiso   1.00
H174   H     0.89638   0.44627  -0.00000   0.00000  Uiso   1.00
H175   H     0.38194   0.68588   0.09885   0.00000  Uiso   1.00
O176   O     0.29610   0.64750   0.55092   0.00000  Uiso   1.00
O177   O     0.85937   0.25759   0.98469   0.00000  Uiso   1.00
O178   O     0.49641   0.57195   0.11438   0.00000  Uiso   1.00
N179   N     0.29938   0.53145   0.47633   0.00000  Uiso   1.00
N180   N     0.98814   0.25359   0.07283   0.00000  Uiso   1.00
N181   N     0.44209   0.47759   0.16523   0.00000  Uiso   1.00
N182   N     0.24760   0.67441   0.43342   0.00000  Uiso   1.00
N183   N     0.93636   0.39655   0.02993   0.00000  Uiso   1.00
N184   N     0.39031   0.62056   0.12232   0.00000  Uiso   1.00
C185   C     0.74780   0.09168   0.74193   0.00000  Uiso   1.00
C186   C     0.74937   0.02280   0.79605   0.00000  Uiso   1.00
C187   C     0.77953   0.04453   0.86545   0.00000  Uiso   1.00
C188   C     0.77543   0.97163   0.90652   0.00000  Uiso   1.00
C189   C     0.78287   0.87859   0.99471   0.00000  Uiso   1.00
C190   C     0.66358   0.09938   0.68485   0.00000  Uiso   1.00
C191   C     0.62162   0.18550   0.66074   0.00000  Uiso   1.00
C192   C     0.54531   0.17706   0.60820   0.00000  Uiso   1.00
C193   C     0.41958   0.20291   0.52372   0.00000  Uiso   1.00
C194   C     0.78870   0.03764   0.71033   0.00000  Uiso   1.00
C195   C     0.85192   0.07186   0.70762   0.00000  Uiso   1.00
C196   C     0.88094   0.01144   0.67652   0.00000  Uiso   1.00
C197   C     0.94947   0.94144   0.63159   0.00000  Uiso   1.00
C198   C     0.68690   0.92356   0.69148   0.00000  Uiso   1.00
C199   C     0.71629   0.93149   0.76864   0.00000  Uiso   1.00
C200   C     0.71215   0.85852   0.80962   0.00000  Uiso   1.00
C201   C     0.74230   0.88014   0.87907   0.00000  Uiso   1.00
C202   C     0.63051   0.00807   0.65744   0.00000  Uiso   1.00
C203   C     0.55425   0.99949   0.60492   0.00000  Uiso   1.00
C204   C     0.51217   0.08557   0.58075   0.00000  Uiso   1.00
C205   C     0.75562   0.94632   0.68292   0.00000  Uiso   1.00
C206   C     0.78455   0.88585   0.65180   0.00000  Uiso   1.00
C207   C     0.84780   0.91996   0.64906   0.00000  Uiso   1.00
H208   H     0.77354   0.16278   0.76327   0.00000  Uiso   1.00
H209   H     0.80511   0.11522   0.88663   0.00000  Uiso   1.00
H210   H     0.64723   0.25616   0.68196   0.00000  Uiso   1.00
H211   H     0.87750   0.14253   0.72884   0.00000  Uiso   1.00
H212   H     0.82550   0.02223   0.01132   0.00000  Uiso   1.00
H213   H     0.49261   0.31942   0.57973   0.00000  Uiso   1.00
H214   H     0.97817   0.07981   0.67858   0.00000  Uiso   1.00
H215   H     0.66115   0.85246   0.67014   0.00000  Uiso   1.00
H216   H     0.68655   0.78786   0.78840   0.00000  Uiso   1.00
H217   H     0.52867   0.92881   0.58372   0.00000  Uiso   1.00
H218   H     0.75894   0.81518   0.63060   0.00000  Uiso   1.00
H219   H     0.72927   0.75654   0.93159   0.00000  Uiso   1.00
H220   H     0.39638   0.05373   0.50000   0.00000  Uiso   1.00
H221   H     0.88194   0.81412   0.59885   0.00000  Uiso   1.00
O222   O     0.79610   0.85250   0.05092   0.00000  Uiso   1.00
O223   O     0.35937   0.24241   0.48469   0.00000  Uiso   1.00
O224   O     0.99641   0.92805   0.61438   0.00000  Uiso   1.00
N225   N     0.79938   0.96855   0.97633   0.00000  Uiso   1.00
N226   N     0.48814   0.24641   0.57283   0.00000  Uiso   1.00
N227   N     0.94209   0.02241   0.66523   0.00000  Uiso   1.00
N228   N     0.74760   0.82559   0.93342   0.00000  Uiso   1.00
N229   N     0.43636   0.10345   0.52993   0.00000  Uiso   1.00
N230   N     0.89031   0.87944   0.62232   0.00000  Uiso   1.00
C231   C     0.24780   0.59168   0.74193   0.00000  Uiso   1.00
C232   C     0.24937   0.52280   0.79605   0.00000  Uiso   1.00
C233   C     0.27953   0.54453   0.86545   0.00000  Uiso   1.00
C234   C     0.27543   0.47163   0.90652   0.00000  Uiso   1.00
C235   C     0.28287   0.37859   0.99471   0.00000  Uiso   1.00
C236   C     0.16358   0.59938   0.68485   0.00000  Uiso   1.00
C237   C     0.12162   0.68550   0.66074   0.00000  Uiso   1.00
C238   C     0.04531   0.67706   0.60820   0.00000  Uiso   1.00
C239   C     0.91958   0.70291   0.52372   0.00000  Uiso   1.00
C240   C     0.28870   0.53764   0.71033   0.00000  Uiso   1.00
C241   C     0.35192   0.57186   0.70762   0.00000  Uiso   1.00
C242   C     0.38094   0.51144   0.67652   0.00000  Uiso   1.00
C243   C     0.44947   0.44144   0.63159   0.00000  Uiso   1.00
C244   C     0.18690   0.42356   0.69148   0.00000  Uiso   1.00
C245   C     0.21629   0.43149   0.76864   0.00000  Uiso   1.00
C246   C     0.21215   0.35852   0.80962   0.00000  Uiso   1.00
C247   C     0.24230   0.38014   0.87907   0.00000  Uiso   1.00
C248   C     0.13051   0.50807   0.65744   0.00000  Uiso   1.00
C249   C     0.05425   0.49949   0.60492   0.00000  Uiso   1.00
C250   C     0.01217   0.58557   0.58075   0.00000  Uiso   1.00
C251   C     0.25562   0.44632   0.68292   0.00000  Uiso   1.00
C252   C     0.28455   0.38585   0.65180   0.00000  Uiso   1.00
C253   C     0.34780   0.41996   0.64906   0.00000  Uiso   1.00
H254   H     0.27354   0.66278   0.76327   0.00000  Uiso   1.00
H255   H     0.30511   0.61522   0.88663   0.00000  Uiso   1.00
H256   H     0.14723   0.75616   0.68196   0.00000  Uiso   1.00
H257   H     0.37750   0.64253   0.72884   0.00000  Uiso   1.00
H258   H     0.32550   0.52223   0.01132   0.00000  Uiso   1.00
H259   H     0.99261   0.81942   0.57973   0.00000  Uiso   1.00
H260   H     0.47817   0.57981   0.67858   0.00000  Uiso   1.00
H261   H     0.16115   0.35246   0.67014   0.00000  Uiso   1.00
H262   H     0.18655   0.28786   0.78840   0.00000  Uiso   1.00
H263   H     0.02867   0.42881   0.58372   0.00000  Uiso   1.00
H264   H     0.25894   0.31518   0.63060   0.00000  Uiso   1.00
H265   H     0.22927   0.25654   0.93159   0.00000  Uiso   1.00
H266   H     0.89638   0.55373   0.50000   0.00000  Uiso   1.00
H267   H     0.38194   0.31412   0.59885   0.00000  Uiso   1.00
O268   O     0.29610   0.35250   0.05092   0.00000  Uiso   1.00
O269   O     0.85937   0.74241   0.48469   0.00000  Uiso   1.00
O270   O     0.49641   0.42805   0.61438   0.00000  Uiso   1.00
N271   N     0.29938   0.46855   0.97633   0.00000  Uiso   1.00
N272   N     0.98814   0.74641   0.57283   0.00000  Uiso   1.00
N273   N     0.44209   0.52241   0.66523   0.00000  Uiso   1.00
N274   N     0.24760   0.32559   0.93342   0.00000  Uiso   1.00
N275   N     0.93636   0.60345   0.52993   0.00000  Uiso   1.00
N276   N     0.39031   0.37944   0.62232   0.00000  Uiso   1.00
C277   C     0.25220   0.09168   0.75807   0.00000  Uiso   1.00
C278   C     0.25063   0.02280   0.70395   0.00000  Uiso   1.00
C279   C     0.22047   0.04453   0.63455   0.00000  Uiso   1.00
C280   C     0.22457   0.97163   0.59348   0.00000  Uiso   1.00
C281   C     0.21713   0.87859   0.50529   0.00000  Uiso   1.00
C282   C     0.33642   0.09938   0.81515   0.00000  Uiso   1.00
C283   C     0.37838   0.18550   0.83926   0.00000  Uiso   1.00
C284   C     0.45469   0.17706   0.89180   0.00000  Uiso   1.00
C285   C     0.58042   0.20291   0.97628   0.00000  Uiso   1.00
C286   C     0.21130   0.03764   0.78967   0.00000  Uiso   1.00
C287   C     0.14808   0.07186   0.79238   0.00000  Uiso   1.00
C288   C     0.11906   0.01144   0.82348   0.00000  Uiso   1.00
C289   C     0.05053   0.94144   0.86841   0.00000  Uiso   1.00
C290   C     0.31310   0.92356   0.80852   0.00000  Uiso   1.00
C291   C     0.28371   0.93149   0.73136   0.00000  Uiso   1.00
C292   C     0.28785   0.85852   0.69038   0.00000  Uiso   1.00
C293   C     0.25770   0.88014   0.62093   0.00000  Uiso   1.00
C294   C     0.36949   0.00807   0.84256   0.00000  Uiso   1.00
C295   C     0.44575   0.99949   0.89508   0.00000  Uiso   1.00
C296   C     0.48783   0.08557   0.91925   0.00000  Uiso   1.00
C297   C     0.24438   0.94632   0.81708   0.00000  Uiso   1.00
C298   C     0.21545   0.88585   0.84820   0.00000  Uiso   1.00
C299   C     0.15220   0.91996   0.85094   0.00000  Uiso   1.00
H300   H     0.22646   0.16278   0.73673   0.00000  Uiso   1.00
H301   H     0.19489   0.11522   0.61337   0.00000  Uiso   1.00
H302   H     0.35277   0.25616   0.81804   0.00000  Uiso   1.00
H303   H     0.12250   0.14253   0.77116   0.00000  Uiso   1.00
H304   H     0.17450   0.02223   0.48868   0.00000  Uiso   1.00
H305   H     0.50739   0.31942   0.92027   0.00000  Uiso   1.00
H306   H     0.02183   0.07981   0.82142   0.00000  Uiso   1.00
H307   H     0.33885   0.85246   0.82986   0.00000  Uiso   1.00
H308   H     0.31345   0.78786   0.71160   0.00000  Uiso   1.00
H309   H     0.47133   0.92881   0.91628   0.00000  Uiso   1.00
H310   H     0.24106   0.81518   0.86940   0.00000  Uiso   1.00
H311   H     0.27073   0.75654   0.56841   0.00000  Uiso   1.00
H312   H     0.60362   0.05373   0.00000   0.00000  Uiso   1.00
H313   H     0.11806   0.81412   0.90115   0.00000  Uiso   1.00
O314   O     0.20390   0.85250   0.44908   0.00000  Uiso   1.00
O315   O     0.64063   0.24241   0.01531   0.00000  Uiso   1.00
O316   O     0.00359   0.92805   0.88562   0.00000  Uiso   1.00
N317   N     0.20062   0.96855   0.52367   0.00000  Uiso   1.00
N318   N     0.51186   0.24641   0.92717   0.00000  Uiso   1.00
N319   N     0.05791   0.02241   0.83477   0.00000  Uiso   1.00
N320   N     0.25240   0.82559   0.56658   0.00000  Uiso   1.00
N321   N     0.56364   0.10345   0.97007   0.00000  Uiso   1.00
N322   N     0.10969   0.87944   0.87768   0.00000  Uiso   1.00
C323   C     0.75220   0.59168   0.75807   0.00000  Uiso   1.00
C324   C     0.75063   0.52280   0.70395   0.00000  Uiso   1.00
C325   C     0.72047   0.54453   0.63455   0.00000  Uiso   1.00
C326   C     0.72457   0.47163   0.59348   0.00000  Uiso   1.00
C327   C     0.71713   0.37859   0.50529   0.00000  Uiso   1.00
C328   C     0.83642   0.59938   0.81515   0.00000  Uiso   1.00
C329   C     0.87838   0.68550   0.83926   0.00000  Uiso   1.00
C330   C     0.95469   0.67706   0.89180   0.00000  Uiso   1.00
C331   C     0.08042   0.70291   0.97628   0.00000  Uiso   1.00
C332   C     0.71130   0.53764   0.78967   0.00000  Uiso   1.00
C333   C     0.64808   0.57186   0.79238   0.00000  Uiso   1.00
C334   C     0.61906   0.51144   0.82348   0.00000  Uiso   1.00
C335   C     0.55053   0.44144   0.86841   0.00000  Uiso   1.00
C336   C     0.81310   0.42356   0.80852   0.00000  Uiso   1.00
C337   C     0.78371   0.43149   0.73136   0.00000  Uiso   1.00
C338   C     0.78785   0.35852   0.69038   0.00000  Uiso   1.00
C339   C     0.75770   0.38014   0.62093   0.00000  Uiso   1.00
C340   C     0.86949   0.50807   0.84256   0.00000  Uiso   1.00
C341   C     0.94575   0.49949   0.89508   0.00000  Uiso   1.00
C342   C     0.98783   0.58557   0.91925   0.00000  Uiso   1.00
C343   C     0.74438   0.44632   0.81708   0.00000  Uiso   1.00
C344   C     0.71545   0.38585   0.84820   0.00000  Uiso   1.00
C345   C     0.65220   0.41996   0.85094   0.00000  Uiso   1.00
H346   H     0.72646   0.66278   0.73673   0.00000  Uiso   1.00
H347   H     0.69489   0.61522   0.61337   0.00000  Uiso   1.00
H348   H     0.85277   0.75616   0.81804   0.00000  Uiso   1.00
H349   H     0.62250   0.64253   0.77116   0.00000  Uiso   1.00
H350   H     0.67450   0.52223   0.48868   0.00000  Uiso   1.00
H351   H     0.00739   0.81942   0.92027   0.00000  Uiso   1.00
H352   H     0.52183   0.57981   0.82142   0.00000  Uiso   1.00
H353   H     0.83885   0.35246   0.82986   0.00000  Uiso   1.00
H354   H     0.81345   0.28786   0.71160   0.00000  Uiso   1.00
H355   H     0.97133   0.42881   0.91628   0.00000  Uiso   1.00
H356   H     0.74106   0.31518   0.86940   0.00000  Uiso   1.00
H357   H     0.77073   0.25654   0.56841   0.00000  Uiso   1.00
H358   H     0.10362   0.55373   0.00000   0.00000  Uiso   1.00
H359   H     0.61806   0.31412   0.90115   0.00000  Uiso   1.00
O360   O     0.70390   0.35250   0.44908   0.00000  Uiso   1.00
O361   O     0.14063   0.74241   0.01531   0.00000  Uiso   1.00
O362   O     0.50359   0.42805   0.88562   0.00000  Uiso   1.00
N363   N     0.70062   0.46855   0.52367   0.00000  Uiso   1.00
N364   N     0.01186   0.74641   0.92717   0.00000  Uiso   1.00
N365   N     0.55791   0.52241   0.83477   0.00000  Uiso   1.00
N366   N     0.75240   0.32559   0.56658   0.00000  Uiso   1.00
N367   N     0.06364   0.60345   0.97007   0.00000  Uiso   1.00
N368   N     0.60969   0.37944   0.87768   0.00000  Uiso   1.00
