data_job_00295
_audit_creation_date              2018-12-19
_audit_creation_method            'Materials Studio'
_symmetry_space_group_name_H-M    'P1'
_symmetry_Int_Tables_number       1
_symmetry_cell_setting            triclinic
loop_
_symmetry_equiv_pos_as_xyz
  x,y,z
_cell_length_a                    12.2161
_cell_length_b                    24.3289
_cell_length_c                    16.6321
_cell_angle_alpha                 90.0000
_cell_angle_beta                  90.0000
_cell_angle_gamma                 90.0000
loop_
_atom_site_label
_atom_site_type_symbol
_atom_site_fract_x
_atom_site_fract_y
_atom_site_fract_z
_atom_site_U_iso_or_equiv
_atom_site_adp_type
_atom_site_occupancy
C1     C     0.33205   0.06728   0.07607   0.00000  Uiso   1.00
C2     C     0.30442   0.05154   0.16247   0.00000  Uiso   1.00
C3     C     0.31023   0.99900   0.19470   0.00000  Uiso   1.00
C4     C     0.28150   0.99311   0.27500   0.00000  Uiso   1.00
C5     C     0.24360   0.96180   0.40209   0.00000  Uiso   1.00
C6     C     0.23016   0.09532   0.04255   0.00000  Uiso   1.00
C7     C     0.17356   0.07960   0.97395   0.00000  Uiso   1.00
C8     C     0.08233   0.11057   0.95331   0.00000  Uiso   1.00
C9     C     0.92920   0.14727   0.89419   0.00000  Uiso   1.00
C10    C     0.41951   0.11184   0.08166   0.00000  Uiso   1.00
C11    C     0.52211   0.11002   0.04592   0.00000  Uiso   1.00
C12    C     0.59029   0.15490   0.05818   0.00000  Uiso   1.00
C13    C     0.73116   0.21724   0.05978   0.00000  Uiso   1.00
C14    C     0.27069   0.15024   0.16137   0.00000  Uiso   1.00
C15    C     0.27108   0.09659   0.20880   0.00000  Uiso   1.00
C16    C     0.24234   0.09078   0.28907   0.00000  Uiso   1.00
C17    C     0.24811   0.03825   0.32142   0.00000  Uiso   1.00
C18    C     0.19683   0.14038   0.08888   0.00000  Uiso   1.00
C19    C     0.10567   0.17138   0.06833   0.00000  Uiso   1.00
C20    C     0.04894   0.15571   0.99972   0.00000  Uiso   1.00
C21    C     0.38619   0.15689   0.12799   0.00000  Uiso   1.00
C22    C     0.45422   0.20179   0.14030   0.00000  Uiso   1.00
C23    C     0.55690   0.20004   0.10459   0.00000  Uiso   1.00
H24    H     0.35799   0.03220   0.04000   0.00000  Uiso   1.00
H25    H     0.33602   0.96414   0.15882   0.00000  Uiso   1.00
H26    H     0.19937   0.04474   0.93811   0.00000  Uiso   1.00
H27    H     0.54787   0.07514   0.01007   0.00000  Uiso   1.00
H28    H     0.29691   0.90855   0.31098   0.00000  Uiso   1.00
H29    H     0.00882   0.07850   0.84558   0.00000  Uiso   1.00
H30    H     0.74370   0.14262   0.99732   0.00000  Uiso   1.00
H31    H     0.24474   0.18532   0.19744   0.00000  Uiso   1.00
H32    H     0.21655   0.12566   0.32491   0.00000  Uiso   1.00
H33    H     0.07991   0.20625   0.10419   0.00000  Uiso   1.00
H34    H     0.42840   0.23666   0.17616   0.00000  Uiso   1.00
H35    H     0.19995   0.03964   0.44579   0.00000  Uiso   1.00
H36    H     0.91185   0.20959   0.98037   0.00000  Uiso   1.00
H37    H     0.64673   0.27371   0.13212   0.00000  Uiso   1.00
O38    O     0.23189   0.93208   0.45939   0.00000  Uiso   1.00
O39    O     0.85394   0.15505   0.84878   0.00000  Uiso   1.00
O40    O     0.81808   0.23917   0.04787   0.00000  Uiso   1.00
N41    N     0.27798   0.94759   0.32522   0.00000  Uiso   1.00
N42    N     0.00862   0.10648   0.89010   0.00000  Uiso   1.00
N43    N     0.69566   0.16643   0.03195   0.00000  Uiso   1.00
N44    N     0.22581   0.01813   0.39776   0.00000  Uiso   1.00
N45    N     0.95644   0.17701   0.96264   0.00000  Uiso   1.00
N46    N     0.64348   0.23697   0.10449   0.00000  Uiso   1.00
C47    C     0.83205   0.56728   0.07607   0.00000  Uiso   1.00
C48    C     0.80442   0.55154   0.16247   0.00000  Uiso   1.00
C49    C     0.81023   0.49900   0.19470   0.00000  Uiso   1.00
C50    C     0.78150   0.49311   0.27500   0.00000  Uiso   1.00
C51    C     0.74360   0.46180   0.40209   0.00000  Uiso   1.00
C52    C     0.73016   0.59532   0.04255   0.00000  Uiso   1.00
C53    C     0.67356   0.57960   0.97395   0.00000  Uiso   1.00
C54    C     0.58233   0.61057   0.95331   0.00000  Uiso   1.00
C55    C     0.42920   0.64727   0.89419   0.00000  Uiso   1.00
C56    C     0.91951   0.61184   0.08166   0.00000  Uiso   1.00
C57    C     0.02211   0.61002   0.04592   0.00000  Uiso   1.00
C58    C     0.09029   0.65490   0.05818   0.00000  Uiso   1.00
C59    C     0.23116   0.71724   0.05978   0.00000  Uiso   1.00
C60    C     0.77069   0.65024   0.16137   0.00000  Uiso   1.00
C61    C     0.77108   0.59659   0.20880   0.00000  Uiso   1.00
C62    C     0.74234   0.59078   0.28907   0.00000  Uiso   1.00
C63    C     0.74811   0.53825   0.32142   0.00000  Uiso   1.00
C64    C     0.69683   0.64038   0.08888   0.00000  Uiso   1.00
C65    C     0.60567   0.67138   0.06833   0.00000  Uiso   1.00
C66    C     0.54894   0.65571   0.99972   0.00000  Uiso   1.00
C67    C     0.88619   0.65689   0.12799   0.00000  Uiso   1.00
C68    C     0.95422   0.70179   0.14030   0.00000  Uiso   1.00
C69    C     0.05690   0.70004   0.10459   0.00000  Uiso   1.00
H70    H     0.85799   0.53220   0.04000   0.00000  Uiso   1.00
H71    H     0.83602   0.46414   0.15882   0.00000  Uiso   1.00
H72    H     0.69937   0.54474   0.93811   0.00000  Uiso   1.00
H73    H     0.04787   0.57514   0.01007   0.00000  Uiso   1.00
H74    H     0.79691   0.40855   0.31098   0.00000  Uiso   1.00
H75    H     0.50882   0.57850   0.84558   0.00000  Uiso   1.00
H76    H     0.24370   0.64262   0.99732   0.00000  Uiso   1.00
H77    H     0.74474   0.68532   0.19744   0.00000  Uiso   1.00
H78    H     0.71655   0.62566   0.32491   0.00000  Uiso   1.00
H79    H     0.57991   0.70625   0.10419   0.00000  Uiso   1.00
H80    H     0.92840   0.73666   0.17616   0.00000  Uiso   1.00
H81    H     0.69995   0.53964   0.44579   0.00000  Uiso   1.00
H82    H     0.41185   0.70959   0.98037   0.00000  Uiso   1.00
H83    H     0.14673   0.77371   0.13212   0.00000  Uiso   1.00
O84    O     0.73189   0.43208   0.45939   0.00000  Uiso   1.00
O85    O     0.35394   0.65505   0.84878   0.00000  Uiso   1.00
O86    O     0.31808   0.73917   0.04787   0.00000  Uiso   1.00
N87    N     0.77798   0.44759   0.32522   0.00000  Uiso   1.00
N88    N     0.50862   0.60648   0.89010   0.00000  Uiso   1.00
N89    N     0.19566   0.66643   0.03195   0.00000  Uiso   1.00
N90    N     0.72581   0.51813   0.39776   0.00000  Uiso   1.00
N91    N     0.45644   0.67701   0.96264   0.00000  Uiso   1.00
N92    N     0.14348   0.73697   0.10449   0.00000  Uiso   1.00
C93    C     0.66795   0.93272   0.57607   0.00000  Uiso   1.00
C94    C     0.69558   0.94846   0.66247   0.00000  Uiso   1.00
C95    C     0.68977   0.00100   0.69470   0.00000  Uiso   1.00
C96    C     0.71850   0.00689   0.77500   0.00000  Uiso   1.00
C97    C     0.75640   0.03820   0.90209   0.00000  Uiso   1.00
C98    C     0.76984   0.90468   0.54255   0.00000  Uiso   1.00
C99    C     0.82644   0.92040   0.47395   0.00000  Uiso   1.00
C100   C     0.91767   0.88943   0.45331   0.00000  Uiso   1.00
C101   C     0.07080   0.85273   0.39419   0.00000  Uiso   1.00
C102   C     0.58049   0.88816   0.58166   0.00000  Uiso   1.00
C103   C     0.47789   0.88998   0.54592   0.00000  Uiso   1.00
C104   C     0.40971   0.84510   0.55818   0.00000  Uiso   1.00
C105   C     0.26884   0.78276   0.55978   0.00000  Uiso   1.00
C106   C     0.72931   0.84976   0.66137   0.00000  Uiso   1.00
C107   C     0.72892   0.90341   0.70880   0.00000  Uiso   1.00
C108   C     0.75766   0.90922   0.78907   0.00000  Uiso   1.00
C109   C     0.75189   0.96175   0.82142   0.00000  Uiso   1.00
C110   C     0.80317   0.85962   0.58888   0.00000  Uiso   1.00
C111   C     0.89433   0.82862   0.56833   0.00000  Uiso   1.00
C112   C     0.95106   0.84429   0.49972   0.00000  Uiso   1.00
C113   C     0.61381   0.84311   0.62799   0.00000  Uiso   1.00
C114   C     0.54578   0.79821   0.64030   0.00000  Uiso   1.00
C115   C     0.44310   0.79996   0.60459   0.00000  Uiso   1.00
H116   H     0.64201   0.96780   0.54000   0.00000  Uiso   1.00
H117   H     0.66398   0.03586   0.65882   0.00000  Uiso   1.00
H118   H     0.80063   0.95526   0.43811   0.00000  Uiso   1.00
H119   H     0.45213   0.92486   0.51007   0.00000  Uiso   1.00
H120   H     0.70309   0.09145   0.81098   0.00000  Uiso   1.00
H121   H     0.99118   0.92150   0.34558   0.00000  Uiso   1.00
H122   H     0.25630   0.85738   0.49732   0.00000  Uiso   1.00
H123   H     0.75526   0.81468   0.69744   0.00000  Uiso   1.00
H124   H     0.78345   0.87434   0.82491   0.00000  Uiso   1.00
H125   H     0.92009   0.79375   0.60419   0.00000  Uiso   1.00
H126   H     0.57160   0.76334   0.67616   0.00000  Uiso   1.00
H127   H     0.80005   0.96036   0.94579   0.00000  Uiso   1.00
H128   H     0.08815   0.79041   0.48037   0.00000  Uiso   1.00
H129   H     0.35327   0.72629   0.63212   0.00000  Uiso   1.00
O130   O     0.76811   0.06792   0.95939   0.00000  Uiso   1.00
O131   O     0.14606   0.84495   0.34878   0.00000  Uiso   1.00
O132   O     0.18192   0.76083   0.54787   0.00000  Uiso   1.00
N133   N     0.72202   0.05241   0.82522   0.00000  Uiso   1.00
N134   N     0.99138   0.89352   0.39010   0.00000  Uiso   1.00
N135   N     0.30434   0.83357   0.53195   0.00000  Uiso   1.00
N136   N     0.77419   0.98187   0.89776   0.00000  Uiso   1.00
N137   N     0.04356   0.82299   0.46264   0.00000  Uiso   1.00
N138   N     0.35652   0.76303   0.60449   0.00000  Uiso   1.00
C139   C     0.16795   0.43272   0.57607   0.00000  Uiso   1.00
C140   C     0.19558   0.44846   0.66247   0.00000  Uiso   1.00
C141   C     0.18977   0.50100   0.69470   0.00000  Uiso   1.00
C142   C     0.21850   0.50689   0.77500   0.00000  Uiso   1.00
C143   C     0.25640   0.53820   0.90209   0.00000  Uiso   1.00
C144   C     0.26984   0.40468   0.54255   0.00000  Uiso   1.00
C145   C     0.32644   0.42040   0.47395   0.00000  Uiso   1.00
C146   C     0.41767   0.38943   0.45331   0.00000  Uiso   1.00
C147   C     0.57080   0.35273   0.39419   0.00000  Uiso   1.00
C148   C     0.08049   0.38816   0.58166   0.00000  Uiso   1.00
C149   C     0.97789   0.38998   0.54592   0.00000  Uiso   1.00
C150   C     0.90971   0.34510   0.55818   0.00000  Uiso   1.00
C151   C     0.76884   0.28276   0.55978   0.00000  Uiso   1.00
C152   C     0.22931   0.34976   0.66137   0.00000  Uiso   1.00
C153   C     0.22892   0.40341   0.70880   0.00000  Uiso   1.00
C154   C     0.25766   0.40922   0.78907   0.00000  Uiso   1.00
C155   C     0.25189   0.46175   0.82142   0.00000  Uiso   1.00
C156   C     0.30317   0.35962   0.58888   0.00000  Uiso   1.00
C157   C     0.39433   0.32862   0.56833   0.00000  Uiso   1.00
C158   C     0.45106   0.34429   0.49972   0.00000  Uiso   1.00
C159   C     0.11381   0.34311   0.62799   0.00000  Uiso   1.00
C160   C     0.04578   0.29821   0.64030   0.00000  Uiso   1.00
C161   C     0.94310   0.29996   0.60459   0.00000  Uiso   1.00
H162   H     0.14201   0.46780   0.54000   0.00000  Uiso   1.00
H163   H     0.16398   0.53586   0.65882   0.00000  Uiso   1.00
H164   H     0.30063   0.45526   0.43811   0.00000  Uiso   1.00
H165   H     0.95213   0.42486   0.51007   0.00000  Uiso   1.00
H166   H     0.20309   0.59145   0.81098   0.00000  Uiso   1.00
H167   H     0.49118   0.42150   0.34558   0.00000  Uiso   1.00
H168   H     0.75630   0.35738   0.49732   0.00000  Uiso   1.00
H169   H     0.25526   0.31468   0.69744   0.00000  Uiso   1.00
H170   H     0.28345   0.37434   0.82491   0.00000  Uiso   1.00
H171   H     0.42009   0.29375   0.60419   0.00000  Uiso   1.00
H172   H     0.07160   0.26334   0.67616   0.00000  Uiso   1.00
H173   H     0.30005   0.46036   0.94579   0.00000  Uiso   1.00
H174   H     0.58815   0.29041   0.48037   0.00000  Uiso   1.00
H175   H     0.85327   0.22629   0.63212   0.00000  Uiso   1.00
O176   O     0.26811   0.56792   0.95939   0.00000  Uiso   1.00
O177   O     0.64606   0.34495   0.34878   0.00000  Uiso   1.00
O178   O     0.68192   0.26083   0.54787   0.00000  Uiso   1.00
N179   N     0.22202   0.55241   0.82522   0.00000  Uiso   1.00
N180   N     0.49138   0.39352   0.39010   0.00000  Uiso   1.00
N181   N     0.80434   0.33357   0.53195   0.00000  Uiso   1.00
N182   N     0.27419   0.48187   0.89776   0.00000  Uiso   1.00
N183   N     0.54356   0.32299   0.46264   0.00000  Uiso   1.00
N184   N     0.85652   0.26303   0.60449   0.00000  Uiso   1.00
C185   C     0.66795   0.06728   0.42393   0.00000  Uiso   1.00
C186   C     0.69558   0.05154   0.33753   0.00000  Uiso   1.00
C187   C     0.68977   0.99900   0.30530   0.00000  Uiso   1.00
C188   C     0.71850   0.99311   0.22500   0.00000  Uiso   1.00
C189   C     0.75640   0.96180   0.09791   0.00000  Uiso   1.00
C190   C     0.76984   0.09532   0.45745   0.00000  Uiso   1.00
C191   C     0.82644   0.07960   0.52605   0.00000  Uiso   1.00
C192   C     0.91767   0.11057   0.54669   0.00000  Uiso   1.00
C193   C     0.07080   0.14727   0.60581   0.00000  Uiso   1.00
C194   C     0.58049   0.11184   0.41834   0.00000  Uiso   1.00
C195   C     0.47789   0.11002   0.45408   0.00000  Uiso   1.00
C196   C     0.40971   0.15490   0.44182   0.00000  Uiso   1.00
C197   C     0.26884   0.21724   0.44022   0.00000  Uiso   1.00
C198   C     0.72931   0.15024   0.33863   0.00000  Uiso   1.00
C199   C     0.72892   0.09659   0.29120   0.00000  Uiso   1.00
C200   C     0.75766   0.09078   0.21093   0.00000  Uiso   1.00
C201   C     0.75189   0.03825   0.17858   0.00000  Uiso   1.00
C202   C     0.80317   0.14038   0.41112   0.00000  Uiso   1.00
C203   C     0.89433   0.17138   0.43167   0.00000  Uiso   1.00
C204   C     0.95106   0.15571   0.50028   0.00000  Uiso   1.00
C205   C     0.61381   0.15689   0.37201   0.00000  Uiso   1.00
C206   C     0.54578   0.20179   0.35970   0.00000  Uiso   1.00
C207   C     0.44310   0.20004   0.39541   0.00000  Uiso   1.00
H208   H     0.64201   0.03220   0.46000   0.00000  Uiso   1.00
H209   H     0.66398   0.96414   0.34118   0.00000  Uiso   1.00
H210   H     0.80063   0.04474   0.56189   0.00000  Uiso   1.00
H211   H     0.45213   0.07514   0.48993   0.00000  Uiso   1.00
H212   H     0.70309   0.90855   0.18902   0.00000  Uiso   1.00
H213   H     0.99118   0.07850   0.65442   0.00000  Uiso   1.00
H214   H     0.25630   0.14262   0.50268   0.00000  Uiso   1.00
H215   H     0.75526   0.18532   0.30256   0.00000  Uiso   1.00
H216   H     0.78345   0.12566   0.17509   0.00000  Uiso   1.00
H217   H     0.92009   0.20625   0.39581   0.00000  Uiso   1.00
H218   H     0.57160   0.23666   0.32384   0.00000  Uiso   1.00
H219   H     0.80005   0.03964   0.05421   0.00000  Uiso   1.00
H220   H     0.08815   0.20959   0.51963   0.00000  Uiso   1.00
H221   H     0.35327   0.27371   0.36788   0.00000  Uiso   1.00
O222   O     0.76811   0.93208   0.04061   0.00000  Uiso   1.00
O223   O     0.14606   0.15505   0.65122   0.00000  Uiso   1.00
O224   O     0.18192   0.23917   0.45213   0.00000  Uiso   1.00
N225   N     0.72202   0.94759   0.17478   0.00000  Uiso   1.00
N226   N     0.99138   0.10648   0.60990   0.00000  Uiso   1.00
N227   N     0.30434   0.16643   0.46805   0.00000  Uiso   1.00
N228   N     0.77419   0.01813   0.10224   0.00000  Uiso   1.00
N229   N     0.04356   0.17701   0.53736   0.00000  Uiso   1.00
N230   N     0.35652   0.23697   0.39551   0.00000  Uiso   1.00
C231   C     0.16795   0.56728   0.42393   0.00000  Uiso   1.00
C232   C     0.19558   0.55154   0.33753   0.00000  Uiso   1.00
C233   C     0.18977   0.49900   0.30530   0.00000  Uiso   1.00
C234   C     0.21850   0.49311   0.22500   0.00000  Uiso   1.00
C235   C     0.25640   0.46180   0.09791   0.00000  Uiso   1.00
C236   C     0.26984   0.59532   0.45745   0.00000  Uiso   1.00
C237   C     0.32644   0.57960   0.52605   0.00000  Uiso   1.00
C238   C     0.41767   0.61057   0.54669   0.00000  Uiso   1.00
C239   C     0.57080   0.64727   0.60581   0.00000  Uiso   1.00
C240   C     0.08049   0.61184   0.41834   0.00000  Uiso   1.00
C241   C     0.97789   0.61002   0.45408   0.00000  Uiso   1.00
C242   C     0.90971   0.65490   0.44182   0.00000  Uiso   1.00
C243   C     0.76884   0.71724   0.44022   0.00000  Uiso   1.00
C244   C     0.22931   0.65024   0.33863   0.00000  Uiso   1.00
C245   C     0.22892   0.59659   0.29120   0.00000  Uiso   1.00
C246   C     0.25766   0.59078   0.21093   0.00000  Uiso   1.00
C247   C     0.25189   0.53825   0.17858   0.00000  Uiso   1.00
C248   C     0.30317   0.64038   0.41112   0.00000  Uiso   1.00
C249   C     0.39433   0.67138   0.43167   0.00000  Uiso   1.00
C250   C     0.45106   0.65571   0.50028   0.00000  Uiso   1.00
C251   C     0.11381   0.65689   0.37201   0.00000  Uiso   1.00
C252   C     0.04578   0.70179   0.35970   0.00000  Uiso   1.00
C253   C     0.94310   0.70004   0.39541   0.00000  Uiso   1.00
H254   H     0.14201   0.53220   0.46000   0.00000  Uiso   1.00
H255   H     0.16398   0.46414   0.34118   0.00000  Uiso   1.00
H256   H     0.30063   0.54474   0.56189   0.00000  Uiso   1.00
H257   H     0.95213   0.57514   0.48993   0.00000  Uiso   1.00
H258   H     0.20309   0.40855   0.18902   0.00000  Uiso   1.00
H259   H     0.49118   0.57850   0.65442   0.00000  Uiso   1.00
H260   H     0.75630   0.64262   0.50268   0.00000  Uiso   1.00
H261   H     0.25526   0.68532   0.30256   0.00000  Uiso   1.00
H262   H     0.28345   0.62566   0.17509   0.00000  Uiso   1.00
H263   H     0.42009   0.70625   0.39581   0.00000  Uiso   1.00
H264   H     0.07160   0.73666   0.32384   0.00000  Uiso   1.00
H265   H     0.30005   0.53964   0.05421   0.00000  Uiso   1.00
H266   H     0.58815   0.70959   0.51963   0.00000  Uiso   1.00
H267   H     0.85327   0.77371   0.36788   0.00000  Uiso   1.00
O268   O     0.26811   0.43208   0.04061   0.00000  Uiso   1.00
O269   O     0.64606   0.65505   0.65122   0.00000  Uiso   1.00
O270   O     0.68192   0.73917   0.45213   0.00000  Uiso   1.00
N271   N     0.22202   0.44759   0.17478   0.00000  Uiso   1.00
N272   N     0.49138   0.60648   0.60990   0.00000  Uiso   1.00
N273   N     0.80434   0.66643   0.46805   0.00000  Uiso   1.00
N274   N     0.27419   0.51813   0.10224   0.00000  Uiso   1.00
N275   N     0.54356   0.67701   0.53736   0.00000  Uiso   1.00
N276   N     0.85652   0.73697   0.39551   0.00000  Uiso   1.00
C277   C     0.33205   0.93272   0.92393   0.00000  Uiso   1.00
C278   C     0.30442   0.94846   0.83753   0.00000  Uiso   1.00
C279   C     0.31023   0.00100   0.80530   0.00000  Uiso   1.00
C280   C     0.28150   0.00689   0.72500   0.00000  Uiso   1.00
C281   C     0.24360   0.03820   0.59791   0.00000  Uiso   1.00
C282   C     0.23016   0.90468   0.95745   0.00000  Uiso   1.00
C283   C     0.17356   0.92040   0.02605   0.00000  Uiso   1.00
C284   C     0.08233   0.88943   0.04669   0.00000  Uiso   1.00
C285   C     0.92920   0.85273   0.10581   0.00000  Uiso   1.00
C286   C     0.41951   0.88816   0.91834   0.00000  Uiso   1.00
C287   C     0.52211   0.88998   0.95408   0.00000  Uiso   1.00
C288   C     0.59029   0.84510   0.94182   0.00000  Uiso   1.00
C289   C     0.73116   0.78276   0.94022   0.00000  Uiso   1.00
C290   C     0.27069   0.84976   0.83863   0.00000  Uiso   1.00
C291   C     0.27108   0.90341   0.79120   0.00000  Uiso   1.00
C292   C     0.24234   0.90922   0.71093   0.00000  Uiso   1.00
C293   C     0.24811   0.96175   0.67858   0.00000  Uiso   1.00
C294   C     0.19683   0.85962   0.91112   0.00000  Uiso   1.00
C295   C     0.10567   0.82862   0.93167   0.00000  Uiso   1.00
C296   C     0.04894   0.84429   0.00028   0.00000  Uiso   1.00
C297   C     0.38619   0.84311   0.87201   0.00000  Uiso   1.00
C298   C     0.45422   0.79821   0.85970   0.00000  Uiso   1.00
C299   C     0.55690   0.79996   0.89541   0.00000  Uiso   1.00
H300   H     0.35799   0.96780   0.96000   0.00000  Uiso   1.00
H301   H     0.33602   0.03586   0.84118   0.00000  Uiso   1.00
H302   H     0.19937   0.95526   0.06189   0.00000  Uiso   1.00
H303   H     0.54787   0.92486   0.98993   0.00000  Uiso   1.00
H304   H     0.29691   0.09145   0.68902   0.00000  Uiso   1.00
H305   H     0.00882   0.92150   0.15442   0.00000  Uiso   1.00
H306   H     0.74370   0.85738   0.00268   0.00000  Uiso   1.00
H307   H     0.24474   0.81468   0.80256   0.00000  Uiso   1.00
H308   H     0.21655   0.87434   0.67509   0.00000  Uiso   1.00
H309   H     0.07991   0.79375   0.89581   0.00000  Uiso   1.00
H310   H     0.42840   0.76334   0.82384   0.00000  Uiso   1.00
H311   H     0.19995   0.96036   0.55421   0.00000  Uiso   1.00
H312   H     0.91185   0.79041   0.01963   0.00000  Uiso   1.00
H313   H     0.64673   0.72629   0.86788   0.00000  Uiso   1.00
O314   O     0.23189   0.06792   0.54061   0.00000  Uiso   1.00
O315   O     0.85394   0.84495   0.15122   0.00000  Uiso   1.00
O316   O     0.81808   0.76083   0.95213   0.00000  Uiso   1.00
N317   N     0.27798   0.05241   0.67478   0.00000  Uiso   1.00
N318   N     0.00862   0.89352   0.10990   0.00000  Uiso   1.00
N319   N     0.69566   0.83357   0.96805   0.00000  Uiso   1.00
N320   N     0.22581   0.98187   0.60224   0.00000  Uiso   1.00
N321   N     0.95644   0.82299   0.03736   0.00000  Uiso   1.00
N322   N     0.64348   0.76303   0.89551   0.00000  Uiso   1.00
C323   C     0.83205   0.43272   0.92393   0.00000  Uiso   1.00
C324   C     0.80442   0.44846   0.83753   0.00000  Uiso   1.00
C325   C     0.81023   0.50100   0.80530   0.00000  Uiso   1.00
C326   C     0.78150   0.50689   0.72500   0.00000  Uiso   1.00
C327   C     0.74360   0.53820   0.59791   0.00000  Uiso   1.00
C328   C     0.73016   0.40468   0.95745   0.00000  Uiso   1.00
C329   C     0.67356   0.42040   0.02605   0.00000  Uiso   1.00
C330   C     0.58233   0.38943   0.04669   0.00000  Uiso   1.00
C331   C     0.42920   0.35273   0.10581   0.00000  Uiso   1.00
C332   C     0.91951   0.38816   0.91834   0.00000  Uiso   1.00
C333   C     0.02211   0.38998   0.95408   0.00000  Uiso   1.00
C334   C     0.09029   0.34510   0.94182   0.00000  Uiso   1.00
C335   C     0.23116   0.28276   0.94022   0.00000  Uiso   1.00
C336   C     0.77069   0.34976   0.83863   0.00000  Uiso   1.00
C337   C     0.77108   0.40341   0.79120   0.00000  Uiso   1.00
C338   C     0.74234   0.40922   0.71093   0.00000  Uiso   1.00
C339   C     0.74811   0.46175   0.67858   0.00000  Uiso   1.00
C340   C     0.69683   0.35962   0.91112   0.00000  Uiso   1.00
C341   C     0.60567   0.32862   0.93167   0.00000  Uiso   1.00
C342   C     0.54894   0.34429   0.00028   0.00000  Uiso   1.00
C343   C     0.88619   0.34311   0.87201   0.00000  Uiso   1.00
C344   C     0.95422   0.29821   0.85970   0.00000  Uiso   1.00
C345   C     0.05690   0.29996   0.89541   0.00000  Uiso   1.00
H346   H     0.85799   0.46780   0.96000   0.00000  Uiso   1.00
H347   H     0.83602   0.53586   0.84118   0.00000  Uiso   1.00
H348   H     0.69937   0.45526   0.06189   0.00000  Uiso   1.00
H349   H     0.04787   0.42486   0.98993   0.00000  Uiso   1.00
H350   H     0.79691   0.59145   0.68902   0.00000  Uiso   1.00
H351   H     0.50882   0.42150   0.15442   0.00000  Uiso   1.00
H352   H     0.24370   0.35738   0.00268   0.00000  Uiso   1.00
H353   H     0.74474   0.31468   0.80256   0.00000  Uiso   1.00
H354   H     0.71655   0.37434   0.67509   0.00000  Uiso   1.00
H355   H     0.57991   0.29375   0.89581   0.00000  Uiso   1.00
H356   H     0.92840   0.26334   0.82384   0.00000  Uiso   1.00
H357   H     0.69995   0.46036   0.55421   0.00000  Uiso   1.00
H358   H     0.41185   0.29041   0.01963   0.00000  Uiso   1.00
H359   H     0.14673   0.22629   0.86788   0.00000  Uiso   1.00
O360   O     0.73189   0.56792   0.54061   0.00000  Uiso   1.00
O361   O     0.35394   0.34495   0.15122   0.00000  Uiso   1.00
O362   O     0.31808   0.26083   0.95213   0.00000  Uiso   1.00
N363   N     0.77798   0.55241   0.67478   0.00000  Uiso   1.00
N364   N     0.50862   0.39352   0.10990   0.00000  Uiso   1.00
N365   N     0.19566   0.33357   0.96805   0.00000  Uiso   1.00
N366   N     0.72581   0.48187   0.60224   0.00000  Uiso   1.00
N367   N     0.45644   0.32299   0.03736   0.00000  Uiso   1.00
N368   N     0.14348   0.26303   0.89551   0.00000  Uiso   1.00
