data_job_02211
_audit_creation_date              2018-12-19
_audit_creation_method            'Materials Studio'
_symmetry_space_group_name_H-M    'P1'
_symmetry_Int_Tables_number       1
_symmetry_cell_setting            triclinic
loop_
_symmetry_equiv_pos_as_xyz
  x,y,z
_cell_length_a                    22.3335
_cell_length_b                    24.7666
_cell_length_c                    15.2522
_cell_angle_alpha                 90.0000
_cell_angle_beta                  90.0000
_cell_angle_gamma                 90.0000
loop_
_atom_site_label
_atom_site_type_symbol
_atom_site_fract_x
_atom_site_fract_y
_atom_site_fract_z
_atom_site_U_iso_or_equiv
_atom_site_adp_type
_atom_site_occupancy
C1     C     0.29390   0.61952   0.86702   0.00000  Uiso   1.00
C2     C     0.23405   0.59417   0.89195   0.00000  Uiso   1.00
C3     C     0.18337   0.59239   0.83939   0.00000  Uiso   1.00
C4     C     0.13304   0.56739   0.87417   0.00000  Uiso   1.00
C5     C     0.04004   0.53146   0.90007   0.00000  Uiso   1.00
C6     C     0.30757   0.66108   0.93803   0.00000  Uiso   1.00
C7     C     0.31870   0.71555   0.92421   0.00000  Uiso   1.00
C8     C     0.33027   0.74687   0.99778   0.00000  Uiso   1.00
C9     C     0.35145   0.81481   0.09521   0.00000  Uiso   1.00
C10    C     0.34061   0.57507   0.87745   0.00000  Uiso   1.00
C11    C     0.37953   0.55724   0.81271   0.00000  Uiso   1.00
C12    C     0.41893   0.51616   0.83529   0.00000  Uiso   1.00
C13    C     0.49141   0.45056   0.83868   0.00000  Uiso   1.00
C14    C     0.29466   0.57830   0.02224   0.00000  Uiso   1.00
C15    C     0.23447   0.57178   0.97626   0.00000  Uiso   1.00
C16    C     0.18421   0.54678   0.01113   0.00000  Uiso   1.00
C17    C     0.13346   0.54496   0.95863   0.00000  Uiso   1.00
C18    C     0.30798   0.63869   0.02234   0.00000  Uiso   1.00
C19    C     0.31954   0.66994   0.09594   0.00000  Uiso   1.00
C20    C     0.33069   0.72444   0.08224   0.00000  Uiso   1.00
C21    C     0.34102   0.55268   0.96177   0.00000  Uiso   1.00
C22    C     0.38037   0.51163   0.98445   0.00000  Uiso   1.00
C23    C     0.41935   0.49373   0.91975   0.00000  Uiso   1.00
H24    H     0.29358   0.63696   0.80138   0.00000  Uiso   1.00
H25    H     0.18306   0.60972   0.77415   0.00000  Uiso   1.00
H26    H     0.31838   0.73286   0.85895   0.00000  Uiso   1.00
H27    H     0.37920   0.57457   0.74748   0.00000  Uiso   1.00
H28    H     0.06071   0.56968   0.78115   0.00000  Uiso   1.00
H29    H     0.34606   0.82932   0.95996   0.00000  Uiso   1.00
H30    H     0.47431   0.49553   0.72489   0.00000  Uiso   1.00
H31    H     0.29499   0.56087   0.08789   0.00000  Uiso   1.00
H32    H     0.18454   0.52946   0.07638   0.00000  Uiso   1.00
H33    H     0.31986   0.65260   0.16118   0.00000  Uiso   1.00
H34    H     0.38068   0.49431   0.04970   0.00000  Uiso   1.00
H35    H     0.06191   0.50453   0.02645   0.00000  Uiso   1.00
H36    H     0.34726   0.76417   0.20526   0.00000  Uiso   1.00
H37    H     0.47551   0.43039   0.97019   0.00000  Uiso   1.00
O38    O     0.98862   0.51783   0.89107   0.00000  Uiso   1.00
O39    O     0.36300   0.85847   0.12566   0.00000  Uiso   1.00
O40    O     0.53126   0.42055   0.81725   0.00000  Uiso   1.00
N41    N     0.07615   0.55865   0.84046   0.00000  Uiso   1.00
N42    N     0.34293   0.80140   0.00763   0.00000  Uiso   1.00
N43    N     0.46284   0.48935   0.78787   0.00000  Uiso   1.00
N44    N     0.07680   0.52359   0.97245   0.00000  Uiso   1.00
N45    N     0.34357   0.76634   0.13963   0.00000  Uiso   1.00
N46    N     0.46349   0.45429   0.91986   0.00000  Uiso   1.00
C47    C     0.20610   0.88048   0.86702   0.00000  Uiso   1.00
C48    C     0.26595   0.90583   0.89195   0.00000  Uiso   1.00
C49    C     0.31663   0.90761   0.83939   0.00000  Uiso   1.00
C50    C     0.36696   0.93261   0.87417   0.00000  Uiso   1.00
C51    C     0.45996   0.96854   0.90007   0.00000  Uiso   1.00
C52    C     0.19243   0.83892   0.93803   0.00000  Uiso   1.00
C53    C     0.18130   0.78445   0.92421   0.00000  Uiso   1.00
C54    C     0.16973   0.75313   0.99778   0.00000  Uiso   1.00
C55    C     0.14855   0.68519   0.09521   0.00000  Uiso   1.00
C56    C     0.15939   0.92493   0.87745   0.00000  Uiso   1.00
C57    C     0.12047   0.94276   0.81271   0.00000  Uiso   1.00
C58    C     0.08107   0.98384   0.83529   0.00000  Uiso   1.00
C59    C     0.00859   0.04944   0.83868   0.00000  Uiso   1.00
C60    C     0.20534   0.92170   0.02224   0.00000  Uiso   1.00
C61    C     0.26553   0.92822   0.97626   0.00000  Uiso   1.00
C62    C     0.31579   0.95322   0.01113   0.00000  Uiso   1.00
C63    C     0.36654   0.95504   0.95863   0.00000  Uiso   1.00
C64    C     0.19202   0.86131   0.02234   0.00000  Uiso   1.00
C65    C     0.18046   0.83006   0.09594   0.00000  Uiso   1.00
C66    C     0.16931   0.77556   0.08224   0.00000  Uiso   1.00
C67    C     0.15898   0.94732   0.96177   0.00000  Uiso   1.00
C68    C     0.11963   0.98837   0.98445   0.00000  Uiso   1.00
C69    C     0.08065   0.00627   0.91975   0.00000  Uiso   1.00
H70    H     0.20642   0.86304   0.80138   0.00000  Uiso   1.00
H71    H     0.31694   0.89028   0.77415   0.00000  Uiso   1.00
H72    H     0.18162   0.76714   0.85895   0.00000  Uiso   1.00
H73    H     0.12080   0.92543   0.74748   0.00000  Uiso   1.00
H74    H     0.43929   0.93032   0.78115   0.00000  Uiso   1.00
H75    H     0.15394   0.67068   0.95996   0.00000  Uiso   1.00
H76    H     0.02569   0.00447   0.72489   0.00000  Uiso   1.00
H77    H     0.20501   0.93913   0.08789   0.00000  Uiso   1.00
H78    H     0.31546   0.97054   0.07638   0.00000  Uiso   1.00
H79    H     0.18014   0.84740   0.16118   0.00000  Uiso   1.00
H80    H     0.11932   0.00569   0.04970   0.00000  Uiso   1.00
H81    H     0.43809   0.99547   0.02645   0.00000  Uiso   1.00
H82    H     0.15274   0.73583   0.20526   0.00000  Uiso   1.00
H83    H     0.02449   0.06961   0.97019   0.00000  Uiso   1.00
O84    O     0.51138   0.98217   0.89107   0.00000  Uiso   1.00
O85    O     0.13700   0.64153   0.12566   0.00000  Uiso   1.00
O86    O     0.96874   0.07945   0.81725   0.00000  Uiso   1.00
N87    N     0.42385   0.94135   0.84046   0.00000  Uiso   1.00
N88    N     0.15707   0.69860   0.00763   0.00000  Uiso   1.00
N89    N     0.03716   0.01065   0.78787   0.00000  Uiso   1.00
N90    N     0.42320   0.97641   0.97245   0.00000  Uiso   1.00
N91    N     0.15643   0.73366   0.13963   0.00000  Uiso   1.00
N92    N     0.03651   0.04571   0.91986   0.00000  Uiso   1.00
C93    C     0.70610   0.11952   0.63298   0.00000  Uiso   1.00
C94    C     0.76595   0.09417   0.60805   0.00000  Uiso   1.00
C95    C     0.81663   0.09239   0.66061   0.00000  Uiso   1.00
C96    C     0.86696   0.06739   0.62583   0.00000  Uiso   1.00
C97    C     0.95996   0.03146   0.59993   0.00000  Uiso   1.00
C98    C     0.69243   0.16108   0.56197   0.00000  Uiso   1.00
C99    C     0.68130   0.21555   0.57579   0.00000  Uiso   1.00
C100   C     0.66973   0.24687   0.50222   0.00000  Uiso   1.00
C101   C     0.64855   0.31481   0.40479   0.00000  Uiso   1.00
C102   C     0.65939   0.07507   0.62255   0.00000  Uiso   1.00
C103   C     0.62047   0.05724   0.68729   0.00000  Uiso   1.00
C104   C     0.58107   0.01616   0.66471   0.00000  Uiso   1.00
C105   C     0.50859   0.95056   0.66132   0.00000  Uiso   1.00
C106   C     0.70534   0.07830   0.47776   0.00000  Uiso   1.00
C107   C     0.76553   0.07178   0.52374   0.00000  Uiso   1.00
C108   C     0.81579   0.04678   0.48887   0.00000  Uiso   1.00
C109   C     0.86654   0.04496   0.54137   0.00000  Uiso   1.00
C110   C     0.69202   0.13869   0.47766   0.00000  Uiso   1.00
C111   C     0.68046   0.16994   0.40406   0.00000  Uiso   1.00
C112   C     0.66931   0.22444   0.41776   0.00000  Uiso   1.00
C113   C     0.65898   0.05268   0.53823   0.00000  Uiso   1.00
C114   C     0.61963   0.01163   0.51555   0.00000  Uiso   1.00
C115   C     0.58065   0.99373   0.58025   0.00000  Uiso   1.00
H116   H     0.70642   0.13696   0.69862   0.00000  Uiso   1.00
H117   H     0.81694   0.10972   0.72585   0.00000  Uiso   1.00
H118   H     0.68162   0.23286   0.64105   0.00000  Uiso   1.00
H119   H     0.62080   0.07457   0.75252   0.00000  Uiso   1.00
H120   H     0.93929   0.06968   0.71885   0.00000  Uiso   1.00
H121   H     0.65394   0.32932   0.54004   0.00000  Uiso   1.00
H122   H     0.52569   0.99553   0.77511   0.00000  Uiso   1.00
H123   H     0.70501   0.06087   0.41211   0.00000  Uiso   1.00
H124   H     0.81546   0.02946   0.42362   0.00000  Uiso   1.00
H125   H     0.68014   0.15260   0.33882   0.00000  Uiso   1.00
H126   H     0.61932   0.99431   0.45030   0.00000  Uiso   1.00
H127   H     0.93809   0.00453   0.47355   0.00000  Uiso   1.00
H128   H     0.65274   0.26417   0.29474   0.00000  Uiso   1.00
H129   H     0.52449   0.93039   0.52981   0.00000  Uiso   1.00
O130   O     0.01138   0.01783   0.60893   0.00000  Uiso   1.00
O131   O     0.63700   0.35847   0.37434   0.00000  Uiso   1.00
O132   O     0.46874   0.92055   0.68275   0.00000  Uiso   1.00
N133   N     0.92385   0.05865   0.65954   0.00000  Uiso   1.00
N134   N     0.65707   0.30140   0.49237   0.00000  Uiso   1.00
N135   N     0.53716   0.98935   0.71213   0.00000  Uiso   1.00
N136   N     0.92320   0.02359   0.52755   0.00000  Uiso   1.00
N137   N     0.65643   0.26634   0.36037   0.00000  Uiso   1.00
N138   N     0.53651   0.95429   0.58014   0.00000  Uiso   1.00
C139   C     0.79390   0.38048   0.63298   0.00000  Uiso   1.00
C140   C     0.73405   0.40583   0.60805   0.00000  Uiso   1.00
C141   C     0.68337   0.40761   0.66061   0.00000  Uiso   1.00
C142   C     0.63304   0.43261   0.62583   0.00000  Uiso   1.00
C143   C     0.54004   0.46854   0.59993   0.00000  Uiso   1.00
C144   C     0.80757   0.33892   0.56197   0.00000  Uiso   1.00
C145   C     0.81870   0.28445   0.57579   0.00000  Uiso   1.00
C146   C     0.83027   0.25313   0.50222   0.00000  Uiso   1.00
C147   C     0.85145   0.18519   0.40479   0.00000  Uiso   1.00
C148   C     0.84061   0.42493   0.62255   0.00000  Uiso   1.00
C149   C     0.87953   0.44276   0.68729   0.00000  Uiso   1.00
C150   C     0.91893   0.48384   0.66471   0.00000  Uiso   1.00
C151   C     0.99141   0.54944   0.66132   0.00000  Uiso   1.00
C152   C     0.79466   0.42170   0.47776   0.00000  Uiso   1.00
C153   C     0.73447   0.42822   0.52374   0.00000  Uiso   1.00
C154   C     0.68421   0.45322   0.48887   0.00000  Uiso   1.00
C155   C     0.63346   0.45504   0.54137   0.00000  Uiso   1.00
C156   C     0.80798   0.36131   0.47766   0.00000  Uiso   1.00
C157   C     0.81954   0.33006   0.40406   0.00000  Uiso   1.00
C158   C     0.83069   0.27556   0.41776   0.00000  Uiso   1.00
C159   C     0.84102   0.44732   0.53823   0.00000  Uiso   1.00
C160   C     0.88037   0.48837   0.51555   0.00000  Uiso   1.00
C161   C     0.91935   0.50627   0.58025   0.00000  Uiso   1.00
H162   H     0.79358   0.36304   0.69862   0.00000  Uiso   1.00
H163   H     0.68306   0.39028   0.72585   0.00000  Uiso   1.00
H164   H     0.81838   0.26714   0.64105   0.00000  Uiso   1.00
H165   H     0.87920   0.42543   0.75252   0.00000  Uiso   1.00
H166   H     0.56071   0.43032   0.71885   0.00000  Uiso   1.00
H167   H     0.84606   0.17068   0.54004   0.00000  Uiso   1.00
H168   H     0.97431   0.50447   0.77511   0.00000  Uiso   1.00
H169   H     0.79499   0.43913   0.41211   0.00000  Uiso   1.00
H170   H     0.68454   0.47054   0.42362   0.00000  Uiso   1.00
H171   H     0.81986   0.34740   0.33882   0.00000  Uiso   1.00
H172   H     0.88068   0.50569   0.45030   0.00000  Uiso   1.00
H173   H     0.56191   0.49547   0.47355   0.00000  Uiso   1.00
H174   H     0.84726   0.23583   0.29474   0.00000  Uiso   1.00
H175   H     0.97551   0.56961   0.52981   0.00000  Uiso   1.00
O176   O     0.48862   0.48217   0.60893   0.00000  Uiso   1.00
O177   O     0.86300   0.14153   0.37434   0.00000  Uiso   1.00
O178   O     0.03126   0.57945   0.68275   0.00000  Uiso   1.00
N179   N     0.57615   0.44135   0.65954   0.00000  Uiso   1.00
N180   N     0.84293   0.19860   0.49237   0.00000  Uiso   1.00
N181   N     0.96284   0.51065   0.71213   0.00000  Uiso   1.00
N182   N     0.57680   0.47641   0.52755   0.00000  Uiso   1.00
N183   N     0.84357   0.23366   0.36037   0.00000  Uiso   1.00
N184   N     0.96349   0.54571   0.58014   0.00000  Uiso   1.00
C185   C     0.70610   0.38048   0.13298   0.00000  Uiso   1.00
C186   C     0.76595   0.40583   0.10805   0.00000  Uiso   1.00
C187   C     0.81663   0.40761   0.16061   0.00000  Uiso   1.00
C188   C     0.86696   0.43261   0.12583   0.00000  Uiso   1.00
C189   C     0.95996   0.46854   0.09993   0.00000  Uiso   1.00
C190   C     0.69243   0.33892   0.06197   0.00000  Uiso   1.00
C191   C     0.68130   0.28445   0.07579   0.00000  Uiso   1.00
C192   C     0.66973   0.25313   0.00222   0.00000  Uiso   1.00
C193   C     0.64855   0.18519   0.90479   0.00000  Uiso   1.00
C194   C     0.65939   0.42493   0.12255   0.00000  Uiso   1.00
C195   C     0.62047   0.44276   0.18729   0.00000  Uiso   1.00
C196   C     0.58107   0.48384   0.16471   0.00000  Uiso   1.00
C197   C     0.50859   0.54944   0.16132   0.00000  Uiso   1.00
C198   C     0.70534   0.42170   0.97776   0.00000  Uiso   1.00
C199   C     0.76553   0.42822   0.02374   0.00000  Uiso   1.00
C200   C     0.81579   0.45322   0.98887   0.00000  Uiso   1.00
C201   C     0.86654   0.45504   0.04137   0.00000  Uiso   1.00
C202   C     0.69202   0.36131   0.97766   0.00000  Uiso   1.00
C203   C     0.68046   0.33006   0.90406   0.00000  Uiso   1.00
C204   C     0.66931   0.27556   0.91776   0.00000  Uiso   1.00
C205   C     0.65898   0.44732   0.03823   0.00000  Uiso   1.00
C206   C     0.61963   0.48837   0.01555   0.00000  Uiso   1.00
C207   C     0.58065   0.50627   0.08025   0.00000  Uiso   1.00
H208   H     0.70642   0.36304   0.19862   0.00000  Uiso   1.00
H209   H     0.81694   0.39028   0.22585   0.00000  Uiso   1.00
H210   H     0.68162   0.26714   0.14105   0.00000  Uiso   1.00
H211   H     0.62080   0.42543   0.25252   0.00000  Uiso   1.00
H212   H     0.93929   0.43032   0.21885   0.00000  Uiso   1.00
H213   H     0.65394   0.17068   0.04004   0.00000  Uiso   1.00
H214   H     0.52569   0.50447   0.27511   0.00000  Uiso   1.00
H215   H     0.70501   0.43913   0.91211   0.00000  Uiso   1.00
H216   H     0.81546   0.47054   0.92362   0.00000  Uiso   1.00
H217   H     0.68014   0.34740   0.83882   0.00000  Uiso   1.00
H218   H     0.61932   0.50569   0.95030   0.00000  Uiso   1.00
H219   H     0.93809   0.49547   0.97355   0.00000  Uiso   1.00
H220   H     0.65274   0.23583   0.79474   0.00000  Uiso   1.00
H221   H     0.52449   0.56961   0.02981   0.00000  Uiso   1.00
O222   O     0.01138   0.48217   0.10893   0.00000  Uiso   1.00
O223   O     0.63700   0.14153   0.87434   0.00000  Uiso   1.00
O224   O     0.46874   0.57945   0.18275   0.00000  Uiso   1.00
N225   N     0.92385   0.44135   0.15954   0.00000  Uiso   1.00
N226   N     0.65707   0.19860   0.99237   0.00000  Uiso   1.00
N227   N     0.53716   0.51065   0.21213   0.00000  Uiso   1.00
N228   N     0.92320   0.47641   0.02755   0.00000  Uiso   1.00
N229   N     0.65643   0.23366   0.86037   0.00000  Uiso   1.00
N230   N     0.53651   0.54571   0.08014   0.00000  Uiso   1.00
C231   C     0.79390   0.11952   0.13298   0.00000  Uiso   1.00
C232   C     0.73405   0.09417   0.10805   0.00000  Uiso   1.00
C233   C     0.68337   0.09239   0.16061   0.00000  Uiso   1.00
C234   C     0.63304   0.06739   0.12583   0.00000  Uiso   1.00
C235   C     0.54004   0.03146   0.09993   0.00000  Uiso   1.00
C236   C     0.80757   0.16108   0.06197   0.00000  Uiso   1.00
C237   C     0.81870   0.21555   0.07579   0.00000  Uiso   1.00
C238   C     0.83027   0.24687   0.00222   0.00000  Uiso   1.00
C239   C     0.85145   0.31481   0.90479   0.00000  Uiso   1.00
C240   C     0.84061   0.07507   0.12255   0.00000  Uiso   1.00
C241   C     0.87953   0.05724   0.18729   0.00000  Uiso   1.00
C242   C     0.91893   0.01616   0.16471   0.00000  Uiso   1.00
C243   C     0.99141   0.95056   0.16132   0.00000  Uiso   1.00
C244   C     0.79466   0.07830   0.97776   0.00000  Uiso   1.00
C245   C     0.73447   0.07178   0.02374   0.00000  Uiso   1.00
C246   C     0.68421   0.04678   0.98887   0.00000  Uiso   1.00
C247   C     0.63346   0.04496   0.04137   0.00000  Uiso   1.00
C248   C     0.80798   0.13869   0.97766   0.00000  Uiso   1.00
C249   C     0.81954   0.16994   0.90406   0.00000  Uiso   1.00
C250   C     0.83069   0.22444   0.91776   0.00000  Uiso   1.00
C251   C     0.84102   0.05268   0.03823   0.00000  Uiso   1.00
C252   C     0.88037   0.01163   0.01555   0.00000  Uiso   1.00
C253   C     0.91935   0.99373   0.08025   0.00000  Uiso   1.00
H254   H     0.79358   0.13696   0.19862   0.00000  Uiso   1.00
H255   H     0.68306   0.10972   0.22585   0.00000  Uiso   1.00
H256   H     0.81838   0.23286   0.14105   0.00000  Uiso   1.00
H257   H     0.87920   0.07457   0.25252   0.00000  Uiso   1.00
H258   H     0.56071   0.06968   0.21885   0.00000  Uiso   1.00
H259   H     0.84606   0.32932   0.04004   0.00000  Uiso   1.00
H260   H     0.97431   0.99553   0.27511   0.00000  Uiso   1.00
H261   H     0.79499   0.06087   0.91211   0.00000  Uiso   1.00
H262   H     0.68454   0.02946   0.92362   0.00000  Uiso   1.00
H263   H     0.81986   0.15260   0.83882   0.00000  Uiso   1.00
H264   H     0.88068   0.99431   0.95030   0.00000  Uiso   1.00
H265   H     0.56191   0.00453   0.97355   0.00000  Uiso   1.00
H266   H     0.84726   0.26417   0.79474   0.00000  Uiso   1.00
H267   H     0.97551   0.93039   0.02981   0.00000  Uiso   1.00
O268   O     0.48862   0.01783   0.10893   0.00000  Uiso   1.00
O269   O     0.86300   0.35847   0.87434   0.00000  Uiso   1.00
O270   O     0.03126   0.92055   0.18275   0.00000  Uiso   1.00
N271   N     0.57615   0.05865   0.15954   0.00000  Uiso   1.00
N272   N     0.84293   0.30140   0.99237   0.00000  Uiso   1.00
N273   N     0.96284   0.98935   0.21213   0.00000  Uiso   1.00
N274   N     0.57680   0.02359   0.02755   0.00000  Uiso   1.00
N275   N     0.84357   0.26634   0.86037   0.00000  Uiso   1.00
N276   N     0.96349   0.95429   0.08014   0.00000  Uiso   1.00
C277   C     0.29390   0.88048   0.36702   0.00000  Uiso   1.00
C278   C     0.23405   0.90583   0.39195   0.00000  Uiso   1.00
C279   C     0.18337   0.90761   0.33939   0.00000  Uiso   1.00
C280   C     0.13304   0.93261   0.37417   0.00000  Uiso   1.00
C281   C     0.04004   0.96854   0.40007   0.00000  Uiso   1.00
C282   C     0.30757   0.83892   0.43803   0.00000  Uiso   1.00
C283   C     0.31870   0.78445   0.42421   0.00000  Uiso   1.00
C284   C     0.33027   0.75313   0.49778   0.00000  Uiso   1.00
C285   C     0.35145   0.68519   0.59521   0.00000  Uiso   1.00
C286   C     0.34061   0.92493   0.37745   0.00000  Uiso   1.00
C287   C     0.37953   0.94276   0.31271   0.00000  Uiso   1.00
C288   C     0.41893   0.98384   0.33529   0.00000  Uiso   1.00
C289   C     0.49141   0.04944   0.33868   0.00000  Uiso   1.00
C290   C     0.29466   0.92170   0.52224   0.00000  Uiso   1.00
C291   C     0.23447   0.92822   0.47626   0.00000  Uiso   1.00
C292   C     0.18421   0.95322   0.51113   0.00000  Uiso   1.00
C293   C     0.13346   0.95504   0.45863   0.00000  Uiso   1.00
C294   C     0.30798   0.86131   0.52234   0.00000  Uiso   1.00
C295   C     0.31954   0.83006   0.59594   0.00000  Uiso   1.00
C296   C     0.33069   0.77556   0.58224   0.00000  Uiso   1.00
C297   C     0.34102   0.94732   0.46177   0.00000  Uiso   1.00
C298   C     0.38037   0.98837   0.48445   0.00000  Uiso   1.00
C299   C     0.41935   0.00627   0.41975   0.00000  Uiso   1.00
H300   H     0.29358   0.86304   0.30138   0.00000  Uiso   1.00
H301   H     0.18306   0.89028   0.27415   0.00000  Uiso   1.00
H302   H     0.31838   0.76714   0.35895   0.00000  Uiso   1.00
H303   H     0.37920   0.92543   0.24748   0.00000  Uiso   1.00
H304   H     0.06071   0.93032   0.28115   0.00000  Uiso   1.00
H305   H     0.34606   0.67068   0.45996   0.00000  Uiso   1.00
H306   H     0.47431   0.00447   0.22489   0.00000  Uiso   1.00
H307   H     0.29499   0.93913   0.58789   0.00000  Uiso   1.00
H308   H     0.18454   0.97054   0.57638   0.00000  Uiso   1.00
H309   H     0.31986   0.84740   0.66118   0.00000  Uiso   1.00
H310   H     0.38068   0.00569   0.54970   0.00000  Uiso   1.00
H311   H     0.06191   0.99547   0.52645   0.00000  Uiso   1.00
H312   H     0.34726   0.73583   0.70526   0.00000  Uiso   1.00
H313   H     0.47551   0.06961   0.47019   0.00000  Uiso   1.00
O314   O     0.98862   0.98217   0.39107   0.00000  Uiso   1.00
O315   O     0.36300   0.64153   0.62566   0.00000  Uiso   1.00
O316   O     0.53126   0.07945   0.31725   0.00000  Uiso   1.00
N317   N     0.07615   0.94135   0.34046   0.00000  Uiso   1.00
N318   N     0.34293   0.69860   0.50763   0.00000  Uiso   1.00
N319   N     0.46284   0.01065   0.28787   0.00000  Uiso   1.00
N320   N     0.07680   0.97641   0.47245   0.00000  Uiso   1.00
N321   N     0.34357   0.73366   0.63963   0.00000  Uiso   1.00
N322   N     0.46349   0.04571   0.41986   0.00000  Uiso   1.00
C323   C     0.20610   0.61952   0.36702   0.00000  Uiso   1.00
C324   C     0.26595   0.59417   0.39195   0.00000  Uiso   1.00
C325   C     0.31663   0.59239   0.33939   0.00000  Uiso   1.00
C326   C     0.36696   0.56739   0.37417   0.00000  Uiso   1.00
C327   C     0.45996   0.53146   0.40007   0.00000  Uiso   1.00
C328   C     0.19243   0.66108   0.43803   0.00000  Uiso   1.00
C329   C     0.18130   0.71555   0.42421   0.00000  Uiso   1.00
C330   C     0.16973   0.74687   0.49778   0.00000  Uiso   1.00
C331   C     0.14855   0.81481   0.59521   0.00000  Uiso   1.00
C332   C     0.15939   0.57507   0.37745   0.00000  Uiso   1.00
C333   C     0.12047   0.55724   0.31271   0.00000  Uiso   1.00
C334   C     0.08107   0.51616   0.33529   0.00000  Uiso   1.00
C335   C     0.00859   0.45056   0.33868   0.00000  Uiso   1.00
C336   C     0.20534   0.57830   0.52224   0.00000  Uiso   1.00
C337   C     0.26553   0.57178   0.47626   0.00000  Uiso   1.00
C338   C     0.31579   0.54678   0.51113   0.00000  Uiso   1.00
C339   C     0.36654   0.54496   0.45863   0.00000  Uiso   1.00
C340   C     0.19202   0.63869   0.52234   0.00000  Uiso   1.00
C341   C     0.18046   0.66994   0.59594   0.00000  Uiso   1.00
C342   C     0.16931   0.72444   0.58224   0.00000  Uiso   1.00
C343   C     0.15898   0.55268   0.46177   0.00000  Uiso   1.00
C344   C     0.11963   0.51163   0.48445   0.00000  Uiso   1.00
C345   C     0.08065   0.49373   0.41975   0.00000  Uiso   1.00
H346   H     0.20642   0.63696   0.30138   0.00000  Uiso   1.00
H347   H     0.31694   0.60972   0.27415   0.00000  Uiso   1.00
H348   H     0.18162   0.73286   0.35895   0.00000  Uiso   1.00
H349   H     0.12080   0.57457   0.24748   0.00000  Uiso   1.00
H350   H     0.43929   0.56968   0.28115   0.00000  Uiso   1.00
H351   H     0.15394   0.82932   0.45996   0.00000  Uiso   1.00
H352   H     0.02569   0.49553   0.22489   0.00000  Uiso   1.00
H353   H     0.20501   0.56087   0.58789   0.00000  Uiso   1.00
H354   H     0.31546   0.52946   0.57638   0.00000  Uiso   1.00
H355   H     0.18014   0.65260   0.66118   0.00000  Uiso   1.00
H356   H     0.11932   0.49431   0.54970   0.00000  Uiso   1.00
H357   H     0.43809   0.50453   0.52645   0.00000  Uiso   1.00
H358   H     0.15274   0.76417   0.70526   0.00000  Uiso   1.00
H359   H     0.02449   0.43039   0.47019   0.00000  Uiso   1.00
O360   O     0.51138   0.51783   0.39107   0.00000  Uiso   1.00
O361   O     0.13700   0.85847   0.62566   0.00000  Uiso   1.00
O362   O     0.96874   0.42055   0.31725   0.00000  Uiso   1.00
N363   N     0.42385   0.55865   0.34046   0.00000  Uiso   1.00
N364   N     0.15707   0.80140   0.50763   0.00000  Uiso   1.00
N365   N     0.03716   0.48935   0.28787   0.00000  Uiso   1.00
N366   N     0.42320   0.52359   0.47245   0.00000  Uiso   1.00
N367   N     0.15643   0.76634   0.63963   0.00000  Uiso   1.00
N368   N     0.03651   0.45429   0.41986   0.00000  Uiso   1.00
