data_job_01789
_audit_creation_date              2018-12-19
_audit_creation_method            'Materials Studio'
_symmetry_space_group_name_H-M    'P1'
_symmetry_Int_Tables_number       1
_symmetry_cell_setting            triclinic
loop_
_symmetry_equiv_pos_as_xyz
  x,y,z
_cell_length_a                    16.0509
_cell_length_b                    14.1677
_cell_length_c                    9.8698
_cell_angle_alpha                 90.0000
_cell_angle_beta                  88.2101
_cell_angle_gamma                 90.0000
loop_
_atom_site_label
_atom_site_type_symbol
_atom_site_fract_x
_atom_site_fract_y
_atom_site_fract_z
_atom_site_U_iso_or_equiv
_atom_site_adp_type
_atom_site_occupancy
C1     C     0.26645   0.95695   0.76802   0.00000  Uiso   1.00
C2     C     0.27269   0.95678   0.92188   0.00000  Uiso   1.00
C3     C     0.31132   0.88801   0.99792   0.00000  Uiso   1.00
C4     C     0.31030   0.90072   0.13745   0.00000  Uiso   1.00
C5     C     0.32578   0.88845   0.36705   0.00000  Uiso   1.00
C6     C     0.17374   0.96331   0.73990   0.00000  Uiso   1.00
C7     C     0.12918   0.90005   0.66291   0.00000  Uiso   1.00
C8     C     0.04486   0.91827   0.64923   0.00000  Uiso   1.00
C9     C     0.90673   0.91619   0.59621   0.00000  Uiso   1.00
C10    C     0.30460   0.05002   0.71944   0.00000  Uiso   1.00
C11    C     0.37005   0.05967   0.62522   0.00000  Uiso   1.00
C12    C     0.39590   0.15090   0.59430   0.00000  Uiso   1.00
C13    C     0.46095   0.28345   0.50952   0.00000  Uiso   1.00
C14    C     0.19595   0.10180   0.88059   0.00000  Uiso   1.00
C15    C     0.23439   0.03545   0.98302   0.00000  Uiso   1.00
C16    C     0.23332   0.04827   0.12247   0.00000  Uiso   1.00
C17    C     0.27195   0.97954   0.19870   0.00000  Uiso   1.00
C18    C     0.13544   0.04198   0.80104   0.00000  Uiso   1.00
C19    C     0.05118   0.06031   0.78746   0.00000  Uiso   1.00
C20    C     0.00650   0.99709   0.71048   0.00000  Uiso   1.00
C21    C     0.26631   0.12870   0.78058   0.00000  Uiso   1.00
C22    C     0.29205   0.21993   0.74978   0.00000  Uiso   1.00
C23    C     0.35753   0.22972   0.65555   0.00000  Uiso   1.00
H24    H     0.29626   0.89570   0.72042   0.00000  Uiso   1.00
H25    H     0.34094   0.82713   0.95057   0.00000  Uiso   1.00
H26    H     0.15883   0.83918   0.61560   0.00000  Uiso   1.00
H27    H     0.39967   0.99878   0.57793   0.00000  Uiso   1.00
H28    H     0.37357   0.78579   0.23270   0.00000  Uiso   1.00
H29    H     0.98958   0.81121   0.52636   0.00000  Uiso   1.00
H30    H     0.49744   0.14775   0.44692   0.00000  Uiso   1.00
H31    H     0.16613   0.16305   0.92819   0.00000  Uiso   1.00
H32    H     0.20368   0.10916   0.16975   0.00000  Uiso   1.00
H33    H     0.02157   0.12120   0.83478   0.00000  Uiso   1.00
H34    H     0.26240   0.28080   0.79711   0.00000  Uiso   1.00
H35    H     0.26216   0.01469   0.41060   0.00000  Uiso   1.00
H36    H     0.87817   0.04011   0.70425   0.00000  Uiso   1.00
H37    H     0.38603   0.37665   0.62482   0.00000  Uiso   1.00
O38    O     0.34489   0.85995   0.47681   0.00000  Uiso   1.00
O39    O     0.84112   0.89330   0.55009   0.00000  Uiso   1.00
O40    O     0.50741   0.33483   0.44589   0.00000  Uiso   1.00
N41    N     0.34221   0.84707   0.24141   0.00000  Uiso   1.00
N42    N     0.98320   0.87082   0.58105   0.00000  Uiso   1.00
N43    N     0.45799   0.18546   0.50675   0.00000  Uiso   1.00
N44    N     0.28226   0.97024   0.33714   0.00000  Uiso   1.00
N45    N     0.92325   0.99399   0.67677   0.00000  Uiso   1.00
N46    N     0.39804   0.30863   0.60248   0.00000  Uiso   1.00
C47    C     0.73355   0.45695   0.73198   0.00000  Uiso   1.00
C48    C     0.72731   0.45678   0.57812   0.00000  Uiso   1.00
C49    C     0.68868   0.38801   0.50208   0.00000  Uiso   1.00
C50    C     0.68970   0.40072   0.36255   0.00000  Uiso   1.00
C51    C     0.67422   0.38845   0.13295   0.00000  Uiso   1.00
C52    C     0.82626   0.46331   0.76010   0.00000  Uiso   1.00
C53    C     0.87082   0.40005   0.83709   0.00000  Uiso   1.00
C54    C     0.95514   0.41827   0.85077   0.00000  Uiso   1.00
C55    C     0.09327   0.41619   0.90379   0.00000  Uiso   1.00
C56    C     0.69540   0.55002   0.78056   0.00000  Uiso   1.00
C57    C     0.62995   0.55967   0.87478   0.00000  Uiso   1.00
C58    C     0.60410   0.65090   0.90570   0.00000  Uiso   1.00
C59    C     0.53905   0.78345   0.99048   0.00000  Uiso   1.00
C60    C     0.80405   0.60180   0.61941   0.00000  Uiso   1.00
C61    C     0.76561   0.53545   0.51698   0.00000  Uiso   1.00
C62    C     0.76668   0.54827   0.37753   0.00000  Uiso   1.00
C63    C     0.72805   0.47954   0.30130   0.00000  Uiso   1.00
C64    C     0.86456   0.54198   0.69896   0.00000  Uiso   1.00
C65    C     0.94882   0.56031   0.71254   0.00000  Uiso   1.00
C66    C     0.99350   0.49709   0.78952   0.00000  Uiso   1.00
C67    C     0.73369   0.62870   0.71942   0.00000  Uiso   1.00
C68    C     0.70795   0.71993   0.75022   0.00000  Uiso   1.00
C69    C     0.64247   0.72972   0.84445   0.00000  Uiso   1.00
H70    H     0.70374   0.39570   0.77958   0.00000  Uiso   1.00
H71    H     0.65906   0.32713   0.54943   0.00000  Uiso   1.00
H72    H     0.84117   0.33918   0.88440   0.00000  Uiso   1.00
H73    H     0.60033   0.49878   0.92207   0.00000  Uiso   1.00
H74    H     0.62643   0.28579   0.26730   0.00000  Uiso   1.00
H75    H     0.01042   0.31121   0.97364   0.00000  Uiso   1.00
H76    H     0.50256   0.64775   0.05308   0.00000  Uiso   1.00
H77    H     0.83387   0.66305   0.57181   0.00000  Uiso   1.00
H78    H     0.79632   0.60916   0.33025   0.00000  Uiso   1.00
H79    H     0.97843   0.62120   0.66522   0.00000  Uiso   1.00
H80    H     0.73760   0.78080   0.70289   0.00000  Uiso   1.00
H81    H     0.73784   0.51469   0.08940   0.00000  Uiso   1.00
H82    H     0.12183   0.54011   0.79575   0.00000  Uiso   1.00
H83    H     0.61397   0.87665   0.87518   0.00000  Uiso   1.00
O84    O     0.65511   0.35995   0.02319   0.00000  Uiso   1.00
O85    O     0.15888   0.39330   0.94991   0.00000  Uiso   1.00
O86    O     0.49259   0.83483   0.05411   0.00000  Uiso   1.00
N87    N     0.65779   0.34707   0.25859   0.00000  Uiso   1.00
N88    N     0.01680   0.37082   0.91895   0.00000  Uiso   1.00
N89    N     0.54201   0.68546   0.99325   0.00000  Uiso   1.00
N90    N     0.71774   0.47024   0.16286   0.00000  Uiso   1.00
N91    N     0.07675   0.49399   0.82323   0.00000  Uiso   1.00
N92    N     0.60196   0.80863   0.89752   0.00000  Uiso   1.00
C93    C     0.73355   0.04305   0.23198   0.00000  Uiso   1.00
C94    C     0.72731   0.04322   0.07812   0.00000  Uiso   1.00
C95    C     0.68868   0.11199   0.00208   0.00000  Uiso   1.00
C96    C     0.68970   0.09928   0.86255   0.00000  Uiso   1.00
C97    C     0.67422   0.11155   0.63295   0.00000  Uiso   1.00
C98    C     0.82626   0.03669   0.26010   0.00000  Uiso   1.00
C99    C     0.87082   0.09995   0.33709   0.00000  Uiso   1.00
C100   C     0.95514   0.08173   0.35077   0.00000  Uiso   1.00
C101   C     0.09327   0.08381   0.40379   0.00000  Uiso   1.00
C102   C     0.69540   0.94998   0.28056   0.00000  Uiso   1.00
C103   C     0.62995   0.94033   0.37478   0.00000  Uiso   1.00
C104   C     0.60410   0.84910   0.40570   0.00000  Uiso   1.00
C105   C     0.53905   0.71655   0.49048   0.00000  Uiso   1.00
C106   C     0.80405   0.89820   0.11941   0.00000  Uiso   1.00
C107   C     0.76561   0.96455   0.01698   0.00000  Uiso   1.00
C108   C     0.76668   0.95173   0.87753   0.00000  Uiso   1.00
C109   C     0.72805   0.02046   0.80130   0.00000  Uiso   1.00
C110   C     0.86456   0.95802   0.19896   0.00000  Uiso   1.00
C111   C     0.94882   0.93969   0.21254   0.00000  Uiso   1.00
C112   C     0.99350   0.00291   0.28952   0.00000  Uiso   1.00
C113   C     0.73369   0.87130   0.21942   0.00000  Uiso   1.00
C114   C     0.70795   0.78007   0.25022   0.00000  Uiso   1.00
C115   C     0.64247   0.77028   0.34445   0.00000  Uiso   1.00
H116   H     0.70374   0.10430   0.27958   0.00000  Uiso   1.00
H117   H     0.65906   0.17287   0.04943   0.00000  Uiso   1.00
H118   H     0.84117   0.16082   0.38440   0.00000  Uiso   1.00
H119   H     0.60033   0.00122   0.42207   0.00000  Uiso   1.00
H120   H     0.62643   0.21421   0.76730   0.00000  Uiso   1.00
H121   H     0.01042   0.18879   0.47364   0.00000  Uiso   1.00
H122   H     0.50256   0.85225   0.55308   0.00000  Uiso   1.00
H123   H     0.83387   0.83695   0.07181   0.00000  Uiso   1.00
H124   H     0.79632   0.89084   0.83025   0.00000  Uiso   1.00
H125   H     0.97843   0.87880   0.16522   0.00000  Uiso   1.00
H126   H     0.73760   0.71920   0.20289   0.00000  Uiso   1.00
H127   H     0.73784   0.98531   0.58940   0.00000  Uiso   1.00
H128   H     0.12183   0.95989   0.29575   0.00000  Uiso   1.00
H129   H     0.61397   0.62335   0.37518   0.00000  Uiso   1.00
O130   O     0.65511   0.14005   0.52319   0.00000  Uiso   1.00
O131   O     0.15888   0.10670   0.44991   0.00000  Uiso   1.00
O132   O     0.49259   0.66517   0.55411   0.00000  Uiso   1.00
N133   N     0.65779   0.15293   0.75859   0.00000  Uiso   1.00
N134   N     0.01680   0.12918   0.41895   0.00000  Uiso   1.00
N135   N     0.54201   0.81454   0.49325   0.00000  Uiso   1.00
N136   N     0.71774   0.02976   0.66286   0.00000  Uiso   1.00
N137   N     0.07675   0.00601   0.32323   0.00000  Uiso   1.00
N138   N     0.60196   0.69137   0.39752   0.00000  Uiso   1.00
C139   C     0.26645   0.54305   0.26802   0.00000  Uiso   1.00
C140   C     0.27269   0.54322   0.42188   0.00000  Uiso   1.00
C141   C     0.31132   0.61199   0.49792   0.00000  Uiso   1.00
C142   C     0.31030   0.59928   0.63745   0.00000  Uiso   1.00
C143   C     0.32578   0.61155   0.86705   0.00000  Uiso   1.00
C144   C     0.17374   0.53669   0.23990   0.00000  Uiso   1.00
C145   C     0.12918   0.59995   0.16291   0.00000  Uiso   1.00
C146   C     0.04486   0.58173   0.14923   0.00000  Uiso   1.00
C147   C     0.90673   0.58381   0.09621   0.00000  Uiso   1.00
C148   C     0.30460   0.44998   0.21944   0.00000  Uiso   1.00
C149   C     0.37005   0.44033   0.12522   0.00000  Uiso   1.00
C150   C     0.39590   0.34910   0.09430   0.00000  Uiso   1.00
C151   C     0.46095   0.21655   0.00952   0.00000  Uiso   1.00
C152   C     0.19595   0.39820   0.38059   0.00000  Uiso   1.00
C153   C     0.23439   0.46455   0.48302   0.00000  Uiso   1.00
C154   C     0.23332   0.45173   0.62247   0.00000  Uiso   1.00
C155   C     0.27195   0.52046   0.69870   0.00000  Uiso   1.00
C156   C     0.13544   0.45802   0.30104   0.00000  Uiso   1.00
C157   C     0.05118   0.43969   0.28746   0.00000  Uiso   1.00
C158   C     0.00650   0.50291   0.21048   0.00000  Uiso   1.00
C159   C     0.26631   0.37130   0.28058   0.00000  Uiso   1.00
C160   C     0.29205   0.28007   0.24978   0.00000  Uiso   1.00
C161   C     0.35753   0.27028   0.15555   0.00000  Uiso   1.00
H162   H     0.29626   0.60430   0.22042   0.00000  Uiso   1.00
H163   H     0.34094   0.67287   0.45057   0.00000  Uiso   1.00
H164   H     0.15883   0.66082   0.11560   0.00000  Uiso   1.00
H165   H     0.39967   0.50122   0.07793   0.00000  Uiso   1.00
H166   H     0.37357   0.71421   0.73270   0.00000  Uiso   1.00
H167   H     0.98958   0.68879   0.02636   0.00000  Uiso   1.00
H168   H     0.49744   0.35225   0.94692   0.00000  Uiso   1.00
H169   H     0.16613   0.33695   0.42819   0.00000  Uiso   1.00
H170   H     0.20368   0.39084   0.66975   0.00000  Uiso   1.00
H171   H     0.02157   0.37880   0.33478   0.00000  Uiso   1.00
H172   H     0.26240   0.21920   0.29711   0.00000  Uiso   1.00
H173   H     0.26216   0.48531   0.91060   0.00000  Uiso   1.00
H174   H     0.87817   0.45989   0.20425   0.00000  Uiso   1.00
H175   H     0.38603   0.12335   0.12482   0.00000  Uiso   1.00
O176   O     0.34489   0.64005   0.97681   0.00000  Uiso   1.00
O177   O     0.84112   0.60670   0.05009   0.00000  Uiso   1.00
O178   O     0.50741   0.16517   0.94589   0.00000  Uiso   1.00
N179   N     0.34221   0.65293   0.74141   0.00000  Uiso   1.00
N180   N     0.98320   0.62918   0.08105   0.00000  Uiso   1.00
N181   N     0.45799   0.31454   0.00675   0.00000  Uiso   1.00
N182   N     0.28226   0.52976   0.83714   0.00000  Uiso   1.00
N183   N     0.92325   0.50601   0.17677   0.00000  Uiso   1.00
N184   N     0.39804   0.19137   0.10248   0.00000  Uiso   1.00
