data_job_01944
_audit_creation_date              2018-12-19
_audit_creation_method            'Materials Studio'
_symmetry_space_group_name_H-M    'P1'
_symmetry_Int_Tables_number       1
_symmetry_cell_setting            triclinic
loop_
_symmetry_equiv_pos_as_xyz
  x,y,z
_cell_length_a                    29.6626
_cell_length_b                    7.6338
_cell_length_c                    27.8562
_cell_angle_alpha                 90.0000
_cell_angle_beta                  153.2017
_cell_angle_gamma                 90.0000
loop_
_atom_site_label
_atom_site_type_symbol
_atom_site_fract_x
_atom_site_fract_y
_atom_site_fract_z
_atom_site_U_iso_or_equiv
_atom_site_adp_type
_atom_site_occupancy
C1     C     0.62436   0.65988   0.77497   0.00000  Uiso   1.00
C2     C     0.64572   0.50442   0.82809   0.00000  Uiso   1.00
C3     C     0.66337   0.51325   0.89390   0.00000  Uiso   1.00
C4     C     0.68143   0.35622   0.93467   0.00000  Uiso   1.00
C5     C     0.71460   0.13919   0.02088   0.00000  Uiso   1.00
C6     C     0.70313   0.65289   0.81032   0.00000  Uiso   1.00
C7     C     0.76904   0.78656   0.86116   0.00000  Uiso   1.00
C8     C     0.83543   0.75451   0.88696   0.00000  Uiso   1.00
C9     C     0.95767   0.76803   0.94550   0.00000  Uiso   1.00
C10    C     0.52471   0.62045   0.65595   0.00000  Uiso   1.00
C11    C     0.44059   0.72687   0.57699   0.00000  Uiso   1.00
C12    C     0.35676   0.66753   0.47281   0.00000  Uiso   1.00
C13    C     0.20197   0.63068   0.29167   0.00000  Uiso   1.00
C14    C     0.62505   0.36530   0.73036   0.00000  Uiso   1.00
C15    C     0.64610   0.34442   0.80386   0.00000  Uiso   1.00
C16    C     0.66414   0.18733   0.84454   0.00000  Uiso   1.00
C17    C     0.68180   0.19593   0.91039   0.00000  Uiso   1.00
C18    C     0.70351   0.49289   0.78609   0.00000  Uiso   1.00
C19    C     0.76981   0.46064   0.81180   0.00000  Uiso   1.00
C20    C     0.83581   0.59422   0.86268   0.00000  Uiso   1.00
C21    C     0.52508   0.46045   0.63171   0.00000  Uiso   1.00
C22    C     0.44136   0.40094   0.52763   0.00000  Uiso   1.00
C23    C     0.35714   0.50724   0.44853   0.00000  Uiso   1.00
H24    H     0.62407   0.78445   0.79384   0.00000  Uiso   1.00
H25    H     0.66308   0.63710   0.91264   0.00000  Uiso   1.00
H26    H     0.76873   0.91037   0.87990   0.00000  Uiso   1.00
H27    H     0.44033   0.85068   0.59577   0.00000  Uiso   1.00
H28    H     0.70653   0.40319   0.03370   0.00000  Uiso   1.00
H29    H     0.92927   0.97941   0.96463   0.00000  Uiso   1.00
H30    H     0.23678   0.85355   0.36549   0.00000  Uiso   1.00
H31    H     0.62535   0.24073   0.71149   0.00000  Uiso   1.00
H32    H     0.66442   0.06353   0.82577   0.00000  Uiso   1.00
H33    H     0.77008   0.33681   0.79303   0.00000  Uiso   1.00
H34    H     0.44168   0.27712   0.50890   0.00000  Uiso   1.00
H35    H     0.70763   0.93766   0.96319   0.00000  Uiso   1.00
H36    H     0.93037   0.51389   0.89412   0.00000  Uiso   1.00
H37    H     0.23788   0.38802   0.29498   0.00000  Uiso   1.00
O38    O     0.73280   0.06368   0.07514   0.00000  Uiso   1.00
O39    O     0.02501   0.81968   0.98450   0.00000  Uiso   1.00
O40    O     0.11648   0.65454   0.19845   0.00000  Uiso   1.00
N41    N     0.70141   0.31794   0.00140   0.00000  Uiso   1.00
N42    N     0.90967   0.85667   0.93684   0.00000  Uiso   1.00
N43    N     0.26225   0.73901   0.37669   0.00000  Uiso   1.00
N44    N     0.70200   0.06744   0.96347   0.00000  Uiso   1.00
N45    N     0.91026   0.60617   0.89890   0.00000  Uiso   1.00
N46    N     0.26284   0.48852   0.33875   0.00000  Uiso   1.00
C47    C     0.37564   0.65988   0.72503   0.00000  Uiso   1.00
C48    C     0.35428   0.50442   0.67191   0.00000  Uiso   1.00
C49    C     0.33663   0.51325   0.60610   0.00000  Uiso   1.00
C50    C     0.31857   0.35622   0.56533   0.00000  Uiso   1.00
C51    C     0.28540   0.13919   0.47912   0.00000  Uiso   1.00
C52    C     0.29687   0.65289   0.68968   0.00000  Uiso   1.00
C53    C     0.23096   0.78656   0.63884   0.00000  Uiso   1.00
C54    C     0.16457   0.75451   0.61304   0.00000  Uiso   1.00
C55    C     0.04233   0.76803   0.55450   0.00000  Uiso   1.00
C56    C     0.47529   0.62045   0.84405   0.00000  Uiso   1.00
C57    C     0.55941   0.72687   0.92301   0.00000  Uiso   1.00
C58    C     0.64324   0.66753   0.02719   0.00000  Uiso   1.00
C59    C     0.79803   0.63068   0.20833   0.00000  Uiso   1.00
C60    C     0.37495   0.36530   0.76964   0.00000  Uiso   1.00
C61    C     0.35390   0.34442   0.69614   0.00000  Uiso   1.00
C62    C     0.33586   0.18733   0.65546   0.00000  Uiso   1.00
C63    C     0.31820   0.19593   0.58961   0.00000  Uiso   1.00
C64    C     0.29649   0.49289   0.71391   0.00000  Uiso   1.00
C65    C     0.23019   0.46064   0.68820   0.00000  Uiso   1.00
C66    C     0.16419   0.59422   0.63732   0.00000  Uiso   1.00
C67    C     0.47492   0.46045   0.86829   0.00000  Uiso   1.00
C68    C     0.55864   0.40094   0.97237   0.00000  Uiso   1.00
C69    C     0.64286   0.50724   0.05147   0.00000  Uiso   1.00
H70    H     0.37593   0.78445   0.70616   0.00000  Uiso   1.00
H71    H     0.33692   0.63710   0.58736   0.00000  Uiso   1.00
H72    H     0.23127   0.91037   0.62010   0.00000  Uiso   1.00
H73    H     0.55967   0.85068   0.90423   0.00000  Uiso   1.00
H74    H     0.29347   0.40319   0.46630   0.00000  Uiso   1.00
H75    H     0.07073   0.97941   0.53537   0.00000  Uiso   1.00
H76    H     0.76322   0.85355   0.13451   0.00000  Uiso   1.00
H77    H     0.37465   0.24073   0.78851   0.00000  Uiso   1.00
H78    H     0.33558   0.06353   0.67423   0.00000  Uiso   1.00
H79    H     0.22992   0.33681   0.70697   0.00000  Uiso   1.00
H80    H     0.55832   0.27712   0.99110   0.00000  Uiso   1.00
H81    H     0.29237   0.93766   0.53681   0.00000  Uiso   1.00
H82    H     0.06963   0.51389   0.60588   0.00000  Uiso   1.00
H83    H     0.76212   0.38802   0.20502   0.00000  Uiso   1.00
O84    O     0.26720   0.06368   0.42486   0.00000  Uiso   1.00
O85    O     0.97499   0.81968   0.51550   0.00000  Uiso   1.00
O86    O     0.88352   0.65454   0.30155   0.00000  Uiso   1.00
N87    N     0.29859   0.31794   0.49860   0.00000  Uiso   1.00
N88    N     0.09033   0.85667   0.56316   0.00000  Uiso   1.00
N89    N     0.73775   0.73901   0.12331   0.00000  Uiso   1.00
N90    N     0.29800   0.06744   0.53653   0.00000  Uiso   1.00
N91    N     0.08974   0.60617   0.60110   0.00000  Uiso   1.00
N92    N     0.73716   0.48852   0.16125   0.00000  Uiso   1.00
C93    C     0.37564   0.34012   0.22503   0.00000  Uiso   1.00
C94    C     0.35428   0.49558   0.17191   0.00000  Uiso   1.00
C95    C     0.33663   0.48675   0.10610   0.00000  Uiso   1.00
C96    C     0.31857   0.64378   0.06533   0.00000  Uiso   1.00
C97    C     0.28540   0.86081   0.97912   0.00000  Uiso   1.00
C98    C     0.29687   0.34711   0.18968   0.00000  Uiso   1.00
C99    C     0.23096   0.21344   0.13884   0.00000  Uiso   1.00
C100   C     0.16457   0.24549   0.11304   0.00000  Uiso   1.00
C101   C     0.04233   0.23197   0.05450   0.00000  Uiso   1.00
C102   C     0.47529   0.37955   0.34405   0.00000  Uiso   1.00
C103   C     0.55941   0.27313   0.42301   0.00000  Uiso   1.00
C104   C     0.64324   0.33247   0.52719   0.00000  Uiso   1.00
C105   C     0.79803   0.36932   0.70833   0.00000  Uiso   1.00
C106   C     0.37495   0.63470   0.26964   0.00000  Uiso   1.00
C107   C     0.35390   0.65558   0.19614   0.00000  Uiso   1.00
C108   C     0.33586   0.81267   0.15546   0.00000  Uiso   1.00
C109   C     0.31820   0.80407   0.08961   0.00000  Uiso   1.00
C110   C     0.29649   0.50711   0.21391   0.00000  Uiso   1.00
C111   C     0.23019   0.53936   0.18820   0.00000  Uiso   1.00
C112   C     0.16419   0.40578   0.13732   0.00000  Uiso   1.00
C113   C     0.47492   0.53955   0.36829   0.00000  Uiso   1.00
C114   C     0.55864   0.59906   0.47237   0.00000  Uiso   1.00
C115   C     0.64286   0.49276   0.55147   0.00000  Uiso   1.00
H116   H     0.37593   0.21555   0.20616   0.00000  Uiso   1.00
H117   H     0.33692   0.36290   0.08736   0.00000  Uiso   1.00
H118   H     0.23127   0.08963   0.12010   0.00000  Uiso   1.00
H119   H     0.55967   0.14932   0.40423   0.00000  Uiso   1.00
H120   H     0.29347   0.59681   0.96630   0.00000  Uiso   1.00
H121   H     0.07073   0.02059   0.03537   0.00000  Uiso   1.00
H122   H     0.76322   0.14645   0.63451   0.00000  Uiso   1.00
H123   H     0.37465   0.75927   0.28851   0.00000  Uiso   1.00
H124   H     0.33558   0.93647   0.17423   0.00000  Uiso   1.00
H125   H     0.22992   0.66319   0.20697   0.00000  Uiso   1.00
H126   H     0.55832   0.72288   0.49110   0.00000  Uiso   1.00
H127   H     0.29237   0.06234   0.03681   0.00000  Uiso   1.00
H128   H     0.06963   0.48611   0.10588   0.00000  Uiso   1.00
H129   H     0.76212   0.61198   0.70502   0.00000  Uiso   1.00
O130   O     0.26720   0.93632   0.92486   0.00000  Uiso   1.00
O131   O     0.97499   0.18032   0.01550   0.00000  Uiso   1.00
O132   O     0.88352   0.34546   0.80155   0.00000  Uiso   1.00
N133   N     0.29859   0.68206   0.99860   0.00000  Uiso   1.00
N134   N     0.09033   0.14333   0.06316   0.00000  Uiso   1.00
N135   N     0.73775   0.26099   0.62331   0.00000  Uiso   1.00
N136   N     0.29800   0.93256   0.03653   0.00000  Uiso   1.00
N137   N     0.08974   0.39383   0.10110   0.00000  Uiso   1.00
N138   N     0.73716   0.51148   0.66125   0.00000  Uiso   1.00
C139   C     0.62436   0.34012   0.27497   0.00000  Uiso   1.00
C140   C     0.64572   0.49558   0.32809   0.00000  Uiso   1.00
C141   C     0.66337   0.48675   0.39390   0.00000  Uiso   1.00
C142   C     0.68143   0.64378   0.43467   0.00000  Uiso   1.00
C143   C     0.71460   0.86081   0.52088   0.00000  Uiso   1.00
C144   C     0.70313   0.34711   0.31032   0.00000  Uiso   1.00
C145   C     0.76904   0.21344   0.36116   0.00000  Uiso   1.00
C146   C     0.83543   0.24549   0.38696   0.00000  Uiso   1.00
C147   C     0.95767   0.23197   0.44550   0.00000  Uiso   1.00
C148   C     0.52471   0.37955   0.15595   0.00000  Uiso   1.00
C149   C     0.44059   0.27313   0.07699   0.00000  Uiso   1.00
C150   C     0.35676   0.33247   0.97281   0.00000  Uiso   1.00
C151   C     0.20197   0.36932   0.79167   0.00000  Uiso   1.00
C152   C     0.62505   0.63470   0.23036   0.00000  Uiso   1.00
C153   C     0.64610   0.65558   0.30386   0.00000  Uiso   1.00
C154   C     0.66414   0.81267   0.34454   0.00000  Uiso   1.00
C155   C     0.68180   0.80407   0.41039   0.00000  Uiso   1.00
C156   C     0.70351   0.50711   0.28609   0.00000  Uiso   1.00
C157   C     0.76981   0.53936   0.31180   0.00000  Uiso   1.00
C158   C     0.83581   0.40578   0.36268   0.00000  Uiso   1.00
C159   C     0.52508   0.53955   0.13171   0.00000  Uiso   1.00
C160   C     0.44136   0.59906   0.02763   0.00000  Uiso   1.00
C161   C     0.35714   0.49276   0.94853   0.00000  Uiso   1.00
H162   H     0.62407   0.21555   0.29384   0.00000  Uiso   1.00
H163   H     0.66308   0.36290   0.41264   0.00000  Uiso   1.00
H164   H     0.76873   0.08963   0.37990   0.00000  Uiso   1.00
H165   H     0.44033   0.14932   0.09577   0.00000  Uiso   1.00
H166   H     0.70653   0.59681   0.53370   0.00000  Uiso   1.00
H167   H     0.92927   0.02059   0.46463   0.00000  Uiso   1.00
H168   H     0.23678   0.14645   0.86549   0.00000  Uiso   1.00
H169   H     0.62535   0.75927   0.21149   0.00000  Uiso   1.00
H170   H     0.66442   0.93647   0.32577   0.00000  Uiso   1.00
H171   H     0.77008   0.66319   0.29303   0.00000  Uiso   1.00
H172   H     0.44168   0.72288   0.00890   0.00000  Uiso   1.00
H173   H     0.70763   0.06234   0.46319   0.00000  Uiso   1.00
H174   H     0.93037   0.48611   0.39412   0.00000  Uiso   1.00
H175   H     0.23788   0.61198   0.79498   0.00000  Uiso   1.00
O176   O     0.73280   0.93632   0.57514   0.00000  Uiso   1.00
O177   O     0.02501   0.18032   0.48450   0.00000  Uiso   1.00
O178   O     0.11648   0.34546   0.69845   0.00000  Uiso   1.00
N179   N     0.70141   0.68206   0.50140   0.00000  Uiso   1.00
N180   N     0.90967   0.14333   0.43684   0.00000  Uiso   1.00
N181   N     0.26225   0.26099   0.87669   0.00000  Uiso   1.00
N182   N     0.70200   0.93256   0.46347   0.00000  Uiso   1.00
N183   N     0.91026   0.39383   0.39890   0.00000  Uiso   1.00
N184   N     0.26284   0.51148   0.83875   0.00000  Uiso   1.00
