data_job_02256
_audit_creation_date              2018-12-19
_audit_creation_method            'Materials Studio'
_symmetry_space_group_name_H-M    'P1'
_symmetry_Int_Tables_number       1
_symmetry_cell_setting            triclinic
loop_
_symmetry_equiv_pos_as_xyz
  x,y,z
_cell_length_a                    26.7313
_cell_length_b                    12.3283
_cell_length_c                    24.1313
_cell_angle_alpha                 90.0000
_cell_angle_beta                  132.9251
_cell_angle_gamma                 90.0000
loop_
_atom_site_label
_atom_site_type_symbol
_atom_site_fract_x
_atom_site_fract_y
_atom_site_fract_z
_atom_site_U_iso_or_equiv
_atom_site_adp_type
_atom_site_occupancy
C1     C     0.19670   0.78000   0.59541   0.00000  Uiso   1.00
C2     C     0.17019   0.88375   0.54856   0.00000  Uiso   1.00
C3     C     0.20346   0.94316   0.53294   0.00000  Uiso   1.00
C4     C     0.17074   0.03574   0.48905   0.00000  Uiso   1.00
C5     C     0.13929   0.19202   0.42047   0.00000  Uiso   1.00
C6     C     0.19811   0.80186   0.65867   0.00000  Uiso   1.00
C7     C     0.25485   0.79240   0.73562   0.00000  Uiso   1.00
C8     C     0.24563   0.81603   0.78442   0.00000  Uiso   1.00
C9     C     0.25751   0.84509   0.88679   0.00000  Uiso   1.00
C10    C     0.14143   0.69466   0.54464   0.00000  Uiso   1.00
C11    C     0.15051   0.59504   0.52573   0.00000  Uiso   1.00
C12    C     0.09356   0.52840   0.47854   0.00000  Uiso   1.00
C13    C     0.01743   0.39102   0.40386   0.00000  Uiso   1.00
C14    C     0.07943   0.83877   0.54524   0.00000  Uiso   1.00
C15    C     0.10650   0.91567   0.52131   0.00000  Uiso   1.00
C16    C     0.07372   0.00818   0.47743   0.00000  Uiso   1.00
C17    C     0.10693   0.06772   0.46174   0.00000  Uiso   1.00
C18    C     0.13442   0.83378   0.63142   0.00000  Uiso   1.00
C19    C     0.12511   0.85742   0.68012   0.00000  Uiso   1.00
C20    C     0.18182   0.84800   0.75712   0.00000  Uiso   1.00
C21    C     0.07773   0.72658   0.51739   0.00000  Uiso   1.00
C22    C     0.02076   0.66007   0.47022   0.00000  Uiso   1.00
C23    C     0.02975   0.56038   0.45124   0.00000  Uiso   1.00
H24    H     0.24629   0.75515   0.61663   0.00000  Uiso   1.00
H25    H     0.25276   0.91844   0.55404   0.00000  Uiso   1.00
H26    H     0.30413   0.76768   0.75669   0.00000  Uiso   1.00
H27    H     0.19980   0.57037   0.54683   0.00000  Uiso   1.00
H28    H     0.23185   0.11357   0.47265   0.00000  Uiso   1.00
H29    H     0.34017   0.79567   0.89995   0.00000  Uiso   1.00
H30    H     0.12018   0.37959   0.45742   0.00000  Uiso   1.00
H31    H     0.02984   0.86362   0.52403   0.00000  Uiso   1.00
H32    H     0.02443   0.03287   0.45635   0.00000  Uiso   1.00
H33    H     0.07581   0.88211   0.65901   0.00000  Uiso   1.00
H34    H     0.97148   0.68480   0.44915   0.00000  Uiso   1.00
H35    H     0.04653   0.20645   0.39337   0.00000  Uiso   1.00
H36    H     0.15486   0.88854   0.82067   0.00000  Uiso   1.00
H37    H     0.93486   0.47247   0.37814   0.00000  Uiso   1.00
O38    O     0.13955   0.26941   0.39018   0.00000  Uiso   1.00
O39    O     0.28167   0.85231   0.95079   0.00000  Uiso   1.00
O40    O     0.99304   0.30643   0.37019   0.00000  Uiso   1.00
N41    N     0.18897   0.11219   0.46327   0.00000  Uiso   1.00
N42    N     0.29025   0.81499   0.86277   0.00000  Uiso   1.00
N43    N     0.08458   0.42598   0.44906   0.00000  Uiso   1.00
N44    N     0.08925   0.16217   0.42060   0.00000  Uiso   1.00
N45    N     0.19054   0.86497   0.82011   0.00000  Uiso   1.00
N46    N     0.98486   0.47595   0.40639   0.00000  Uiso   1.00
C47    C     0.69670   0.28000   0.59541   0.00000  Uiso   1.00
C48    C     0.67019   0.38375   0.54856   0.00000  Uiso   1.00
C49    C     0.70346   0.44316   0.53294   0.00000  Uiso   1.00
C50    C     0.67074   0.53574   0.48905   0.00000  Uiso   1.00
C51    C     0.63929   0.69202   0.42047   0.00000  Uiso   1.00
C52    C     0.69811   0.30186   0.65867   0.00000  Uiso   1.00
C53    C     0.75485   0.29240   0.73562   0.00000  Uiso   1.00
C54    C     0.74563   0.31603   0.78442   0.00000  Uiso   1.00
C55    C     0.75751   0.34509   0.88679   0.00000  Uiso   1.00
C56    C     0.64143   0.19466   0.54464   0.00000  Uiso   1.00
C57    C     0.65051   0.09504   0.52573   0.00000  Uiso   1.00
C58    C     0.59356   0.02840   0.47854   0.00000  Uiso   1.00
C59    C     0.51743   0.89102   0.40386   0.00000  Uiso   1.00
C60    C     0.57943   0.33877   0.54524   0.00000  Uiso   1.00
C61    C     0.60650   0.41567   0.52131   0.00000  Uiso   1.00
C62    C     0.57372   0.50818   0.47743   0.00000  Uiso   1.00
C63    C     0.60693   0.56772   0.46174   0.00000  Uiso   1.00
C64    C     0.63442   0.33378   0.63142   0.00000  Uiso   1.00
C65    C     0.62511   0.35742   0.68012   0.00000  Uiso   1.00
C66    C     0.68182   0.34800   0.75712   0.00000  Uiso   1.00
C67    C     0.57773   0.22658   0.51739   0.00000  Uiso   1.00
C68    C     0.52076   0.16007   0.47022   0.00000  Uiso   1.00
C69    C     0.52975   0.06038   0.45124   0.00000  Uiso   1.00
H70    H     0.74629   0.25515   0.61663   0.00000  Uiso   1.00
H71    H     0.75276   0.41844   0.55404   0.00000  Uiso   1.00
H72    H     0.80413   0.26768   0.75669   0.00000  Uiso   1.00
H73    H     0.69980   0.07037   0.54683   0.00000  Uiso   1.00
H74    H     0.73185   0.61357   0.47265   0.00000  Uiso   1.00
H75    H     0.84017   0.29567   0.89995   0.00000  Uiso   1.00
H76    H     0.62018   0.87959   0.45742   0.00000  Uiso   1.00
H77    H     0.52984   0.36362   0.52403   0.00000  Uiso   1.00
H78    H     0.52443   0.53287   0.45635   0.00000  Uiso   1.00
H79    H     0.57581   0.38211   0.65901   0.00000  Uiso   1.00
H80    H     0.47148   0.18480   0.44915   0.00000  Uiso   1.00
H81    H     0.54653   0.70645   0.39337   0.00000  Uiso   1.00
H82    H     0.65486   0.38854   0.82067   0.00000  Uiso   1.00
H83    H     0.43486   0.97247   0.37814   0.00000  Uiso   1.00
O84    O     0.63955   0.76941   0.39018   0.00000  Uiso   1.00
O85    O     0.78167   0.35231   0.95079   0.00000  Uiso   1.00
O86    O     0.49304   0.80643   0.37019   0.00000  Uiso   1.00
N87    N     0.68897   0.61219   0.46327   0.00000  Uiso   1.00
N88    N     0.79025   0.31499   0.86277   0.00000  Uiso   1.00
N89    N     0.58458   0.92598   0.44906   0.00000  Uiso   1.00
N90    N     0.58925   0.66217   0.42060   0.00000  Uiso   1.00
N91    N     0.69054   0.36497   0.82011   0.00000  Uiso   1.00
N92    N     0.48486   0.97595   0.40639   0.00000  Uiso   1.00
C93    C     0.80330   0.78000   0.90459   0.00000  Uiso   1.00
C94    C     0.82981   0.88375   0.95144   0.00000  Uiso   1.00
C95    C     0.79654   0.94316   0.96706   0.00000  Uiso   1.00
C96    C     0.82926   0.03574   0.01095   0.00000  Uiso   1.00
C97    C     0.86071   0.19202   0.07953   0.00000  Uiso   1.00
C98    C     0.80189   0.80186   0.84133   0.00000  Uiso   1.00
C99    C     0.74515   0.79240   0.76438   0.00000  Uiso   1.00
C100   C     0.75437   0.81603   0.71558   0.00000  Uiso   1.00
C101   C     0.74249   0.84509   0.61321   0.00000  Uiso   1.00
C102   C     0.85857   0.69466   0.95536   0.00000  Uiso   1.00
C103   C     0.84949   0.59504   0.97427   0.00000  Uiso   1.00
C104   C     0.90644   0.52840   0.02146   0.00000  Uiso   1.00
C105   C     0.98257   0.39102   0.09614   0.00000  Uiso   1.00
C106   C     0.92057   0.83877   0.95476   0.00000  Uiso   1.00
C107   C     0.89350   0.91567   0.97869   0.00000  Uiso   1.00
C108   C     0.92628   0.00818   0.02257   0.00000  Uiso   1.00
C109   C     0.89307   0.06772   0.03826   0.00000  Uiso   1.00
C110   C     0.86558   0.83378   0.86858   0.00000  Uiso   1.00
C111   C     0.87489   0.85742   0.81988   0.00000  Uiso   1.00
C112   C     0.81818   0.84800   0.74288   0.00000  Uiso   1.00
C113   C     0.92227   0.72658   0.98261   0.00000  Uiso   1.00
C114   C     0.97924   0.66007   0.02978   0.00000  Uiso   1.00
C115   C     0.97025   0.56038   0.04876   0.00000  Uiso   1.00
H116   H     0.75371   0.75515   0.88337   0.00000  Uiso   1.00
H117   H     0.74724   0.91844   0.94596   0.00000  Uiso   1.00
H118   H     0.69587   0.76768   0.74331   0.00000  Uiso   1.00
H119   H     0.80020   0.57037   0.95317   0.00000  Uiso   1.00
H120   H     0.76815   0.11357   0.02735   0.00000  Uiso   1.00
H121   H     0.65983   0.79567   0.60005   0.00000  Uiso   1.00
H122   H     0.87982   0.37959   0.04258   0.00000  Uiso   1.00
H123   H     0.97016   0.86362   0.97597   0.00000  Uiso   1.00
H124   H     0.97557   0.03287   0.04365   0.00000  Uiso   1.00
H125   H     0.92419   0.88211   0.84099   0.00000  Uiso   1.00
H126   H     0.02852   0.68480   0.05085   0.00000  Uiso   1.00
H127   H     0.95347   0.20645   0.10663   0.00000  Uiso   1.00
H128   H     0.84514   0.88854   0.67933   0.00000  Uiso   1.00
H129   H     0.06514   0.47247   0.12186   0.00000  Uiso   1.00
O130   O     0.86045   0.26941   0.10982   0.00000  Uiso   1.00
O131   O     0.71833   0.85231   0.54921   0.00000  Uiso   1.00
O132   O     0.00696   0.30643   0.12981   0.00000  Uiso   1.00
N133   N     0.81103   0.11219   0.03673   0.00000  Uiso   1.00
N134   N     0.70975   0.81499   0.63723   0.00000  Uiso   1.00
N135   N     0.91542   0.42598   0.05094   0.00000  Uiso   1.00
N136   N     0.91075   0.16217   0.07940   0.00000  Uiso   1.00
N137   N     0.80946   0.86497   0.67989   0.00000  Uiso   1.00
N138   N     0.01514   0.47595   0.09361   0.00000  Uiso   1.00
C139   C     0.30330   0.28000   0.90459   0.00000  Uiso   1.00
C140   C     0.32981   0.38375   0.95144   0.00000  Uiso   1.00
C141   C     0.29654   0.44316   0.96706   0.00000  Uiso   1.00
C142   C     0.32926   0.53574   0.01095   0.00000  Uiso   1.00
C143   C     0.36071   0.69202   0.07953   0.00000  Uiso   1.00
C144   C     0.30189   0.30186   0.84133   0.00000  Uiso   1.00
C145   C     0.24515   0.29240   0.76438   0.00000  Uiso   1.00
C146   C     0.25437   0.31603   0.71558   0.00000  Uiso   1.00
C147   C     0.24249   0.34509   0.61321   0.00000  Uiso   1.00
C148   C     0.35857   0.19466   0.95536   0.00000  Uiso   1.00
C149   C     0.34949   0.09504   0.97427   0.00000  Uiso   1.00
C150   C     0.40644   0.02840   0.02146   0.00000  Uiso   1.00
C151   C     0.48257   0.89102   0.09614   0.00000  Uiso   1.00
C152   C     0.42057   0.33877   0.95476   0.00000  Uiso   1.00
C153   C     0.39350   0.41567   0.97869   0.00000  Uiso   1.00
C154   C     0.42628   0.50818   0.02257   0.00000  Uiso   1.00
C155   C     0.39307   0.56772   0.03826   0.00000  Uiso   1.00
C156   C     0.36558   0.33378   0.86858   0.00000  Uiso   1.00
C157   C     0.37489   0.35742   0.81988   0.00000  Uiso   1.00
C158   C     0.31818   0.34800   0.74288   0.00000  Uiso   1.00
C159   C     0.42227   0.22658   0.98261   0.00000  Uiso   1.00
C160   C     0.47924   0.16007   0.02978   0.00000  Uiso   1.00
C161   C     0.47025   0.06038   0.04876   0.00000  Uiso   1.00
H162   H     0.25371   0.25515   0.88337   0.00000  Uiso   1.00
H163   H     0.24724   0.41844   0.94596   0.00000  Uiso   1.00
H164   H     0.19587   0.26768   0.74331   0.00000  Uiso   1.00
H165   H     0.30020   0.07037   0.95317   0.00000  Uiso   1.00
H166   H     0.26815   0.61357   0.02735   0.00000  Uiso   1.00
H167   H     0.15983   0.29567   0.60005   0.00000  Uiso   1.00
H168   H     0.37982   0.87959   0.04258   0.00000  Uiso   1.00
H169   H     0.47016   0.36362   0.97597   0.00000  Uiso   1.00
H170   H     0.47557   0.53287   0.04365   0.00000  Uiso   1.00
H171   H     0.42419   0.38211   0.84099   0.00000  Uiso   1.00
H172   H     0.52852   0.18480   0.05085   0.00000  Uiso   1.00
H173   H     0.45347   0.70645   0.10663   0.00000  Uiso   1.00
H174   H     0.34514   0.38854   0.67933   0.00000  Uiso   1.00
H175   H     0.56514   0.97247   0.12186   0.00000  Uiso   1.00
O176   O     0.36045   0.76941   0.10982   0.00000  Uiso   1.00
O177   O     0.21833   0.35231   0.54921   0.00000  Uiso   1.00
O178   O     0.50696   0.80643   0.12981   0.00000  Uiso   1.00
N179   N     0.31103   0.61219   0.03673   0.00000  Uiso   1.00
N180   N     0.20975   0.31499   0.63723   0.00000  Uiso   1.00
N181   N     0.41542   0.92598   0.05094   0.00000  Uiso   1.00
N182   N     0.41075   0.66217   0.07940   0.00000  Uiso   1.00
N183   N     0.30946   0.36497   0.67989   0.00000  Uiso   1.00
N184   N     0.51514   0.97595   0.09361   0.00000  Uiso   1.00
C185   C     0.80330   0.22000   0.40459   0.00000  Uiso   1.00
C186   C     0.82981   0.11625   0.45144   0.00000  Uiso   1.00
C187   C     0.79654   0.05684   0.46706   0.00000  Uiso   1.00
C188   C     0.82926   0.96426   0.51095   0.00000  Uiso   1.00
C189   C     0.86071   0.80798   0.57953   0.00000  Uiso   1.00
C190   C     0.80189   0.19814   0.34133   0.00000  Uiso   1.00
C191   C     0.74515   0.20760   0.26438   0.00000  Uiso   1.00
C192   C     0.75437   0.18397   0.21558   0.00000  Uiso   1.00
C193   C     0.74249   0.15491   0.11321   0.00000  Uiso   1.00
C194   C     0.85857   0.30534   0.45536   0.00000  Uiso   1.00
C195   C     0.84949   0.40496   0.47427   0.00000  Uiso   1.00
C196   C     0.90644   0.47160   0.52146   0.00000  Uiso   1.00
C197   C     0.98257   0.60898   0.59614   0.00000  Uiso   1.00
C198   C     0.92057   0.16123   0.45476   0.00000  Uiso   1.00
C199   C     0.89350   0.08433   0.47869   0.00000  Uiso   1.00
C200   C     0.92628   0.99182   0.52257   0.00000  Uiso   1.00
C201   C     0.89307   0.93228   0.53826   0.00000  Uiso   1.00
C202   C     0.86558   0.16622   0.36858   0.00000  Uiso   1.00
C203   C     0.87489   0.14258   0.31988   0.00000  Uiso   1.00
C204   C     0.81818   0.15200   0.24288   0.00000  Uiso   1.00
C205   C     0.92227   0.27342   0.48261   0.00000  Uiso   1.00
C206   C     0.97924   0.33993   0.52978   0.00000  Uiso   1.00
C207   C     0.97025   0.43962   0.54876   0.00000  Uiso   1.00
H208   H     0.75371   0.24485   0.38337   0.00000  Uiso   1.00
H209   H     0.74724   0.08156   0.44596   0.00000  Uiso   1.00
H210   H     0.69587   0.23232   0.24331   0.00000  Uiso   1.00
H211   H     0.80020   0.42963   0.45317   0.00000  Uiso   1.00
H212   H     0.76815   0.88643   0.52735   0.00000  Uiso   1.00
H213   H     0.65983   0.20433   0.10005   0.00000  Uiso   1.00
H214   H     0.87982   0.62041   0.54258   0.00000  Uiso   1.00
H215   H     0.97016   0.13638   0.47597   0.00000  Uiso   1.00
H216   H     0.97557   0.96713   0.54365   0.00000  Uiso   1.00
H217   H     0.92419   0.11789   0.34099   0.00000  Uiso   1.00
H218   H     0.02852   0.31520   0.55085   0.00000  Uiso   1.00
H219   H     0.95347   0.79355   0.60663   0.00000  Uiso   1.00
H220   H     0.84514   0.11146   0.17933   0.00000  Uiso   1.00
H221   H     0.06514   0.52753   0.62186   0.00000  Uiso   1.00
O222   O     0.86045   0.73059   0.60982   0.00000  Uiso   1.00
O223   O     0.71833   0.14769   0.04921   0.00000  Uiso   1.00
O224   O     0.00696   0.69357   0.62981   0.00000  Uiso   1.00
N225   N     0.81103   0.88781   0.53673   0.00000  Uiso   1.00
N226   N     0.70975   0.18501   0.13723   0.00000  Uiso   1.00
N227   N     0.91542   0.57402   0.55094   0.00000  Uiso   1.00
N228   N     0.91075   0.83783   0.57940   0.00000  Uiso   1.00
N229   N     0.80946   0.13503   0.17989   0.00000  Uiso   1.00
N230   N     0.01514   0.52405   0.59361   0.00000  Uiso   1.00
C231   C     0.30330   0.72000   0.40459   0.00000  Uiso   1.00
C232   C     0.32981   0.61625   0.45144   0.00000  Uiso   1.00
C233   C     0.29654   0.55684   0.46706   0.00000  Uiso   1.00
C234   C     0.32926   0.46426   0.51095   0.00000  Uiso   1.00
C235   C     0.36071   0.30798   0.57953   0.00000  Uiso   1.00
C236   C     0.30189   0.69814   0.34133   0.00000  Uiso   1.00
C237   C     0.24515   0.70760   0.26438   0.00000  Uiso   1.00
C238   C     0.25437   0.68397   0.21558   0.00000  Uiso   1.00
C239   C     0.24249   0.65491   0.11321   0.00000  Uiso   1.00
C240   C     0.35857   0.80534   0.45536   0.00000  Uiso   1.00
C241   C     0.34949   0.90496   0.47427   0.00000  Uiso   1.00
C242   C     0.40644   0.97160   0.52146   0.00000  Uiso   1.00
C243   C     0.48257   0.10898   0.59614   0.00000  Uiso   1.00
C244   C     0.42057   0.66123   0.45476   0.00000  Uiso   1.00
C245   C     0.39350   0.58433   0.47869   0.00000  Uiso   1.00
C246   C     0.42628   0.49182   0.52257   0.00000  Uiso   1.00
C247   C     0.39307   0.43228   0.53826   0.00000  Uiso   1.00
C248   C     0.36558   0.66622   0.36858   0.00000  Uiso   1.00
C249   C     0.37489   0.64258   0.31988   0.00000  Uiso   1.00
C250   C     0.31818   0.65200   0.24288   0.00000  Uiso   1.00
C251   C     0.42227   0.77342   0.48261   0.00000  Uiso   1.00
C252   C     0.47924   0.83993   0.52978   0.00000  Uiso   1.00
C253   C     0.47025   0.93962   0.54876   0.00000  Uiso   1.00
H254   H     0.25371   0.74485   0.38337   0.00000  Uiso   1.00
H255   H     0.24724   0.58156   0.44596   0.00000  Uiso   1.00
H256   H     0.19587   0.73232   0.24331   0.00000  Uiso   1.00
H257   H     0.30020   0.92963   0.45317   0.00000  Uiso   1.00
H258   H     0.26815   0.38643   0.52735   0.00000  Uiso   1.00
H259   H     0.15983   0.70433   0.10005   0.00000  Uiso   1.00
H260   H     0.37982   0.12041   0.54258   0.00000  Uiso   1.00
H261   H     0.47016   0.63638   0.47597   0.00000  Uiso   1.00
H262   H     0.47557   0.46713   0.54365   0.00000  Uiso   1.00
H263   H     0.42419   0.61789   0.34099   0.00000  Uiso   1.00
H264   H     0.52852   0.81520   0.55085   0.00000  Uiso   1.00
H265   H     0.45347   0.29355   0.60663   0.00000  Uiso   1.00
H266   H     0.34514   0.61146   0.17933   0.00000  Uiso   1.00
H267   H     0.56514   0.02753   0.62186   0.00000  Uiso   1.00
O268   O     0.36045   0.23059   0.60982   0.00000  Uiso   1.00
O269   O     0.21833   0.64769   0.04921   0.00000  Uiso   1.00
O270   O     0.50696   0.19357   0.62981   0.00000  Uiso   1.00
N271   N     0.31103   0.38781   0.53673   0.00000  Uiso   1.00
N272   N     0.20975   0.68501   0.13723   0.00000  Uiso   1.00
N273   N     0.41542   0.07402   0.55094   0.00000  Uiso   1.00
N274   N     0.41075   0.33783   0.57940   0.00000  Uiso   1.00
N275   N     0.30946   0.63503   0.17989   0.00000  Uiso   1.00
N276   N     0.51514   0.02405   0.59361   0.00000  Uiso   1.00
C277   C     0.19670   0.22000   0.09541   0.00000  Uiso   1.00
C278   C     0.17019   0.11625   0.04856   0.00000  Uiso   1.00
C279   C     0.20346   0.05684   0.03294   0.00000  Uiso   1.00
C280   C     0.17074   0.96426   0.98905   0.00000  Uiso   1.00
C281   C     0.13929   0.80798   0.92047   0.00000  Uiso   1.00
C282   C     0.19811   0.19814   0.15867   0.00000  Uiso   1.00
C283   C     0.25485   0.20760   0.23562   0.00000  Uiso   1.00
C284   C     0.24563   0.18397   0.28442   0.00000  Uiso   1.00
C285   C     0.25751   0.15491   0.38679   0.00000  Uiso   1.00
C286   C     0.14143   0.30534   0.04464   0.00000  Uiso   1.00
C287   C     0.15051   0.40496   0.02573   0.00000  Uiso   1.00
C288   C     0.09356   0.47160   0.97854   0.00000  Uiso   1.00
C289   C     0.01743   0.60898   0.90386   0.00000  Uiso   1.00
C290   C     0.07943   0.16123   0.04524   0.00000  Uiso   1.00
C291   C     0.10650   0.08433   0.02131   0.00000  Uiso   1.00
C292   C     0.07372   0.99182   0.97743   0.00000  Uiso   1.00
C293   C     0.10693   0.93228   0.96174   0.00000  Uiso   1.00
C294   C     0.13442   0.16622   0.13142   0.00000  Uiso   1.00
C295   C     0.12511   0.14258   0.18012   0.00000  Uiso   1.00
C296   C     0.18182   0.15200   0.25712   0.00000  Uiso   1.00
C297   C     0.07773   0.27342   0.01739   0.00000  Uiso   1.00
C298   C     0.02076   0.33993   0.97022   0.00000  Uiso   1.00
C299   C     0.02975   0.43962   0.95124   0.00000  Uiso   1.00
H300   H     0.24629   0.24485   0.11663   0.00000  Uiso   1.00
H301   H     0.25276   0.08156   0.05404   0.00000  Uiso   1.00
H302   H     0.30413   0.23232   0.25669   0.00000  Uiso   1.00
H303   H     0.19980   0.42963   0.04683   0.00000  Uiso   1.00
H304   H     0.23185   0.88643   0.97265   0.00000  Uiso   1.00
H305   H     0.34017   0.20433   0.39995   0.00000  Uiso   1.00
H306   H     0.12018   0.62041   0.95742   0.00000  Uiso   1.00
H307   H     0.02984   0.13638   0.02403   0.00000  Uiso   1.00
H308   H     0.02443   0.96713   0.95635   0.00000  Uiso   1.00
H309   H     0.07581   0.11789   0.15901   0.00000  Uiso   1.00
H310   H     0.97148   0.31520   0.94915   0.00000  Uiso   1.00
H311   H     0.04653   0.79355   0.89337   0.00000  Uiso   1.00
H312   H     0.15486   0.11146   0.32067   0.00000  Uiso   1.00
H313   H     0.93486   0.52753   0.87814   0.00000  Uiso   1.00
O314   O     0.13955   0.73059   0.89018   0.00000  Uiso   1.00
O315   O     0.28167   0.14769   0.45079   0.00000  Uiso   1.00
O316   O     0.99304   0.69357   0.87019   0.00000  Uiso   1.00
N317   N     0.18897   0.88781   0.96327   0.00000  Uiso   1.00
N318   N     0.29025   0.18501   0.36277   0.00000  Uiso   1.00
N319   N     0.08458   0.57402   0.94906   0.00000  Uiso   1.00
N320   N     0.08925   0.83783   0.92060   0.00000  Uiso   1.00
N321   N     0.19054   0.13503   0.32011   0.00000  Uiso   1.00
N322   N     0.98486   0.52405   0.90639   0.00000  Uiso   1.00
C323   C     0.69670   0.72000   0.09541   0.00000  Uiso   1.00
C324   C     0.67019   0.61625   0.04856   0.00000  Uiso   1.00
C325   C     0.70346   0.55684   0.03294   0.00000  Uiso   1.00
C326   C     0.67074   0.46426   0.98905   0.00000  Uiso   1.00
C327   C     0.63929   0.30798   0.92047   0.00000  Uiso   1.00
C328   C     0.69811   0.69814   0.15867   0.00000  Uiso   1.00
C329   C     0.75485   0.70760   0.23562   0.00000  Uiso   1.00
C330   C     0.74563   0.68397   0.28442   0.00000  Uiso   1.00
C331   C     0.75751   0.65491   0.38679   0.00000  Uiso   1.00
C332   C     0.64143   0.80534   0.04464   0.00000  Uiso   1.00
C333   C     0.65051   0.90496   0.02573   0.00000  Uiso   1.00
C334   C     0.59356   0.97160   0.97854   0.00000  Uiso   1.00
C335   C     0.51743   0.10898   0.90386   0.00000  Uiso   1.00
C336   C     0.57943   0.66123   0.04524   0.00000  Uiso   1.00
C337   C     0.60650   0.58433   0.02131   0.00000  Uiso   1.00
C338   C     0.57372   0.49182   0.97743   0.00000  Uiso   1.00
C339   C     0.60693   0.43228   0.96174   0.00000  Uiso   1.00
C340   C     0.63442   0.66622   0.13142   0.00000  Uiso   1.00
C341   C     0.62511   0.64258   0.18012   0.00000  Uiso   1.00
C342   C     0.68182   0.65200   0.25712   0.00000  Uiso   1.00
C343   C     0.57773   0.77342   0.01739   0.00000  Uiso   1.00
C344   C     0.52076   0.83993   0.97022   0.00000  Uiso   1.00
C345   C     0.52975   0.93962   0.95124   0.00000  Uiso   1.00
H346   H     0.74629   0.74485   0.11663   0.00000  Uiso   1.00
H347   H     0.75276   0.58156   0.05404   0.00000  Uiso   1.00
H348   H     0.80413   0.73232   0.25669   0.00000  Uiso   1.00
H349   H     0.69980   0.92963   0.04683   0.00000  Uiso   1.00
H350   H     0.73185   0.38643   0.97265   0.00000  Uiso   1.00
H351   H     0.84017   0.70433   0.39995   0.00000  Uiso   1.00
H352   H     0.62018   0.12041   0.95742   0.00000  Uiso   1.00
H353   H     0.52984   0.63638   0.02403   0.00000  Uiso   1.00
H354   H     0.52443   0.46713   0.95635   0.00000  Uiso   1.00
H355   H     0.57581   0.61789   0.15901   0.00000  Uiso   1.00
H356   H     0.47148   0.81520   0.94915   0.00000  Uiso   1.00
H357   H     0.54653   0.29355   0.89337   0.00000  Uiso   1.00
H358   H     0.65486   0.61146   0.32067   0.00000  Uiso   1.00
H359   H     0.43486   0.02753   0.87814   0.00000  Uiso   1.00
O360   O     0.63955   0.23059   0.89018   0.00000  Uiso   1.00
O361   O     0.78167   0.64769   0.45079   0.00000  Uiso   1.00
O362   O     0.49304   0.19357   0.87019   0.00000  Uiso   1.00
N363   N     0.68897   0.38781   0.96327   0.00000  Uiso   1.00
N364   N     0.79025   0.68501   0.36277   0.00000  Uiso   1.00
N365   N     0.58458   0.07402   0.94906   0.00000  Uiso   1.00
N366   N     0.58925   0.33783   0.92060   0.00000  Uiso   1.00
N367   N     0.69054   0.63503   0.32011   0.00000  Uiso   1.00
N368   N     0.48486   0.02405   0.90639   0.00000  Uiso   1.00
