data_job_03628
_audit_creation_date              2018-12-19
_audit_creation_method            'Materials Studio'
_symmetry_space_group_name_H-M    'P1'
_symmetry_Int_Tables_number       1
_symmetry_cell_setting            triclinic
loop_
_symmetry_equiv_pos_as_xyz
  x,y,z
_cell_length_a                    20.5446
_cell_length_b                    15.1022
_cell_length_c                    12.3401
_cell_angle_alpha                 90.0000
_cell_angle_beta                  85.1942
_cell_angle_gamma                 90.0000
loop_
_atom_site_label
_atom_site_type_symbol
_atom_site_fract_x
_atom_site_fract_y
_atom_site_fract_z
_atom_site_U_iso_or_equiv
_atom_site_adp_type
_atom_site_occupancy
C1     C     0.75608   0.13035   0.45358   0.00000  Uiso   1.00
C2     C     0.71941   0.20906   0.41085   0.00000  Uiso   1.00
C3     C     0.71193   0.29127   0.46059   0.00000  Uiso   1.00
C4     C     0.67666   0.35452   0.40856   0.00000  Uiso   1.00
C5     C     0.62377   0.47953   0.35718   0.00000  Uiso   1.00
C6     C     0.70739   0.05398   0.46308   0.00000  Uiso   1.00
C7     C     0.68980   0.00578   0.55673   0.00000  Uiso   1.00
C8     C     0.64442   0.93848   0.54866   0.00000  Uiso   1.00
C9     C     0.57289   0.82266   0.57835   0.00000  Uiso   1.00
C10    C     0.80766   0.10482   0.36289   0.00000  Uiso   1.00
C11    C     0.87438   0.09935   0.37231   0.00000  Uiso   1.00
C12    C     0.91342   0.07483   0.27989   0.00000  Uiso   1.00
C13    C     0.99758   0.03796   0.15401   0.00000  Uiso   1.00
C14    C     0.70678   0.09651   0.27272   0.00000  Uiso   1.00
C15    C     0.69263   0.19068   0.31261   0.00000  Uiso   1.00
C16    C     0.65737   0.25383   0.26049   0.00000  Uiso   1.00
C17    C     0.64984   0.33612   0.31014   0.00000  Uiso   1.00
C18    C     0.68060   0.03559   0.36484   0.00000  Uiso   1.00
C19    C     0.63524   0.96834   0.35663   0.00000  Uiso   1.00
C20    C     0.61759   0.92006   0.45025   0.00000  Uiso   1.00
C21    C     0.78088   0.08644   0.26464   0.00000  Uiso   1.00
C22    C     0.81982   0.06192   0.17220   0.00000  Uiso   1.00
C23    C     0.88659   0.05641   0.18147   0.00000  Uiso   1.00
H24    H     0.77693   0.14465   0.53007   0.00000  Uiso   1.00
H25    H     0.73266   0.30546   0.53662   0.00000  Uiso   1.00
H26    H     0.71054   0.02001   0.63274   0.00000  Uiso   1.00
H27    H     0.89509   0.11358   0.44834   0.00000  Uiso   1.00
H28    H     0.67173   0.47563   0.50059   0.00000  Uiso   1.00
H29    H     0.62511   0.87373   0.70325   0.00000  Uiso   1.00
H30    H     0.01427   0.07102   0.31441   0.00000  Uiso   1.00
H31    H     0.68592   0.08220   0.19623   0.00000  Uiso   1.00
H32    H     0.63665   0.23959   0.18446   0.00000  Uiso   1.00
H33    H     0.61453   0.95414   0.28059   0.00000  Uiso   1.00
H34    H     0.79908   0.04770   0.09619   0.00000  Uiso   1.00
H35    H     0.59381   0.42216   0.21477   0.00000  Uiso   1.00
H36    H     0.54719   0.82025   0.41744   0.00000  Uiso   1.00
H37    H     0.93635   0.01755   0.02859   0.00000  Uiso   1.00
O38    O     0.60198   0.55355   0.35598   0.00000  Uiso   1.00
O39    O     0.54083   0.76386   0.62187   0.00000  Uiso   1.00
O40    O     0.05140   0.02271   0.11171   0.00000  Uiso   1.00
N41    N     0.66017   0.44146   0.43492   0.00000  Uiso   1.00
N42    N     0.61657   0.87872   0.62441   0.00000  Uiso   1.00
N43    N     0.98040   0.06314   0.26088   0.00000  Uiso   1.00
N44    N     0.61824   0.41268   0.28112   0.00000  Uiso   1.00
N45    N     0.57464   0.84995   0.47061   0.00000  Uiso   1.00
N46    N     0.93847   0.03437   0.10708   0.00000  Uiso   1.00
C47    C     0.25608   0.63035   0.45358   0.00000  Uiso   1.00
C48    C     0.21941   0.70906   0.41085   0.00000  Uiso   1.00
C49    C     0.21193   0.79127   0.46059   0.00000  Uiso   1.00
C50    C     0.17666   0.85452   0.40856   0.00000  Uiso   1.00
C51    C     0.12377   0.97953   0.35718   0.00000  Uiso   1.00
C52    C     0.20739   0.55398   0.46308   0.00000  Uiso   1.00
C53    C     0.18980   0.50578   0.55673   0.00000  Uiso   1.00
C54    C     0.14442   0.43848   0.54866   0.00000  Uiso   1.00
C55    C     0.07289   0.32266   0.57835   0.00000  Uiso   1.00
C56    C     0.30766   0.60482   0.36289   0.00000  Uiso   1.00
C57    C     0.37438   0.59935   0.37231   0.00000  Uiso   1.00
C58    C     0.41342   0.57483   0.27989   0.00000  Uiso   1.00
C59    C     0.49758   0.53796   0.15401   0.00000  Uiso   1.00
C60    C     0.20678   0.59651   0.27272   0.00000  Uiso   1.00
C61    C     0.19263   0.69068   0.31261   0.00000  Uiso   1.00
C62    C     0.15737   0.75383   0.26049   0.00000  Uiso   1.00
C63    C     0.14984   0.83612   0.31014   0.00000  Uiso   1.00
C64    C     0.18060   0.53559   0.36484   0.00000  Uiso   1.00
C65    C     0.13524   0.46834   0.35663   0.00000  Uiso   1.00
C66    C     0.11759   0.42006   0.45025   0.00000  Uiso   1.00
C67    C     0.28088   0.58644   0.26464   0.00000  Uiso   1.00
C68    C     0.31982   0.56192   0.17220   0.00000  Uiso   1.00
C69    C     0.38659   0.55641   0.18147   0.00000  Uiso   1.00
H70    H     0.27693   0.64465   0.53007   0.00000  Uiso   1.00
H71    H     0.23266   0.80546   0.53662   0.00000  Uiso   1.00
H72    H     0.21054   0.52001   0.63274   0.00000  Uiso   1.00
H73    H     0.39509   0.61358   0.44834   0.00000  Uiso   1.00
H74    H     0.17173   0.97563   0.50059   0.00000  Uiso   1.00
H75    H     0.12511   0.37373   0.70325   0.00000  Uiso   1.00
H76    H     0.51427   0.57102   0.31441   0.00000  Uiso   1.00
H77    H     0.18592   0.58220   0.19623   0.00000  Uiso   1.00
H78    H     0.13665   0.73959   0.18446   0.00000  Uiso   1.00
H79    H     0.11453   0.45414   0.28059   0.00000  Uiso   1.00
H80    H     0.29908   0.54770   0.09619   0.00000  Uiso   1.00
H81    H     0.09381   0.92216   0.21477   0.00000  Uiso   1.00
H82    H     0.04719   0.32025   0.41744   0.00000  Uiso   1.00
H83    H     0.43635   0.51755   0.02859   0.00000  Uiso   1.00
O84    O     0.10198   0.05355   0.35598   0.00000  Uiso   1.00
O85    O     0.04083   0.26386   0.62187   0.00000  Uiso   1.00
O86    O     0.55140   0.52271   0.11171   0.00000  Uiso   1.00
N87    N     0.16017   0.94146   0.43492   0.00000  Uiso   1.00
N88    N     0.11657   0.37872   0.62441   0.00000  Uiso   1.00
N89    N     0.48040   0.56314   0.26088   0.00000  Uiso   1.00
N90    N     0.11824   0.91268   0.28112   0.00000  Uiso   1.00
N91    N     0.07464   0.34995   0.47061   0.00000  Uiso   1.00
N92    N     0.43847   0.53437   0.10708   0.00000  Uiso   1.00
C93    C     0.24392   0.13035   0.54642   0.00000  Uiso   1.00
C94    C     0.28059   0.20906   0.58915   0.00000  Uiso   1.00
C95    C     0.28807   0.29127   0.53941   0.00000  Uiso   1.00
C96    C     0.32334   0.35452   0.59144   0.00000  Uiso   1.00
C97    C     0.37623   0.47953   0.64282   0.00000  Uiso   1.00
C98    C     0.29261   0.05398   0.53692   0.00000  Uiso   1.00
C99    C     0.31020   0.00578   0.44327   0.00000  Uiso   1.00
C100   C     0.35558   0.93848   0.45134   0.00000  Uiso   1.00
C101   C     0.42711   0.82266   0.42165   0.00000  Uiso   1.00
C102   C     0.19234   0.10482   0.63711   0.00000  Uiso   1.00
C103   C     0.12562   0.09935   0.62769   0.00000  Uiso   1.00
C104   C     0.08658   0.07483   0.72011   0.00000  Uiso   1.00
C105   C     0.00242   0.03796   0.84599   0.00000  Uiso   1.00
C106   C     0.29322   0.09651   0.72728   0.00000  Uiso   1.00
C107   C     0.30737   0.19068   0.68739   0.00000  Uiso   1.00
C108   C     0.34263   0.25383   0.73951   0.00000  Uiso   1.00
C109   C     0.35016   0.33612   0.68986   0.00000  Uiso   1.00
C110   C     0.31940   0.03559   0.63516   0.00000  Uiso   1.00
C111   C     0.36476   0.96834   0.64337   0.00000  Uiso   1.00
C112   C     0.38241   0.92006   0.54975   0.00000  Uiso   1.00
C113   C     0.21912   0.08644   0.73536   0.00000  Uiso   1.00
C114   C     0.18018   0.06192   0.82780   0.00000  Uiso   1.00
C115   C     0.11341   0.05641   0.81853   0.00000  Uiso   1.00
H116   H     0.22307   0.14465   0.46993   0.00000  Uiso   1.00
H117   H     0.26734   0.30546   0.46338   0.00000  Uiso   1.00
H118   H     0.28946   0.02001   0.36726   0.00000  Uiso   1.00
H119   H     0.10491   0.11358   0.55166   0.00000  Uiso   1.00
H120   H     0.32827   0.47563   0.49941   0.00000  Uiso   1.00
H121   H     0.37489   0.87373   0.29675   0.00000  Uiso   1.00
H122   H     0.98573   0.07102   0.68559   0.00000  Uiso   1.00
H123   H     0.31408   0.08220   0.80377   0.00000  Uiso   1.00
H124   H     0.36335   0.23959   0.81554   0.00000  Uiso   1.00
H125   H     0.38547   0.95414   0.71941   0.00000  Uiso   1.00
H126   H     0.20092   0.04770   0.90381   0.00000  Uiso   1.00
H127   H     0.40619   0.42216   0.78523   0.00000  Uiso   1.00
H128   H     0.45281   0.82025   0.58256   0.00000  Uiso   1.00
H129   H     0.06365   0.01755   0.97141   0.00000  Uiso   1.00
O130   O     0.39802   0.55355   0.64402   0.00000  Uiso   1.00
O131   O     0.45917   0.76386   0.37813   0.00000  Uiso   1.00
O132   O     0.94860   0.02271   0.88829   0.00000  Uiso   1.00
N133   N     0.33983   0.44146   0.56508   0.00000  Uiso   1.00
N134   N     0.38343   0.87872   0.37559   0.00000  Uiso   1.00
N135   N     0.01960   0.06314   0.73912   0.00000  Uiso   1.00
N136   N     0.38176   0.41268   0.71888   0.00000  Uiso   1.00
N137   N     0.42536   0.84995   0.52939   0.00000  Uiso   1.00
N138   N     0.06153   0.03437   0.89292   0.00000  Uiso   1.00
C139   C     0.74392   0.63035   0.54642   0.00000  Uiso   1.00
C140   C     0.78059   0.70906   0.58915   0.00000  Uiso   1.00
C141   C     0.78807   0.79127   0.53941   0.00000  Uiso   1.00
C142   C     0.82334   0.85452   0.59144   0.00000  Uiso   1.00
C143   C     0.87623   0.97953   0.64282   0.00000  Uiso   1.00
C144   C     0.79261   0.55398   0.53692   0.00000  Uiso   1.00
C145   C     0.81020   0.50578   0.44327   0.00000  Uiso   1.00
C146   C     0.85558   0.43848   0.45134   0.00000  Uiso   1.00
C147   C     0.92711   0.32266   0.42165   0.00000  Uiso   1.00
C148   C     0.69234   0.60482   0.63711   0.00000  Uiso   1.00
C149   C     0.62562   0.59935   0.62769   0.00000  Uiso   1.00
C150   C     0.58658   0.57483   0.72011   0.00000  Uiso   1.00
C151   C     0.50242   0.53796   0.84599   0.00000  Uiso   1.00
C152   C     0.79322   0.59651   0.72728   0.00000  Uiso   1.00
C153   C     0.80737   0.69068   0.68739   0.00000  Uiso   1.00
C154   C     0.84263   0.75383   0.73951   0.00000  Uiso   1.00
C155   C     0.85016   0.83612   0.68986   0.00000  Uiso   1.00
C156   C     0.81940   0.53559   0.63516   0.00000  Uiso   1.00
C157   C     0.86476   0.46834   0.64337   0.00000  Uiso   1.00
C158   C     0.88241   0.42006   0.54975   0.00000  Uiso   1.00
C159   C     0.71912   0.58644   0.73536   0.00000  Uiso   1.00
C160   C     0.68018   0.56192   0.82780   0.00000  Uiso   1.00
C161   C     0.61341   0.55641   0.81853   0.00000  Uiso   1.00
H162   H     0.72307   0.64465   0.46993   0.00000  Uiso   1.00
H163   H     0.76734   0.80546   0.46338   0.00000  Uiso   1.00
H164   H     0.78946   0.52001   0.36726   0.00000  Uiso   1.00
H165   H     0.60491   0.61358   0.55166   0.00000  Uiso   1.00
H166   H     0.82827   0.97563   0.49941   0.00000  Uiso   1.00
H167   H     0.87489   0.37373   0.29675   0.00000  Uiso   1.00
H168   H     0.48573   0.57102   0.68559   0.00000  Uiso   1.00
H169   H     0.81408   0.58220   0.80377   0.00000  Uiso   1.00
H170   H     0.86335   0.73959   0.81554   0.00000  Uiso   1.00
H171   H     0.88547   0.45414   0.71941   0.00000  Uiso   1.00
H172   H     0.70092   0.54770   0.90381   0.00000  Uiso   1.00
H173   H     0.90619   0.92216   0.78523   0.00000  Uiso   1.00
H174   H     0.95281   0.32025   0.58256   0.00000  Uiso   1.00
H175   H     0.56365   0.51755   0.97141   0.00000  Uiso   1.00
O176   O     0.89802   0.05355   0.64402   0.00000  Uiso   1.00
O177   O     0.95917   0.26386   0.37813   0.00000  Uiso   1.00
O178   O     0.44860   0.52271   0.88829   0.00000  Uiso   1.00
N179   N     0.83983   0.94146   0.56508   0.00000  Uiso   1.00
N180   N     0.88343   0.37872   0.37559   0.00000  Uiso   1.00
N181   N     0.51960   0.56314   0.73912   0.00000  Uiso   1.00
N182   N     0.88176   0.91268   0.71888   0.00000  Uiso   1.00
N183   N     0.92536   0.34995   0.52939   0.00000  Uiso   1.00
N184   N     0.56153   0.53437   0.89292   0.00000  Uiso   1.00
