data_job_03777
_audit_creation_date              2018-12-19
_audit_creation_method            'Materials Studio'
_symmetry_space_group_name_H-M    'P1'
_symmetry_Int_Tables_number       1
_symmetry_cell_setting            triclinic
loop_
_symmetry_equiv_pos_as_xyz
  x,y,z
_cell_length_a                    15.2369
_cell_length_b                    38.6376
_cell_length_c                    9.3540
_cell_angle_alpha                 90.0000
_cell_angle_beta                  90.0000
_cell_angle_gamma                 90.0000
loop_
_atom_site_label
_atom_site_type_symbol
_atom_site_fract_x
_atom_site_fract_y
_atom_site_fract_z
_atom_site_U_iso_or_equiv
_atom_site_adp_type
_atom_site_occupancy
C1     C     0.50002   0.60638   0.34315   0.00000  Uiso   1.00
C2     C     0.49790   0.58399   0.47736   0.00000  Uiso   1.00
C3     C     0.45310   0.55293   0.49232   0.00000  Uiso   1.00
C4     C     0.45937   0.53638   0.62367   0.00000  Uiso   1.00
C5     C     0.44854   0.49949   0.81501   0.00000  Uiso   1.00
C6     C     0.46770   0.64207   0.38868   0.00000  Uiso   1.00
C7     C     0.39751   0.65984   0.32906   0.00000  Uiso   1.00
C8     C     0.37836   0.69218   0.38575   0.00000  Uiso   1.00
C9     C     0.32067   0.74547   0.43935   0.00000  Uiso   1.00
C10    C     0.59668   0.61079   0.30504   0.00000  Uiso   1.00
C11    C     0.63494   0.60227   0.17508   0.00000  Uiso   1.00
C12    C     0.72439   0.60829   0.16133   0.00000  Uiso   1.00
C13    C     0.86697   0.61301   0.08506   0.00000  Uiso   1.00
C14    C     0.59082   0.63222   0.54981   0.00000  Uiso   1.00
C15    C     0.54722   0.59803   0.58961   0.00000  Uiso   1.00
C16    C     0.55356   0.58152   0.72097   0.00000  Uiso   1.00
C17    C     0.50877   0.55044   0.73612   0.00000  Uiso   1.00
C18    C     0.51701   0.65611   0.50093   0.00000  Uiso   1.00
C19    C     0.49796   0.68843   0.55771   0.00000  Uiso   1.00
C20    C     0.42776   0.70624   0.49820   0.00000  Uiso   1.00
C21    C     0.64600   0.62483   0.41729   0.00000  Uiso   1.00
C22    C     0.73540   0.63086   0.40373   0.00000  Uiso   1.00
C23    C     0.77379   0.62235   0.27378   0.00000  Uiso   1.00
H24    H     0.46162   0.59546   0.25576   0.00000  Uiso   1.00
H25    H     0.41494   0.54208   0.40543   0.00000  Uiso   1.00
H26    H     0.35936   0.64898   0.24219   0.00000  Uiso   1.00
H27    H     0.59676   0.59141   0.08824   0.00000  Uiso   1.00
H28    H     0.38490   0.48910   0.62089   0.00000  Uiso   1.00
H29    H     0.26773   0.71450   0.27666   0.00000  Uiso   1.00
H30    H     0.76833   0.59312   0.95201   0.00000  Uiso   1.00
H31    H     0.62921   0.64315   0.63721   0.00000  Uiso   1.00
H32    H     0.59172   0.59239   0.80782   0.00000  Uiso   1.00
H33    H     0.53614   0.69928   0.64457   0.00000  Uiso   1.00
H34    H     0.77354   0.64172   0.49062   0.00000  Uiso   1.00
H35    H     0.52838   0.52993   0.94748   0.00000  Uiso   1.00
H36    H     0.41121   0.75533   0.60324   0.00000  Uiso   1.00
H37    H     0.91181   0.63395   0.27860   0.00000  Uiso   1.00
O38    O     0.42893   0.47527   0.88955   0.00000  Uiso   1.00
O39    O     0.27522   0.77098   0.43790   0.00000  Uiso   1.00
O40    O     0.93200   0.61174   0.01198   0.00000  Uiso   1.00
N41    N     0.42383   0.50567   0.67433   0.00000  Uiso   1.00
N42    N     0.31427   0.71640   0.35251   0.00000  Uiso   1.00
N43    N     0.78229   0.60293   0.04898   0.00000  Uiso   1.00
N44    N     0.50103   0.52764   0.85007   0.00000  Uiso   1.00
N45    N     0.39148   0.73837   0.52824   0.00000  Uiso   1.00
N46    N     0.85949   0.62490   0.22471   0.00000  Uiso   1.00
C47    C     0.99998   0.39362   0.34315   0.00000  Uiso   1.00
C48    C     0.00210   0.41601   0.47736   0.00000  Uiso   1.00
C49    C     0.04690   0.44707   0.49232   0.00000  Uiso   1.00
C50    C     0.04063   0.46362   0.62367   0.00000  Uiso   1.00
C51    C     0.05146   0.50051   0.81501   0.00000  Uiso   1.00
C52    C     0.03230   0.35793   0.38868   0.00000  Uiso   1.00
C53    C     0.10249   0.34016   0.32906   0.00000  Uiso   1.00
C54    C     0.12164   0.30782   0.38575   0.00000  Uiso   1.00
C55    C     0.17933   0.25453   0.43935   0.00000  Uiso   1.00
C56    C     0.90332   0.38921   0.30504   0.00000  Uiso   1.00
C57    C     0.86506   0.39773   0.17508   0.00000  Uiso   1.00
C58    C     0.77561   0.39171   0.16133   0.00000  Uiso   1.00
C59    C     0.63303   0.38699   0.08506   0.00000  Uiso   1.00
C60    C     0.90918   0.36778   0.54981   0.00000  Uiso   1.00
C61    C     0.95278   0.40197   0.58961   0.00000  Uiso   1.00
C62    C     0.94644   0.41848   0.72097   0.00000  Uiso   1.00
C63    C     0.99123   0.44956   0.73612   0.00000  Uiso   1.00
C64    C     0.98299   0.34389   0.50093   0.00000  Uiso   1.00
C65    C     0.00204   0.31157   0.55771   0.00000  Uiso   1.00
C66    C     0.07224   0.29376   0.49820   0.00000  Uiso   1.00
C67    C     0.85400   0.37517   0.41729   0.00000  Uiso   1.00
C68    C     0.76460   0.36914   0.40373   0.00000  Uiso   1.00
C69    C     0.72621   0.37765   0.27378   0.00000  Uiso   1.00
H70    H     0.03838   0.40454   0.25576   0.00000  Uiso   1.00
H71    H     0.08506   0.45792   0.40543   0.00000  Uiso   1.00
H72    H     0.14064   0.35102   0.24219   0.00000  Uiso   1.00
H73    H     0.90324   0.40859   0.08824   0.00000  Uiso   1.00
H74    H     0.11510   0.51090   0.62089   0.00000  Uiso   1.00
H75    H     0.23227   0.28550   0.27666   0.00000  Uiso   1.00
H76    H     0.73167   0.40688   0.95201   0.00000  Uiso   1.00
H77    H     0.87079   0.35685   0.63721   0.00000  Uiso   1.00
H78    H     0.90828   0.40761   0.80782   0.00000  Uiso   1.00
H79    H     0.96386   0.30072   0.64457   0.00000  Uiso   1.00
H80    H     0.72646   0.35828   0.49062   0.00000  Uiso   1.00
H81    H     0.97162   0.47007   0.94748   0.00000  Uiso   1.00
H82    H     0.08879   0.24467   0.60324   0.00000  Uiso   1.00
H83    H     0.58819   0.36605   0.27860   0.00000  Uiso   1.00
O84    O     0.07107   0.52473   0.88955   0.00000  Uiso   1.00
O85    O     0.22478   0.22902   0.43790   0.00000  Uiso   1.00
O86    O     0.56800   0.38826   0.01198   0.00000  Uiso   1.00
N87    N     0.07617   0.49433   0.67433   0.00000  Uiso   1.00
N88    N     0.18573   0.28360   0.35251   0.00000  Uiso   1.00
N89    N     0.71771   0.39707   0.04898   0.00000  Uiso   1.00
N90    N     0.99897   0.47236   0.85007   0.00000  Uiso   1.00
N91    N     0.10852   0.26163   0.52824   0.00000  Uiso   1.00
N92    N     0.64051   0.37510   0.22471   0.00000  Uiso   1.00
C93    C     0.99998   0.10638   0.15685   0.00000  Uiso   1.00
C94    C     0.00210   0.08399   0.02264   0.00000  Uiso   1.00
C95    C     0.04690   0.05293   0.00768   0.00000  Uiso   1.00
C96    C     0.04063   0.03638   0.87633   0.00000  Uiso   1.00
C97    C     0.05146   0.99949   0.68499   0.00000  Uiso   1.00
C98    C     0.03230   0.14207   0.11132   0.00000  Uiso   1.00
C99    C     0.10249   0.15984   0.17094   0.00000  Uiso   1.00
C100   C     0.12164   0.19218   0.11425   0.00000  Uiso   1.00
C101   C     0.17933   0.24547   0.06065   0.00000  Uiso   1.00
C102   C     0.90332   0.11079   0.19496   0.00000  Uiso   1.00
C103   C     0.86506   0.10227   0.32492   0.00000  Uiso   1.00
C104   C     0.77561   0.10829   0.33867   0.00000  Uiso   1.00
C105   C     0.63303   0.11301   0.41494   0.00000  Uiso   1.00
C106   C     0.90918   0.13222   0.95019   0.00000  Uiso   1.00
C107   C     0.95278   0.09803   0.91039   0.00000  Uiso   1.00
C108   C     0.94644   0.08152   0.77903   0.00000  Uiso   1.00
C109   C     0.99123   0.05044   0.76388   0.00000  Uiso   1.00
C110   C     0.98299   0.15611   0.99907   0.00000  Uiso   1.00
C111   C     0.00204   0.18843   0.94229   0.00000  Uiso   1.00
C112   C     0.07224   0.20624   0.00180   0.00000  Uiso   1.00
C113   C     0.85400   0.12483   0.08271   0.00000  Uiso   1.00
C114   C     0.76460   0.13086   0.09627   0.00000  Uiso   1.00
C115   C     0.72621   0.12235   0.22622   0.00000  Uiso   1.00
H116   H     0.03838   0.09546   0.24424   0.00000  Uiso   1.00
H117   H     0.08506   0.04208   0.09457   0.00000  Uiso   1.00
H118   H     0.14064   0.14898   0.25781   0.00000  Uiso   1.00
H119   H     0.90324   0.09141   0.41176   0.00000  Uiso   1.00
H120   H     0.11510   0.98910   0.87911   0.00000  Uiso   1.00
H121   H     0.23227   0.21450   0.22334   0.00000  Uiso   1.00
H122   H     0.73167   0.09312   0.54799   0.00000  Uiso   1.00
H123   H     0.87079   0.14315   0.86279   0.00000  Uiso   1.00
H124   H     0.90828   0.09239   0.69218   0.00000  Uiso   1.00
H125   H     0.96386   0.19928   0.85543   0.00000  Uiso   1.00
H126   H     0.72646   0.14172   0.00938   0.00000  Uiso   1.00
H127   H     0.97162   0.02993   0.55252   0.00000  Uiso   1.00
H128   H     0.08879   0.25533   0.89676   0.00000  Uiso   1.00
H129   H     0.58819   0.13395   0.22140   0.00000  Uiso   1.00
O130   O     0.07107   0.97527   0.61045   0.00000  Uiso   1.00
O131   O     0.22478   0.27098   0.06210   0.00000  Uiso   1.00
O132   O     0.56800   0.11174   0.48802   0.00000  Uiso   1.00
N133   N     0.07617   0.00567   0.82567   0.00000  Uiso   1.00
N134   N     0.18573   0.21640   0.14749   0.00000  Uiso   1.00
N135   N     0.71771   0.10293   0.45102   0.00000  Uiso   1.00
N136   N     0.99897   0.02764   0.64993   0.00000  Uiso   1.00
N137   N     0.10852   0.23837   0.97176   0.00000  Uiso   1.00
N138   N     0.64051   0.12490   0.27529   0.00000  Uiso   1.00
C139   C     0.50002   0.89362   0.15685   0.00000  Uiso   1.00
C140   C     0.49790   0.91601   0.02264   0.00000  Uiso   1.00
C141   C     0.45310   0.94707   0.00768   0.00000  Uiso   1.00
C142   C     0.45937   0.96362   0.87633   0.00000  Uiso   1.00
C143   C     0.44854   0.00051   0.68499   0.00000  Uiso   1.00
C144   C     0.46770   0.85793   0.11132   0.00000  Uiso   1.00
C145   C     0.39751   0.84016   0.17094   0.00000  Uiso   1.00
C146   C     0.37836   0.80782   0.11425   0.00000  Uiso   1.00
C147   C     0.32067   0.75453   0.06065   0.00000  Uiso   1.00
C148   C     0.59668   0.88921   0.19496   0.00000  Uiso   1.00
C149   C     0.63494   0.89773   0.32492   0.00000  Uiso   1.00
C150   C     0.72439   0.89171   0.33867   0.00000  Uiso   1.00
C151   C     0.86697   0.88699   0.41494   0.00000  Uiso   1.00
C152   C     0.59082   0.86778   0.95019   0.00000  Uiso   1.00
C153   C     0.54722   0.90197   0.91039   0.00000  Uiso   1.00
C154   C     0.55356   0.91848   0.77903   0.00000  Uiso   1.00
C155   C     0.50877   0.94956   0.76388   0.00000  Uiso   1.00
C156   C     0.51701   0.84389   0.99907   0.00000  Uiso   1.00
C157   C     0.49796   0.81157   0.94229   0.00000  Uiso   1.00
C158   C     0.42776   0.79376   0.00180   0.00000  Uiso   1.00
C159   C     0.64600   0.87517   0.08271   0.00000  Uiso   1.00
C160   C     0.73540   0.86914   0.09627   0.00000  Uiso   1.00
C161   C     0.77379   0.87765   0.22622   0.00000  Uiso   1.00
H162   H     0.46162   0.90454   0.24424   0.00000  Uiso   1.00
H163   H     0.41494   0.95792   0.09457   0.00000  Uiso   1.00
H164   H     0.35936   0.85102   0.25781   0.00000  Uiso   1.00
H165   H     0.59676   0.90859   0.41176   0.00000  Uiso   1.00
H166   H     0.38490   0.01090   0.87911   0.00000  Uiso   1.00
H167   H     0.26773   0.78550   0.22334   0.00000  Uiso   1.00
H168   H     0.76833   0.90688   0.54799   0.00000  Uiso   1.00
H169   H     0.62921   0.85685   0.86279   0.00000  Uiso   1.00
H170   H     0.59172   0.90761   0.69218   0.00000  Uiso   1.00
H171   H     0.53614   0.80072   0.85543   0.00000  Uiso   1.00
H172   H     0.77354   0.85828   0.00938   0.00000  Uiso   1.00
H173   H     0.52838   0.97007   0.55252   0.00000  Uiso   1.00
H174   H     0.41121   0.74467   0.89676   0.00000  Uiso   1.00
H175   H     0.91181   0.86605   0.22140   0.00000  Uiso   1.00
O176   O     0.42893   0.02473   0.61045   0.00000  Uiso   1.00
O177   O     0.27522   0.72902   0.06210   0.00000  Uiso   1.00
O178   O     0.93200   0.88826   0.48802   0.00000  Uiso   1.00
N179   N     0.42383   0.99433   0.82567   0.00000  Uiso   1.00
N180   N     0.31427   0.78360   0.14749   0.00000  Uiso   1.00
N181   N     0.78229   0.89707   0.45102   0.00000  Uiso   1.00
N182   N     0.50103   0.97236   0.64993   0.00000  Uiso   1.00
N183   N     0.39148   0.76163   0.97176   0.00000  Uiso   1.00
N184   N     0.85949   0.87510   0.27529   0.00000  Uiso   1.00
C185   C     0.49998   0.39362   0.65685   0.00000  Uiso   1.00
C186   C     0.50210   0.41601   0.52264   0.00000  Uiso   1.00
C187   C     0.54690   0.44707   0.50768   0.00000  Uiso   1.00
C188   C     0.54063   0.46362   0.37633   0.00000  Uiso   1.00
C189   C     0.55146   0.50051   0.18499   0.00000  Uiso   1.00
C190   C     0.53230   0.35793   0.61132   0.00000  Uiso   1.00
C191   C     0.60249   0.34016   0.67094   0.00000  Uiso   1.00
C192   C     0.62164   0.30782   0.61425   0.00000  Uiso   1.00
C193   C     0.67933   0.25453   0.56065   0.00000  Uiso   1.00
C194   C     0.40332   0.38921   0.69496   0.00000  Uiso   1.00
C195   C     0.36506   0.39773   0.82492   0.00000  Uiso   1.00
C196   C     0.27561   0.39171   0.83867   0.00000  Uiso   1.00
C197   C     0.13303   0.38699   0.91494   0.00000  Uiso   1.00
C198   C     0.40918   0.36778   0.45019   0.00000  Uiso   1.00
C199   C     0.45278   0.40197   0.41039   0.00000  Uiso   1.00
C200   C     0.44644   0.41848   0.27903   0.00000  Uiso   1.00
C201   C     0.49123   0.44956   0.26388   0.00000  Uiso   1.00
C202   C     0.48299   0.34389   0.49907   0.00000  Uiso   1.00
C203   C     0.50204   0.31157   0.44229   0.00000  Uiso   1.00
C204   C     0.57224   0.29376   0.50180   0.00000  Uiso   1.00
C205   C     0.35400   0.37517   0.58271   0.00000  Uiso   1.00
C206   C     0.26460   0.36914   0.59627   0.00000  Uiso   1.00
C207   C     0.22621   0.37765   0.72622   0.00000  Uiso   1.00
H208   H     0.53838   0.40454   0.74424   0.00000  Uiso   1.00
H209   H     0.58506   0.45792   0.59457   0.00000  Uiso   1.00
H210   H     0.64064   0.35102   0.75781   0.00000  Uiso   1.00
H211   H     0.40324   0.40859   0.91176   0.00000  Uiso   1.00
H212   H     0.61510   0.51090   0.37911   0.00000  Uiso   1.00
H213   H     0.73227   0.28550   0.72334   0.00000  Uiso   1.00
H214   H     0.23167   0.40688   0.04799   0.00000  Uiso   1.00
H215   H     0.37079   0.35685   0.36279   0.00000  Uiso   1.00
H216   H     0.40828   0.40761   0.19218   0.00000  Uiso   1.00
H217   H     0.46386   0.30072   0.35543   0.00000  Uiso   1.00
H218   H     0.22646   0.35828   0.50938   0.00000  Uiso   1.00
H219   H     0.47162   0.47007   0.05252   0.00000  Uiso   1.00
H220   H     0.58879   0.24467   0.39676   0.00000  Uiso   1.00
H221   H     0.08819   0.36605   0.72140   0.00000  Uiso   1.00
O222   O     0.57107   0.52473   0.11045   0.00000  Uiso   1.00
O223   O     0.72478   0.22902   0.56210   0.00000  Uiso   1.00
O224   O     0.06800   0.38826   0.98802   0.00000  Uiso   1.00
N225   N     0.57617   0.49433   0.32567   0.00000  Uiso   1.00
N226   N     0.68573   0.28360   0.64749   0.00000  Uiso   1.00
N227   N     0.21771   0.39707   0.95102   0.00000  Uiso   1.00
N228   N     0.49897   0.47236   0.14993   0.00000  Uiso   1.00
N229   N     0.60852   0.26163   0.47176   0.00000  Uiso   1.00
N230   N     0.14051   0.37510   0.77529   0.00000  Uiso   1.00
C231   C     0.00002   0.60638   0.65685   0.00000  Uiso   1.00
C232   C     0.99790   0.58399   0.52264   0.00000  Uiso   1.00
C233   C     0.95310   0.55293   0.50768   0.00000  Uiso   1.00
C234   C     0.95937   0.53638   0.37633   0.00000  Uiso   1.00
C235   C     0.94854   0.49949   0.18499   0.00000  Uiso   1.00
C236   C     0.96770   0.64207   0.61132   0.00000  Uiso   1.00
C237   C     0.89751   0.65984   0.67094   0.00000  Uiso   1.00
C238   C     0.87836   0.69218   0.61425   0.00000  Uiso   1.00
C239   C     0.82067   0.74547   0.56065   0.00000  Uiso   1.00
C240   C     0.09668   0.61079   0.69496   0.00000  Uiso   1.00
C241   C     0.13494   0.60227   0.82492   0.00000  Uiso   1.00
C242   C     0.22439   0.60829   0.83867   0.00000  Uiso   1.00
C243   C     0.36697   0.61301   0.91494   0.00000  Uiso   1.00
C244   C     0.09082   0.63222   0.45019   0.00000  Uiso   1.00
C245   C     0.04722   0.59803   0.41039   0.00000  Uiso   1.00
C246   C     0.05356   0.58152   0.27903   0.00000  Uiso   1.00
C247   C     0.00877   0.55044   0.26388   0.00000  Uiso   1.00
C248   C     0.01701   0.65611   0.49907   0.00000  Uiso   1.00
C249   C     0.99796   0.68843   0.44229   0.00000  Uiso   1.00
C250   C     0.92776   0.70624   0.50180   0.00000  Uiso   1.00
C251   C     0.14600   0.62483   0.58271   0.00000  Uiso   1.00
C252   C     0.23540   0.63086   0.59627   0.00000  Uiso   1.00
C253   C     0.27379   0.62235   0.72622   0.00000  Uiso   1.00
H254   H     0.96162   0.59546   0.74424   0.00000  Uiso   1.00
H255   H     0.91494   0.54208   0.59457   0.00000  Uiso   1.00
H256   H     0.85936   0.64898   0.75781   0.00000  Uiso   1.00
H257   H     0.09676   0.59141   0.91176   0.00000  Uiso   1.00
H258   H     0.88490   0.48910   0.37911   0.00000  Uiso   1.00
H259   H     0.76773   0.71450   0.72334   0.00000  Uiso   1.00
H260   H     0.26833   0.59312   0.04799   0.00000  Uiso   1.00
H261   H     0.12921   0.64315   0.36279   0.00000  Uiso   1.00
H262   H     0.09172   0.59239   0.19218   0.00000  Uiso   1.00
H263   H     0.03614   0.69928   0.35543   0.00000  Uiso   1.00
H264   H     0.27354   0.64172   0.50938   0.00000  Uiso   1.00
H265   H     0.02838   0.52993   0.05252   0.00000  Uiso   1.00
H266   H     0.91121   0.75533   0.39676   0.00000  Uiso   1.00
H267   H     0.41181   0.63395   0.72140   0.00000  Uiso   1.00
O268   O     0.92893   0.47527   0.11045   0.00000  Uiso   1.00
O269   O     0.77522   0.77098   0.56210   0.00000  Uiso   1.00
O270   O     0.43200   0.61174   0.98802   0.00000  Uiso   1.00
N271   N     0.92383   0.50567   0.32567   0.00000  Uiso   1.00
N272   N     0.81427   0.71640   0.64749   0.00000  Uiso   1.00
N273   N     0.28229   0.60293   0.95102   0.00000  Uiso   1.00
N274   N     0.00103   0.52764   0.14993   0.00000  Uiso   1.00
N275   N     0.89148   0.73837   0.47176   0.00000  Uiso   1.00
N276   N     0.35949   0.62490   0.77529   0.00000  Uiso   1.00
C277   C     0.00002   0.89362   0.84315   0.00000  Uiso   1.00
C278   C     0.99790   0.91601   0.97736   0.00000  Uiso   1.00
C279   C     0.95310   0.94707   0.99232   0.00000  Uiso   1.00
C280   C     0.95937   0.96362   0.12367   0.00000  Uiso   1.00
C281   C     0.94854   0.00051   0.31501   0.00000  Uiso   1.00
C282   C     0.96770   0.85793   0.88868   0.00000  Uiso   1.00
C283   C     0.89751   0.84016   0.82906   0.00000  Uiso   1.00
C284   C     0.87836   0.80782   0.88575   0.00000  Uiso   1.00
C285   C     0.82067   0.75453   0.93935   0.00000  Uiso   1.00
C286   C     0.09668   0.88921   0.80504   0.00000  Uiso   1.00
C287   C     0.13494   0.89773   0.67508   0.00000  Uiso   1.00
C288   C     0.22439   0.89171   0.66133   0.00000  Uiso   1.00
C289   C     0.36697   0.88699   0.58506   0.00000  Uiso   1.00
C290   C     0.09082   0.86778   0.04981   0.00000  Uiso   1.00
C291   C     0.04722   0.90197   0.08961   0.00000  Uiso   1.00
C292   C     0.05356   0.91848   0.22097   0.00000  Uiso   1.00
C293   C     0.00877   0.94956   0.23612   0.00000  Uiso   1.00
C294   C     0.01701   0.84389   0.00093   0.00000  Uiso   1.00
C295   C     0.99796   0.81157   0.05771   0.00000  Uiso   1.00
C296   C     0.92776   0.79376   0.99820   0.00000  Uiso   1.00
C297   C     0.14600   0.87517   0.91729   0.00000  Uiso   1.00
C298   C     0.23540   0.86914   0.90373   0.00000  Uiso   1.00
C299   C     0.27379   0.87765   0.77378   0.00000  Uiso   1.00
H300   H     0.96162   0.90454   0.75576   0.00000  Uiso   1.00
H301   H     0.91494   0.95792   0.90543   0.00000  Uiso   1.00
H302   H     0.85936   0.85102   0.74219   0.00000  Uiso   1.00
H303   H     0.09676   0.90859   0.58824   0.00000  Uiso   1.00
H304   H     0.88490   0.01090   0.12089   0.00000  Uiso   1.00
H305   H     0.76773   0.78550   0.77666   0.00000  Uiso   1.00
H306   H     0.26833   0.90688   0.45201   0.00000  Uiso   1.00
H307   H     0.12921   0.85685   0.13721   0.00000  Uiso   1.00
H308   H     0.09172   0.90761   0.30782   0.00000  Uiso   1.00
H309   H     0.03614   0.80072   0.14457   0.00000  Uiso   1.00
H310   H     0.27354   0.85828   0.99062   0.00000  Uiso   1.00
H311   H     0.02838   0.97007   0.44748   0.00000  Uiso   1.00
H312   H     0.91121   0.74467   0.10324   0.00000  Uiso   1.00
H313   H     0.41181   0.86605   0.77860   0.00000  Uiso   1.00
O314   O     0.92893   0.02473   0.38955   0.00000  Uiso   1.00
O315   O     0.77522   0.72902   0.93790   0.00000  Uiso   1.00
O316   O     0.43200   0.88826   0.51198   0.00000  Uiso   1.00
N317   N     0.92383   0.99433   0.17433   0.00000  Uiso   1.00
N318   N     0.81427   0.78360   0.85251   0.00000  Uiso   1.00
N319   N     0.28229   0.89707   0.54898   0.00000  Uiso   1.00
N320   N     0.00103   0.97236   0.35007   0.00000  Uiso   1.00
N321   N     0.89148   0.76163   0.02824   0.00000  Uiso   1.00
N322   N     0.35949   0.87510   0.72471   0.00000  Uiso   1.00
C323   C     0.49998   0.10638   0.84315   0.00000  Uiso   1.00
C324   C     0.50210   0.08399   0.97736   0.00000  Uiso   1.00
C325   C     0.54690   0.05293   0.99232   0.00000  Uiso   1.00
C326   C     0.54063   0.03638   0.12367   0.00000  Uiso   1.00
C327   C     0.55146   0.99949   0.31501   0.00000  Uiso   1.00
C328   C     0.53230   0.14207   0.88868   0.00000  Uiso   1.00
C329   C     0.60249   0.15984   0.82906   0.00000  Uiso   1.00
C330   C     0.62164   0.19218   0.88575   0.00000  Uiso   1.00
C331   C     0.67933   0.24547   0.93935   0.00000  Uiso   1.00
C332   C     0.40332   0.11079   0.80504   0.00000  Uiso   1.00
C333   C     0.36506   0.10227   0.67508   0.00000  Uiso   1.00
C334   C     0.27561   0.10829   0.66133   0.00000  Uiso   1.00
C335   C     0.13303   0.11301   0.58506   0.00000  Uiso   1.00
C336   C     0.40918   0.13222   0.04981   0.00000  Uiso   1.00
C337   C     0.45278   0.09803   0.08961   0.00000  Uiso   1.00
C338   C     0.44644   0.08152   0.22097   0.00000  Uiso   1.00
C339   C     0.49123   0.05044   0.23612   0.00000  Uiso   1.00
C340   C     0.48299   0.15611   0.00093   0.00000  Uiso   1.00
C341   C     0.50204   0.18843   0.05771   0.00000  Uiso   1.00
C342   C     0.57224   0.20624   0.99820   0.00000  Uiso   1.00
C343   C     0.35400   0.12483   0.91729   0.00000  Uiso   1.00
C344   C     0.26460   0.13086   0.90373   0.00000  Uiso   1.00
C345   C     0.22621   0.12235   0.77378   0.00000  Uiso   1.00
H346   H     0.53838   0.09546   0.75576   0.00000  Uiso   1.00
H347   H     0.58506   0.04208   0.90543   0.00000  Uiso   1.00
H348   H     0.64064   0.14898   0.74219   0.00000  Uiso   1.00
H349   H     0.40324   0.09141   0.58824   0.00000  Uiso   1.00
H350   H     0.61510   0.98910   0.12089   0.00000  Uiso   1.00
H351   H     0.73227   0.21450   0.77666   0.00000  Uiso   1.00
H352   H     0.23167   0.09312   0.45201   0.00000  Uiso   1.00
H353   H     0.37079   0.14315   0.13721   0.00000  Uiso   1.00
H354   H     0.40828   0.09239   0.30782   0.00000  Uiso   1.00
H355   H     0.46386   0.19928   0.14457   0.00000  Uiso   1.00
H356   H     0.22646   0.14172   0.99062   0.00000  Uiso   1.00
H357   H     0.47162   0.02993   0.44748   0.00000  Uiso   1.00
H358   H     0.58879   0.25533   0.10324   0.00000  Uiso   1.00
H359   H     0.08819   0.13395   0.77860   0.00000  Uiso   1.00
O360   O     0.57107   0.97527   0.38955   0.00000  Uiso   1.00
O361   O     0.72478   0.27098   0.93790   0.00000  Uiso   1.00
O362   O     0.06800   0.11174   0.51198   0.00000  Uiso   1.00
N363   N     0.57617   0.00567   0.17433   0.00000  Uiso   1.00
N364   N     0.68573   0.21640   0.85251   0.00000  Uiso   1.00
N365   N     0.21771   0.10293   0.54898   0.00000  Uiso   1.00
N366   N     0.49897   0.02764   0.35007   0.00000  Uiso   1.00
N367   N     0.60852   0.23837   0.02824   0.00000  Uiso   1.00
N368   N     0.14051   0.12490   0.72471   0.00000  Uiso   1.00
