data_job_04778
_audit_creation_date              2018-12-19
_audit_creation_method            'Materials Studio'
_symmetry_space_group_name_H-M    'P1'
_symmetry_Int_Tables_number       1
_symmetry_cell_setting            triclinic
loop_
_symmetry_equiv_pos_as_xyz
  x,y,z
_cell_length_a                    27.5522
_cell_length_b                    18.1229
_cell_length_c                    11.0200
_cell_angle_alpha                 90.0000
_cell_angle_beta                  90.0000
_cell_angle_gamma                 90.0000
loop_
_atom_site_label
_atom_site_type_symbol
_atom_site_fract_x
_atom_site_fract_y
_atom_site_fract_z
_atom_site_U_iso_or_equiv
_atom_site_adp_type
_atom_site_occupancy
C1     C     0.63569   0.28285   0.24037   0.00000  Uiso   1.00
C2     C     0.58106   0.27040   0.23192   0.00000  Uiso   1.00
C3     C     0.54801   0.31725   0.17628   0.00000  Uiso   1.00
C4     C     0.49960   0.29604   0.17829   0.00000  Uiso   1.00
C5     C     0.41701   0.28672   0.15675   0.00000  Uiso   1.00
C6     C     0.64808   0.28042   0.37518   0.00000  Uiso   1.00
C7     C     0.67140   0.33569   0.43998   0.00000  Uiso   1.00
C8     C     0.67941   0.32290   0.56258   0.00000  Uiso   1.00
C9     C     0.70091   0.32912   0.76343   0.00000  Uiso   1.00
C10    C     0.65928   0.21480   0.18427   0.00000  Uiso   1.00
C11    C     0.69202   0.21491   0.08857   0.00000  Uiso   1.00
C12    C     0.70947   0.14688   0.05046   0.00000  Uiso   1.00
C13    C     0.74836   0.05122   0.95490   0.00000  Uiso   1.00
C14    C     0.60847   0.16184   0.34288   0.00000  Uiso   1.00
C15    C     0.56627   0.20467   0.28761   0.00000  Uiso   1.00
C16    C     0.51790   0.18337   0.28969   0.00000  Uiso   1.00
C17    C     0.48479   0.23019   0.23406   0.00000  Uiso   1.00
C18    C     0.63330   0.21469   0.43086   0.00000  Uiso   1.00
C19    C     0.64128   0.20181   0.55339   0.00000  Uiso   1.00
C20    C     0.66460   0.25706   0.61835   0.00000  Uiso   1.00
C21    C     0.64449   0.14908   0.23995   0.00000  Uiso   1.00
C22    C     0.66190   0.08103   0.20198   0.00000  Uiso   1.00
C23    C     0.69466   0.08103   0.10624   0.00000  Uiso   1.00
H24    H     0.64720   0.33402   0.19704   0.00000  Uiso   1.00
H25    H     0.55947   0.36812   0.13322   0.00000  Uiso   1.00
H26    H     0.68284   0.38655   0.39686   0.00000  Uiso   1.00
H27    H     0.70345   0.26578   0.04551   0.00000  Uiso   1.00
H28    H     0.45568   0.37695   0.08705   0.00000  Uiso   1.00
H29    H     0.71582   0.41580   0.64296   0.00000  Uiso   1.00
H30    H     0.75930   0.16115   0.90207   0.00000  Uiso   1.00
H31    H     0.59696   0.11067   0.38623   0.00000  Uiso   1.00
H32    H     0.50647   0.13251   0.33279   0.00000  Uiso   1.00
H33    H     0.62984   0.15094   0.59644   0.00000  Uiso   1.00
H34    H     0.65045   0.03018   0.24509   0.00000  Uiso   1.00
H35    H     0.41266   0.18572   0.24904   0.00000  Uiso   1.00
H36    H     0.67281   0.22458   0.80495   0.00000  Uiso   1.00
H37    H     0.71628   0.96992   0.06405   0.00000  Uiso   1.00
O38    O     0.37554   0.29975   0.12951   0.00000  Uiso   1.00
O39    O     0.71685   0.35072   0.85883   0.00000  Uiso   1.00
O40    O     0.77389   0.01661   0.88680   0.00000  Uiso   1.00
N41    N     0.45797   0.32894   0.13249   0.00000  Uiso   1.00
N42    N     0.70119   0.36527   0.65224   0.00000  Uiso   1.00
N43    N     0.74184   0.12719   0.95958   0.00000  Uiso   1.00
N44    N     0.43482   0.22604   0.21965   0.00000  Uiso   1.00
N45    N     0.67804   0.26237   0.73940   0.00000  Uiso   1.00
N46    N     0.71870   0.02429   0.04674   0.00000  Uiso   1.00
C47    C     0.35504   0.40153   0.77195   0.00000  Uiso   1.00
C48    C     0.40960   0.39085   0.78709   0.00000  Uiso   1.00
C49    C     0.44046   0.43684   0.85181   0.00000  Uiso   1.00
C50    C     0.48921   0.41756   0.85479   0.00000  Uiso   1.00
C51    C     0.57132   0.41059   0.88731   0.00000  Uiso   1.00
C52    C     0.34575   0.40353   0.63557   0.00000  Uiso   1.00
C53    C     0.32292   0.46017   0.57291   0.00000  Uiso   1.00
C54    C     0.31792   0.45155   0.44834   0.00000  Uiso   1.00
C55    C     0.30087   0.46424   0.24565   0.00000  Uiso   1.00
C56    C     0.33149   0.33070   0.81794   0.00000  Uiso   1.00
C57    C     0.29665   0.32610   0.90858   0.00000  Uiso   1.00
C58    C     0.27964   0.25617   0.93753   0.00000  Uiso   1.00
C59    C     0.24044   0.15578   0.01799   0.00000  Uiso   1.00
C60    C     0.38675   0.28552   0.66215   0.00000  Uiso   1.00
C61    C     0.42683   0.32784   0.72745   0.00000  Uiso   1.00
C62    C     0.47555   0.30848   0.73033   0.00000  Uiso   1.00
C63    C     0.50647   0.35443   0.79505   0.00000  Uiso   1.00
C64    C     0.36298   0.34052   0.57593   0.00000  Uiso   1.00
C65    C     0.35801   0.33181   0.45143   0.00000  Uiso   1.00
C66    C     0.33518   0.38842   0.38859   0.00000  Uiso   1.00
C67    C     0.34871   0.26769   0.75830   0.00000  Uiso   1.00
C68    C     0.33174   0.19775   0.78711   0.00000  Uiso   1.00
C69    C     0.29689   0.19305   0.87779   0.00000  Uiso   1.00
H70    H     0.34162   0.45059   0.81837   0.00000  Uiso   1.00
H71    H     0.42712   0.48560   0.89794   0.00000  Uiso   1.00
H72    H     0.30959   0.50892   0.61908   0.00000  Uiso   1.00
H73    H     0.28333   0.37488   0.95471   0.00000  Uiso   1.00
H74    H     0.52950   0.49664   0.95982   0.00000  Uiso   1.00
H75    H     0.28167   0.54580   0.37184   0.00000  Uiso   1.00
H76    H     0.22630   0.26315   0.07958   0.00000  Uiso   1.00
H77    H     0.40016   0.23646   0.61572   0.00000  Uiso   1.00
H78    H     0.48887   0.25972   0.68417   0.00000  Uiso   1.00
H79    H     0.37134   0.28304   0.40531   0.00000  Uiso   1.00
H80    H     0.34508   0.14900   0.74094   0.00000  Uiso   1.00
H81    H     0.57962   0.31331   0.78631   0.00000  Uiso   1.00
H82    H     0.33179   0.36247   0.19833   0.00000  Uiso   1.00
H83    H     0.27642   0.07982   0.90607   0.00000  Uiso   1.00
O84    O     0.61186   0.42416   0.92171   0.00000  Uiso   1.00
O85    O     0.28671   0.48865   0.15032   0.00000  Uiso   1.00
O86    O     0.21407   0.11782   0.07886   0.00000  Uiso   1.00
N87    N     0.52912   0.45030   0.90961   0.00000  Uiso   1.00
N88    N     0.29742   0.49626   0.35988   0.00000  Uiso   1.00
N89    N     0.24564   0.23201   0.02153   0.00000  Uiso   1.00
N90    N     0.55609   0.35165   0.81625   0.00000  Uiso   1.00
N91    N     0.32439   0.39762   0.26652   0.00000  Uiso   1.00
N92    N     0.27261   0.13336   0.92817   0.00000  Uiso   1.00
C93    C     0.36431   0.71715   0.74037   0.00000  Uiso   1.00
C94    C     0.41894   0.72960   0.73192   0.00000  Uiso   1.00
C95    C     0.45199   0.68275   0.67628   0.00000  Uiso   1.00
C96    C     0.50040   0.70396   0.67829   0.00000  Uiso   1.00
C97    C     0.58299   0.71328   0.65675   0.00000  Uiso   1.00
C98    C     0.35192   0.71958   0.87518   0.00000  Uiso   1.00
C99    C     0.32860   0.66431   0.93998   0.00000  Uiso   1.00
C100   C     0.32059   0.67710   0.06258   0.00000  Uiso   1.00
C101   C     0.29909   0.67088   0.26343   0.00000  Uiso   1.00
C102   C     0.34072   0.78520   0.68427   0.00000  Uiso   1.00
C103   C     0.30798   0.78509   0.58857   0.00000  Uiso   1.00
C104   C     0.29053   0.85312   0.55046   0.00000  Uiso   1.00
C105   C     0.25164   0.94878   0.45490   0.00000  Uiso   1.00
C106   C     0.39153   0.83816   0.84288   0.00000  Uiso   1.00
C107   C     0.43373   0.79533   0.78761   0.00000  Uiso   1.00
C108   C     0.48210   0.81663   0.78969   0.00000  Uiso   1.00
C109   C     0.51521   0.76981   0.73406   0.00000  Uiso   1.00
C110   C     0.36670   0.78531   0.93086   0.00000  Uiso   1.00
C111   C     0.35872   0.79819   0.05339   0.00000  Uiso   1.00
C112   C     0.33540   0.74294   0.11835   0.00000  Uiso   1.00
C113   C     0.35551   0.85092   0.73995   0.00000  Uiso   1.00
C114   C     0.33810   0.91897   0.70198   0.00000  Uiso   1.00
C115   C     0.30534   0.91897   0.60624   0.00000  Uiso   1.00
H116   H     0.35280   0.66598   0.69704   0.00000  Uiso   1.00
H117   H     0.44053   0.63188   0.63322   0.00000  Uiso   1.00
H118   H     0.31716   0.61345   0.89686   0.00000  Uiso   1.00
H119   H     0.29655   0.73422   0.54551   0.00000  Uiso   1.00
H120   H     0.54432   0.62305   0.58705   0.00000  Uiso   1.00
H121   H     0.28418   0.58420   0.14296   0.00000  Uiso   1.00
H122   H     0.24070   0.83885   0.40207   0.00000  Uiso   1.00
H123   H     0.40304   0.88933   0.88623   0.00000  Uiso   1.00
H124   H     0.49353   0.86749   0.83279   0.00000  Uiso   1.00
H125   H     0.37016   0.84906   0.09644   0.00000  Uiso   1.00
H126   H     0.34955   0.96982   0.74509   0.00000  Uiso   1.00
H127   H     0.58734   0.81428   0.74904   0.00000  Uiso   1.00
H128   H     0.32719   0.77542   0.30495   0.00000  Uiso   1.00
H129   H     0.28372   0.03008   0.56405   0.00000  Uiso   1.00
O130   O     0.62446   0.70025   0.62951   0.00000  Uiso   1.00
O131   O     0.28315   0.64928   0.35883   0.00000  Uiso   1.00
O132   O     0.22611   0.98339   0.38680   0.00000  Uiso   1.00
N133   N     0.54203   0.67106   0.63249   0.00000  Uiso   1.00
N134   N     0.29881   0.63473   0.15224   0.00000  Uiso   1.00
N135   N     0.25816   0.87281   0.45958   0.00000  Uiso   1.00
N136   N     0.56518   0.77396   0.71965   0.00000  Uiso   1.00
N137   N     0.32196   0.73763   0.23940   0.00000  Uiso   1.00
N138   N     0.28130   0.97571   0.54674   0.00000  Uiso   1.00
C139   C     0.64496   0.59847   0.27195   0.00000  Uiso   1.00
C140   C     0.59040   0.60915   0.28709   0.00000  Uiso   1.00
C141   C     0.55954   0.56316   0.35181   0.00000  Uiso   1.00
C142   C     0.51079   0.58244   0.35479   0.00000  Uiso   1.00
C143   C     0.42868   0.58941   0.38731   0.00000  Uiso   1.00
C144   C     0.65425   0.59647   0.13557   0.00000  Uiso   1.00
C145   C     0.67708   0.53983   0.07291   0.00000  Uiso   1.00
C146   C     0.68208   0.54845   0.94834   0.00000  Uiso   1.00
C147   C     0.69913   0.53576   0.74565   0.00000  Uiso   1.00
C148   C     0.66851   0.66930   0.31794   0.00000  Uiso   1.00
C149   C     0.70335   0.67390   0.40858   0.00000  Uiso   1.00
C150   C     0.72036   0.74383   0.43753   0.00000  Uiso   1.00
C151   C     0.75956   0.84422   0.51799   0.00000  Uiso   1.00
C152   C     0.61325   0.71448   0.16215   0.00000  Uiso   1.00
C153   C     0.57317   0.67216   0.22745   0.00000  Uiso   1.00
C154   C     0.52445   0.69152   0.23033   0.00000  Uiso   1.00
C155   C     0.49353   0.64557   0.29505   0.00000  Uiso   1.00
C156   C     0.63702   0.65948   0.07593   0.00000  Uiso   1.00
C157   C     0.64199   0.66819   0.95143   0.00000  Uiso   1.00
C158   C     0.66482   0.61158   0.88859   0.00000  Uiso   1.00
C159   C     0.65129   0.73231   0.25830   0.00000  Uiso   1.00
C160   C     0.66826   0.80225   0.28711   0.00000  Uiso   1.00
C161   C     0.70311   0.80695   0.37779   0.00000  Uiso   1.00
H162   H     0.65838   0.54941   0.31837   0.00000  Uiso   1.00
H163   H     0.57288   0.51440   0.39794   0.00000  Uiso   1.00
H164   H     0.69041   0.49108   0.11908   0.00000  Uiso   1.00
H165   H     0.71667   0.62512   0.45471   0.00000  Uiso   1.00
H166   H     0.47050   0.50336   0.45982   0.00000  Uiso   1.00
H167   H     0.71833   0.45420   0.87184   0.00000  Uiso   1.00
H168   H     0.77370   0.73685   0.57958   0.00000  Uiso   1.00
H169   H     0.59984   0.76354   0.11572   0.00000  Uiso   1.00
H170   H     0.51113   0.74028   0.18417   0.00000  Uiso   1.00
H171   H     0.62866   0.71696   0.90531   0.00000  Uiso   1.00
H172   H     0.65492   0.85100   0.24094   0.00000  Uiso   1.00
H173   H     0.42038   0.68669   0.28631   0.00000  Uiso   1.00
H174   H     0.66821   0.63753   0.69833   0.00000  Uiso   1.00
H175   H     0.72358   0.92018   0.40607   0.00000  Uiso   1.00
O176   O     0.38814   0.57584   0.42171   0.00000  Uiso   1.00
O177   O     0.71329   0.51135   0.65032   0.00000  Uiso   1.00
O178   O     0.78593   0.88218   0.57886   0.00000  Uiso   1.00
N179   N     0.47088   0.54970   0.40961   0.00000  Uiso   1.00
N180   N     0.70258   0.50374   0.85988   0.00000  Uiso   1.00
N181   N     0.75436   0.76799   0.52153   0.00000  Uiso   1.00
N182   N     0.44391   0.64835   0.31625   0.00000  Uiso   1.00
N183   N     0.67561   0.60238   0.76652   0.00000  Uiso   1.00
N184   N     0.72739   0.86664   0.42817   0.00000  Uiso   1.00
C185   C     0.13569   0.71715   0.24037   0.00000  Uiso   1.00
C186   C     0.08106   0.72960   0.23192   0.00000  Uiso   1.00
C187   C     0.04801   0.68275   0.17628   0.00000  Uiso   1.00
C188   C     0.99960   0.70396   0.17829   0.00000  Uiso   1.00
C189   C     0.91701   0.71328   0.15675   0.00000  Uiso   1.00
C190   C     0.14808   0.71958   0.37518   0.00000  Uiso   1.00
C191   C     0.17140   0.66431   0.43998   0.00000  Uiso   1.00
C192   C     0.17941   0.67710   0.56258   0.00000  Uiso   1.00
C193   C     0.20091   0.67088   0.76343   0.00000  Uiso   1.00
C194   C     0.15928   0.78520   0.18427   0.00000  Uiso   1.00
C195   C     0.19202   0.78509   0.08857   0.00000  Uiso   1.00
C196   C     0.20947   0.85312   0.05046   0.00000  Uiso   1.00
C197   C     0.24836   0.94878   0.95490   0.00000  Uiso   1.00
C198   C     0.10847   0.83816   0.34288   0.00000  Uiso   1.00
C199   C     0.06627   0.79533   0.28761   0.00000  Uiso   1.00
C200   C     0.01790   0.81663   0.28969   0.00000  Uiso   1.00
C201   C     0.98479   0.76981   0.23406   0.00000  Uiso   1.00
C202   C     0.13330   0.78531   0.43086   0.00000  Uiso   1.00
C203   C     0.14128   0.79819   0.55339   0.00000  Uiso   1.00
C204   C     0.16460   0.74294   0.61835   0.00000  Uiso   1.00
C205   C     0.14449   0.85092   0.23995   0.00000  Uiso   1.00
C206   C     0.16190   0.91897   0.20198   0.00000  Uiso   1.00
C207   C     0.19466   0.91897   0.10624   0.00000  Uiso   1.00
H208   H     0.14720   0.66598   0.19704   0.00000  Uiso   1.00
H209   H     0.05947   0.63188   0.13322   0.00000  Uiso   1.00
H210   H     0.18284   0.61345   0.39686   0.00000  Uiso   1.00
H211   H     0.20345   0.73422   0.04551   0.00000  Uiso   1.00
H212   H     0.95568   0.62305   0.08705   0.00000  Uiso   1.00
H213   H     0.21582   0.58420   0.64296   0.00000  Uiso   1.00
H214   H     0.25930   0.83885   0.90207   0.00000  Uiso   1.00
H215   H     0.09696   0.88933   0.38623   0.00000  Uiso   1.00
H216   H     0.00647   0.86749   0.33279   0.00000  Uiso   1.00
H217   H     0.12984   0.84906   0.59644   0.00000  Uiso   1.00
H218   H     0.15045   0.96982   0.24509   0.00000  Uiso   1.00
H219   H     0.91266   0.81428   0.24904   0.00000  Uiso   1.00
H220   H     0.17281   0.77542   0.80495   0.00000  Uiso   1.00
H221   H     0.21628   0.03008   0.06405   0.00000  Uiso   1.00
O222   O     0.87554   0.70025   0.12951   0.00000  Uiso   1.00
O223   O     0.21685   0.64928   0.85883   0.00000  Uiso   1.00
O224   O     0.27389   0.98339   0.88680   0.00000  Uiso   1.00
N225   N     0.95797   0.67106   0.13249   0.00000  Uiso   1.00
N226   N     0.20119   0.63473   0.65224   0.00000  Uiso   1.00
N227   N     0.24184   0.87281   0.95958   0.00000  Uiso   1.00
N228   N     0.93482   0.77396   0.21965   0.00000  Uiso   1.00
N229   N     0.17804   0.73763   0.73940   0.00000  Uiso   1.00
N230   N     0.21870   0.97571   0.04674   0.00000  Uiso   1.00
C231   C     0.85504   0.59847   0.77195   0.00000  Uiso   1.00
C232   C     0.90960   0.60915   0.78709   0.00000  Uiso   1.00
C233   C     0.94046   0.56316   0.85181   0.00000  Uiso   1.00
C234   C     0.98921   0.58244   0.85479   0.00000  Uiso   1.00
C235   C     0.07132   0.58941   0.88731   0.00000  Uiso   1.00
C236   C     0.84575   0.59647   0.63557   0.00000  Uiso   1.00
C237   C     0.82292   0.53983   0.57291   0.00000  Uiso   1.00
C238   C     0.81792   0.54845   0.44834   0.00000  Uiso   1.00
C239   C     0.80087   0.53576   0.24565   0.00000  Uiso   1.00
C240   C     0.83149   0.66930   0.81794   0.00000  Uiso   1.00
C241   C     0.79665   0.67390   0.90858   0.00000  Uiso   1.00
C242   C     0.77964   0.74383   0.93753   0.00000  Uiso   1.00
C243   C     0.74044   0.84422   0.01799   0.00000  Uiso   1.00
C244   C     0.88675   0.71448   0.66215   0.00000  Uiso   1.00
C245   C     0.92683   0.67216   0.72745   0.00000  Uiso   1.00
C246   C     0.97555   0.69152   0.73033   0.00000  Uiso   1.00
C247   C     0.00647   0.64557   0.79505   0.00000  Uiso   1.00
C248   C     0.86298   0.65948   0.57593   0.00000  Uiso   1.00
C249   C     0.85801   0.66819   0.45143   0.00000  Uiso   1.00
C250   C     0.83518   0.61158   0.38859   0.00000  Uiso   1.00
C251   C     0.84871   0.73231   0.75830   0.00000  Uiso   1.00
C252   C     0.83174   0.80225   0.78711   0.00000  Uiso   1.00
C253   C     0.79689   0.80695   0.87779   0.00000  Uiso   1.00
H254   H     0.84162   0.54941   0.81837   0.00000  Uiso   1.00
H255   H     0.92712   0.51440   0.89794   0.00000  Uiso   1.00
H256   H     0.80959   0.49108   0.61908   0.00000  Uiso   1.00
H257   H     0.78333   0.62512   0.95471   0.00000  Uiso   1.00
H258   H     0.02950   0.50336   0.95982   0.00000  Uiso   1.00
H259   H     0.78167   0.45420   0.37184   0.00000  Uiso   1.00
H260   H     0.72630   0.73685   0.07958   0.00000  Uiso   1.00
H261   H     0.90016   0.76354   0.61572   0.00000  Uiso   1.00
H262   H     0.98887   0.74028   0.68417   0.00000  Uiso   1.00
H263   H     0.87134   0.71696   0.40531   0.00000  Uiso   1.00
H264   H     0.84508   0.85100   0.74094   0.00000  Uiso   1.00
H265   H     0.07962   0.68669   0.78631   0.00000  Uiso   1.00
H266   H     0.83179   0.63753   0.19833   0.00000  Uiso   1.00
H267   H     0.77642   0.92018   0.90607   0.00000  Uiso   1.00
O268   O     0.11186   0.57584   0.92171   0.00000  Uiso   1.00
O269   O     0.78671   0.51135   0.15032   0.00000  Uiso   1.00
O270   O     0.71407   0.88218   0.07886   0.00000  Uiso   1.00
N271   N     0.02912   0.54970   0.90961   0.00000  Uiso   1.00
N272   N     0.79742   0.50374   0.35988   0.00000  Uiso   1.00
N273   N     0.74564   0.76799   0.02153   0.00000  Uiso   1.00
N274   N     0.05609   0.64835   0.81625   0.00000  Uiso   1.00
N275   N     0.82439   0.60238   0.26652   0.00000  Uiso   1.00
N276   N     0.77261   0.86664   0.92817   0.00000  Uiso   1.00
C277   C     0.86431   0.28285   0.74037   0.00000  Uiso   1.00
C278   C     0.91894   0.27040   0.73192   0.00000  Uiso   1.00
C279   C     0.95199   0.31725   0.67628   0.00000  Uiso   1.00
C280   C     0.00040   0.29604   0.67829   0.00000  Uiso   1.00
C281   C     0.08299   0.28672   0.65675   0.00000  Uiso   1.00
C282   C     0.85192   0.28042   0.87518   0.00000  Uiso   1.00
C283   C     0.82860   0.33569   0.93998   0.00000  Uiso   1.00
C284   C     0.82059   0.32290   0.06258   0.00000  Uiso   1.00
C285   C     0.79909   0.32912   0.26343   0.00000  Uiso   1.00
C286   C     0.84072   0.21480   0.68427   0.00000  Uiso   1.00
C287   C     0.80798   0.21491   0.58857   0.00000  Uiso   1.00
C288   C     0.79053   0.14688   0.55046   0.00000  Uiso   1.00
C289   C     0.75164   0.05122   0.45490   0.00000  Uiso   1.00
C290   C     0.89153   0.16184   0.84288   0.00000  Uiso   1.00
C291   C     0.93373   0.20467   0.78761   0.00000  Uiso   1.00
C292   C     0.98210   0.18337   0.78969   0.00000  Uiso   1.00
C293   C     0.01521   0.23019   0.73406   0.00000  Uiso   1.00
C294   C     0.86670   0.21469   0.93086   0.00000  Uiso   1.00
C295   C     0.85872   0.20181   0.05339   0.00000  Uiso   1.00
C296   C     0.83540   0.25706   0.11835   0.00000  Uiso   1.00
C297   C     0.85551   0.14908   0.73995   0.00000  Uiso   1.00
C298   C     0.83810   0.08103   0.70198   0.00000  Uiso   1.00
C299   C     0.80534   0.08103   0.60624   0.00000  Uiso   1.00
H300   H     0.85280   0.33402   0.69704   0.00000  Uiso   1.00
H301   H     0.94053   0.36812   0.63322   0.00000  Uiso   1.00
H302   H     0.81716   0.38655   0.89686   0.00000  Uiso   1.00
H303   H     0.79655   0.26578   0.54551   0.00000  Uiso   1.00
H304   H     0.04432   0.37695   0.58705   0.00000  Uiso   1.00
H305   H     0.78418   0.41580   0.14296   0.00000  Uiso   1.00
H306   H     0.74070   0.16115   0.40207   0.00000  Uiso   1.00
H307   H     0.90304   0.11067   0.88623   0.00000  Uiso   1.00
H308   H     0.99353   0.13251   0.83279   0.00000  Uiso   1.00
H309   H     0.87016   0.15094   0.09644   0.00000  Uiso   1.00
H310   H     0.84955   0.03018   0.74509   0.00000  Uiso   1.00
H311   H     0.08734   0.18572   0.74904   0.00000  Uiso   1.00
H312   H     0.82719   0.22458   0.30495   0.00000  Uiso   1.00
H313   H     0.78372   0.96992   0.56405   0.00000  Uiso   1.00
O314   O     0.12446   0.29975   0.62951   0.00000  Uiso   1.00
O315   O     0.78315   0.35072   0.35883   0.00000  Uiso   1.00
O316   O     0.72611   0.01661   0.38680   0.00000  Uiso   1.00
N317   N     0.04203   0.32894   0.63249   0.00000  Uiso   1.00
N318   N     0.79881   0.36527   0.15224   0.00000  Uiso   1.00
N319   N     0.75816   0.12719   0.45958   0.00000  Uiso   1.00
N320   N     0.06518   0.22604   0.71965   0.00000  Uiso   1.00
N321   N     0.82196   0.26237   0.23940   0.00000  Uiso   1.00
N322   N     0.78130   0.02429   0.54674   0.00000  Uiso   1.00
C323   C     0.14496   0.40153   0.27195   0.00000  Uiso   1.00
C324   C     0.09040   0.39085   0.28709   0.00000  Uiso   1.00
C325   C     0.05954   0.43684   0.35181   0.00000  Uiso   1.00
C326   C     0.01079   0.41756   0.35479   0.00000  Uiso   1.00
C327   C     0.92868   0.41059   0.38731   0.00000  Uiso   1.00
C328   C     0.15425   0.40353   0.13557   0.00000  Uiso   1.00
C329   C     0.17708   0.46017   0.07291   0.00000  Uiso   1.00
C330   C     0.18208   0.45155   0.94834   0.00000  Uiso   1.00
C331   C     0.19913   0.46424   0.74565   0.00000  Uiso   1.00
C332   C     0.16851   0.33070   0.31794   0.00000  Uiso   1.00
C333   C     0.20335   0.32610   0.40858   0.00000  Uiso   1.00
C334   C     0.22036   0.25617   0.43753   0.00000  Uiso   1.00
C335   C     0.25956   0.15578   0.51799   0.00000  Uiso   1.00
C336   C     0.11325   0.28552   0.16215   0.00000  Uiso   1.00
C337   C     0.07317   0.32784   0.22745   0.00000  Uiso   1.00
C338   C     0.02445   0.30848   0.23033   0.00000  Uiso   1.00
C339   C     0.99353   0.35443   0.29505   0.00000  Uiso   1.00
C340   C     0.13702   0.34052   0.07593   0.00000  Uiso   1.00
C341   C     0.14199   0.33181   0.95143   0.00000  Uiso   1.00
C342   C     0.16482   0.38842   0.88859   0.00000  Uiso   1.00
C343   C     0.15129   0.26769   0.25830   0.00000  Uiso   1.00
C344   C     0.16826   0.19775   0.28711   0.00000  Uiso   1.00
C345   C     0.20311   0.19305   0.37779   0.00000  Uiso   1.00
H346   H     0.15838   0.45059   0.31837   0.00000  Uiso   1.00
H347   H     0.07288   0.48560   0.39794   0.00000  Uiso   1.00
H348   H     0.19041   0.50892   0.11908   0.00000  Uiso   1.00
H349   H     0.21667   0.37488   0.45471   0.00000  Uiso   1.00
H350   H     0.97050   0.49664   0.45982   0.00000  Uiso   1.00
H351   H     0.21833   0.54580   0.87184   0.00000  Uiso   1.00
H352   H     0.27370   0.26315   0.57958   0.00000  Uiso   1.00
H353   H     0.09984   0.23646   0.11572   0.00000  Uiso   1.00
H354   H     0.01113   0.25972   0.18417   0.00000  Uiso   1.00
H355   H     0.12866   0.28304   0.90531   0.00000  Uiso   1.00
H356   H     0.15492   0.14900   0.24094   0.00000  Uiso   1.00
H357   H     0.92038   0.31331   0.28631   0.00000  Uiso   1.00
H358   H     0.16821   0.36247   0.69833   0.00000  Uiso   1.00
H359   H     0.22358   0.07982   0.40607   0.00000  Uiso   1.00
O360   O     0.88814   0.42416   0.42171   0.00000  Uiso   1.00
O361   O     0.21329   0.48865   0.65032   0.00000  Uiso   1.00
O362   O     0.28593   0.11782   0.57886   0.00000  Uiso   1.00
N363   N     0.97088   0.45030   0.40961   0.00000  Uiso   1.00
N364   N     0.20258   0.49626   0.85988   0.00000  Uiso   1.00
N365   N     0.25436   0.23201   0.52153   0.00000  Uiso   1.00
N366   N     0.94391   0.35165   0.31625   0.00000  Uiso   1.00
N367   N     0.17561   0.39762   0.76652   0.00000  Uiso   1.00
N368   N     0.22739   0.13336   0.42817   0.00000  Uiso   1.00
