data_job_02769
_audit_creation_date              2018-12-19
_audit_creation_method            'Materials Studio'
_symmetry_space_group_name_H-M    'P1'
_symmetry_Int_Tables_number       1
_symmetry_cell_setting            triclinic
loop_
_symmetry_equiv_pos_as_xyz
  x,y,z
_cell_length_a                    19.8427
_cell_length_b                    15.4209
_cell_length_c                    12.4089
_cell_angle_alpha                 90.0000
_cell_angle_beta                  120.9349
_cell_angle_gamma                 90.0000
loop_
_atom_site_label
_atom_site_type_symbol
_atom_site_fract_x
_atom_site_fract_y
_atom_site_fract_z
_atom_site_U_iso_or_equiv
_atom_site_adp_type
_atom_site_occupancy
C1     C     0.40708   0.09829   0.26063   0.00000  Uiso   1.00
C2     C     0.38052   0.16773   0.31834   0.00000  Uiso   1.00
C3     C     0.33814   0.15324   0.37733   0.00000  Uiso   1.00
C4     C     0.31952   0.22536   0.42392   0.00000  Uiso   1.00
C5     C     0.27474   0.32049   0.51530   0.00000  Uiso   1.00
C6     C     0.37371   0.12482   0.12402   0.00000  Uiso   1.00
C7     C     0.32561   0.07423   0.01963   0.00000  Uiso   1.00
C8     C     0.30127   0.11023   0.90265   0.00000  Uiso   1.00
C9     C     0.24597   0.13870   0.69235   0.00000  Uiso   1.00
C10    C     0.49600   0.10776   0.32435   0.00000  Uiso   1.00
C11    C     0.55073   0.04283   0.38837   0.00000  Uiso   1.00
C12    C     0.62935   0.06447   0.44003   0.00000  Uiso   1.00
C13    C     0.76392   0.06646   0.54077   0.00000  Uiso   1.00
C14    C     0.44938   0.25216   0.23849   0.00000  Uiso   1.00
C15    C     0.40350   0.25131   0.30630   0.00000  Uiso   1.00
C16    C     0.38494   0.32348   0.35283   0.00000  Uiso   1.00
C17    C     0.34254   0.30909   0.41188   0.00000  Uiso   1.00
C18    C     0.39668   0.20839   0.11199   0.00000  Uiso   1.00
C19    C     0.37242   0.24447   0.99514   0.00000  Uiso   1.00
C20    C     0.32429   0.19396   0.89060   0.00000  Uiso   1.00
C21    C     0.51898   0.19134   0.31232   0.00000  Uiso   1.00
C22    C     0.59753   0.21308   0.36388   0.00000  Uiso   1.00
C23    C     0.65237   0.14820   0.42798   0.00000  Uiso   1.00
H24    H     0.38919   0.03322   0.26998   0.00000  Uiso   1.00
H25    H     0.32036   0.08855   0.38660   0.00000  Uiso   1.00
H26    H     0.30785   0.00955   0.02897   0.00000  Uiso   1.00
H27    H     0.53293   0.97817   0.39766   0.00000  Uiso   1.00
H28    H     0.25416   0.18675   0.51055   0.00000  Uiso   1.00
H29    H     0.22779   0.02018   0.75647   0.00000  Uiso   1.00
H30    H     0.70242   0.95398   0.53392   0.00000  Uiso   1.00
H31    H     0.46727   0.31723   0.22912   0.00000  Uiso   1.00
H32    H     0.40273   0.38815   0.34351   0.00000  Uiso   1.00
H33    H     0.39021   0.30915   0.98587   0.00000  Uiso   1.00
H34    H     0.61529   0.27776   0.35456   0.00000  Uiso   1.00
H35    H     0.32101   0.42992   0.47557   0.00000  Uiso   1.00
H36    H     0.29464   0.26334   0.72148   0.00000  Uiso   1.00
H37    H     0.76927   0.19715   0.49893   0.00000  Uiso   1.00
O38    O     0.24369   0.34986   0.56901   0.00000  Uiso   1.00
O39    O     0.20912   0.13132   0.57968   0.00000  Uiso   1.00
O40    O     0.83181   0.04447   0.59968   0.00000  Uiso   1.00
N41    N     0.27876   0.23425   0.48665   0.00000  Uiso   1.00
N42    N     0.25410   0.07851   0.78162   0.00000  Uiso   1.00
N43    N     0.69784   0.01662   0.50844   0.00000  Uiso   1.00
N44    N     0.31473   0.36509   0.46782   0.00000  Uiso   1.00
N45    N     0.29007   0.20936   0.76279   0.00000  Uiso   1.00
N46    N     0.73381   0.14747   0.48961   0.00000  Uiso   1.00
C47    C     0.90708   0.59829   0.26063   0.00000  Uiso   1.00
C48    C     0.88052   0.66773   0.31834   0.00000  Uiso   1.00
C49    C     0.83814   0.65324   0.37733   0.00000  Uiso   1.00
C50    C     0.81952   0.72536   0.42392   0.00000  Uiso   1.00
C51    C     0.77474   0.82049   0.51530   0.00000  Uiso   1.00
C52    C     0.87371   0.62482   0.12402   0.00000  Uiso   1.00
C53    C     0.82561   0.57423   0.01963   0.00000  Uiso   1.00
C54    C     0.80127   0.61023   0.90265   0.00000  Uiso   1.00
C55    C     0.74597   0.63870   0.69235   0.00000  Uiso   1.00
C56    C     0.99600   0.60776   0.32435   0.00000  Uiso   1.00
C57    C     0.05073   0.54283   0.38837   0.00000  Uiso   1.00
C58    C     0.12935   0.56447   0.44003   0.00000  Uiso   1.00
C59    C     0.26392   0.56646   0.54077   0.00000  Uiso   1.00
C60    C     0.94938   0.75216   0.23849   0.00000  Uiso   1.00
C61    C     0.90350   0.75131   0.30630   0.00000  Uiso   1.00
C62    C     0.88494   0.82348   0.35283   0.00000  Uiso   1.00
C63    C     0.84254   0.80909   0.41188   0.00000  Uiso   1.00
C64    C     0.89668   0.70839   0.11199   0.00000  Uiso   1.00
C65    C     0.87242   0.74447   0.99514   0.00000  Uiso   1.00
C66    C     0.82429   0.69396   0.89060   0.00000  Uiso   1.00
C67    C     0.01898   0.69134   0.31232   0.00000  Uiso   1.00
C68    C     0.09753   0.71308   0.36388   0.00000  Uiso   1.00
C69    C     0.15237   0.64820   0.42798   0.00000  Uiso   1.00
H70    H     0.88919   0.53322   0.26998   0.00000  Uiso   1.00
H71    H     0.82036   0.58855   0.38660   0.00000  Uiso   1.00
H72    H     0.80785   0.50955   0.02897   0.00000  Uiso   1.00
H73    H     0.03293   0.47817   0.39766   0.00000  Uiso   1.00
H74    H     0.75416   0.68675   0.51055   0.00000  Uiso   1.00
H75    H     0.72779   0.52018   0.75647   0.00000  Uiso   1.00
H76    H     0.20242   0.45398   0.53392   0.00000  Uiso   1.00
H77    H     0.96727   0.81723   0.22912   0.00000  Uiso   1.00
H78    H     0.90273   0.88815   0.34351   0.00000  Uiso   1.00
H79    H     0.89021   0.80915   0.98587   0.00000  Uiso   1.00
H80    H     0.11529   0.77776   0.35456   0.00000  Uiso   1.00
H81    H     0.82101   0.92992   0.47557   0.00000  Uiso   1.00
H82    H     0.79464   0.76334   0.72148   0.00000  Uiso   1.00
H83    H     0.26927   0.69715   0.49893   0.00000  Uiso   1.00
O84    O     0.74369   0.84986   0.56901   0.00000  Uiso   1.00
O85    O     0.70912   0.63132   0.57968   0.00000  Uiso   1.00
O86    O     0.33181   0.54447   0.59968   0.00000  Uiso   1.00
N87    N     0.77876   0.73425   0.48665   0.00000  Uiso   1.00
N88    N     0.75410   0.57851   0.78162   0.00000  Uiso   1.00
N89    N     0.19784   0.51662   0.50844   0.00000  Uiso   1.00
N90    N     0.81473   0.86509   0.46782   0.00000  Uiso   1.00
N91    N     0.79007   0.70936   0.76279   0.00000  Uiso   1.00
N92    N     0.23381   0.64747   0.48961   0.00000  Uiso   1.00
C93    C     0.40708   0.90171   0.76063   0.00000  Uiso   1.00
C94    C     0.38052   0.83227   0.81834   0.00000  Uiso   1.00
C95    C     0.33814   0.84676   0.87733   0.00000  Uiso   1.00
C96    C     0.31952   0.77464   0.92392   0.00000  Uiso   1.00
C97    C     0.27474   0.67951   0.01530   0.00000  Uiso   1.00
C98    C     0.37371   0.87518   0.62402   0.00000  Uiso   1.00
C99    C     0.32561   0.92577   0.51963   0.00000  Uiso   1.00
C100   C     0.30127   0.88977   0.40265   0.00000  Uiso   1.00
C101   C     0.24597   0.86130   0.19235   0.00000  Uiso   1.00
C102   C     0.49600   0.89224   0.82435   0.00000  Uiso   1.00
C103   C     0.55073   0.95717   0.88837   0.00000  Uiso   1.00
C104   C     0.62935   0.93553   0.94003   0.00000  Uiso   1.00
C105   C     0.76392   0.93354   0.04077   0.00000  Uiso   1.00
C106   C     0.44938   0.74784   0.73849   0.00000  Uiso   1.00
C107   C     0.40350   0.74869   0.80630   0.00000  Uiso   1.00
C108   C     0.38494   0.67652   0.85283   0.00000  Uiso   1.00
C109   C     0.34254   0.69091   0.91188   0.00000  Uiso   1.00
C110   C     0.39668   0.79161   0.61199   0.00000  Uiso   1.00
C111   C     0.37242   0.75553   0.49514   0.00000  Uiso   1.00
C112   C     0.32429   0.80604   0.39060   0.00000  Uiso   1.00
C113   C     0.51898   0.80866   0.81232   0.00000  Uiso   1.00
C114   C     0.59753   0.78692   0.86388   0.00000  Uiso   1.00
C115   C     0.65237   0.85180   0.92798   0.00000  Uiso   1.00
H116   H     0.38919   0.96678   0.76998   0.00000  Uiso   1.00
H117   H     0.32036   0.91145   0.88660   0.00000  Uiso   1.00
H118   H     0.30785   0.99045   0.52897   0.00000  Uiso   1.00
H119   H     0.53293   0.02183   0.89766   0.00000  Uiso   1.00
H120   H     0.25416   0.81325   0.01055   0.00000  Uiso   1.00
H121   H     0.22779   0.97982   0.25647   0.00000  Uiso   1.00
H122   H     0.70242   0.04602   0.03392   0.00000  Uiso   1.00
H123   H     0.46727   0.68277   0.72912   0.00000  Uiso   1.00
H124   H     0.40273   0.61185   0.84351   0.00000  Uiso   1.00
H125   H     0.39021   0.69085   0.48587   0.00000  Uiso   1.00
H126   H     0.61529   0.72224   0.85456   0.00000  Uiso   1.00
H127   H     0.32101   0.57008   0.97557   0.00000  Uiso   1.00
H128   H     0.29464   0.73666   0.22148   0.00000  Uiso   1.00
H129   H     0.76927   0.80285   0.99893   0.00000  Uiso   1.00
O130   O     0.24369   0.65014   0.06901   0.00000  Uiso   1.00
O131   O     0.20912   0.86868   0.07968   0.00000  Uiso   1.00
O132   O     0.83181   0.95553   0.09968   0.00000  Uiso   1.00
N133   N     0.27876   0.76575   0.98665   0.00000  Uiso   1.00
N134   N     0.25410   0.92149   0.28162   0.00000  Uiso   1.00
N135   N     0.69784   0.98338   0.00844   0.00000  Uiso   1.00
N136   N     0.31473   0.63491   0.96782   0.00000  Uiso   1.00
N137   N     0.29007   0.79064   0.26279   0.00000  Uiso   1.00
N138   N     0.73381   0.85253   0.98961   0.00000  Uiso   1.00
C139   C     0.90708   0.40171   0.76063   0.00000  Uiso   1.00
C140   C     0.88052   0.33227   0.81834   0.00000  Uiso   1.00
C141   C     0.83814   0.34676   0.87733   0.00000  Uiso   1.00
C142   C     0.81952   0.27464   0.92392   0.00000  Uiso   1.00
C143   C     0.77474   0.17951   0.01530   0.00000  Uiso   1.00
C144   C     0.87371   0.37518   0.62402   0.00000  Uiso   1.00
C145   C     0.82561   0.42577   0.51963   0.00000  Uiso   1.00
C146   C     0.80127   0.38977   0.40265   0.00000  Uiso   1.00
C147   C     0.74597   0.36130   0.19235   0.00000  Uiso   1.00
C148   C     0.99600   0.39224   0.82435   0.00000  Uiso   1.00
C149   C     0.05073   0.45717   0.88837   0.00000  Uiso   1.00
C150   C     0.12935   0.43553   0.94003   0.00000  Uiso   1.00
C151   C     0.26392   0.43354   0.04077   0.00000  Uiso   1.00
C152   C     0.94938   0.24784   0.73849   0.00000  Uiso   1.00
C153   C     0.90350   0.24869   0.80630   0.00000  Uiso   1.00
C154   C     0.88494   0.17652   0.85283   0.00000  Uiso   1.00
C155   C     0.84254   0.19091   0.91188   0.00000  Uiso   1.00
C156   C     0.89668   0.29161   0.61199   0.00000  Uiso   1.00
C157   C     0.87242   0.25553   0.49514   0.00000  Uiso   1.00
C158   C     0.82429   0.30604   0.39060   0.00000  Uiso   1.00
C159   C     0.01898   0.30866   0.81232   0.00000  Uiso   1.00
C160   C     0.09753   0.28692   0.86388   0.00000  Uiso   1.00
C161   C     0.15237   0.35180   0.92798   0.00000  Uiso   1.00
H162   H     0.88919   0.46678   0.76998   0.00000  Uiso   1.00
H163   H     0.82036   0.41145   0.88660   0.00000  Uiso   1.00
H164   H     0.80785   0.49045   0.52897   0.00000  Uiso   1.00
H165   H     0.03293   0.52183   0.89766   0.00000  Uiso   1.00
H166   H     0.75416   0.31325   0.01055   0.00000  Uiso   1.00
H167   H     0.72779   0.47982   0.25647   0.00000  Uiso   1.00
H168   H     0.20242   0.54602   0.03392   0.00000  Uiso   1.00
H169   H     0.96727   0.18277   0.72912   0.00000  Uiso   1.00
H170   H     0.90273   0.11185   0.84351   0.00000  Uiso   1.00
H171   H     0.89021   0.19085   0.48587   0.00000  Uiso   1.00
H172   H     0.11529   0.22224   0.85456   0.00000  Uiso   1.00
H173   H     0.82101   0.07008   0.97557   0.00000  Uiso   1.00
H174   H     0.79464   0.23666   0.22148   0.00000  Uiso   1.00
H175   H     0.26927   0.30285   0.99893   0.00000  Uiso   1.00
O176   O     0.74369   0.15014   0.06901   0.00000  Uiso   1.00
O177   O     0.70912   0.36868   0.07968   0.00000  Uiso   1.00
O178   O     0.33181   0.45553   0.09968   0.00000  Uiso   1.00
N179   N     0.77876   0.26575   0.98665   0.00000  Uiso   1.00
N180   N     0.75410   0.42149   0.28162   0.00000  Uiso   1.00
N181   N     0.19784   0.48338   0.00844   0.00000  Uiso   1.00
N182   N     0.81473   0.13491   0.96782   0.00000  Uiso   1.00
N183   N     0.79007   0.29064   0.26279   0.00000  Uiso   1.00
N184   N     0.23381   0.35253   0.98961   0.00000  Uiso   1.00
