data_job_04274
_audit_creation_date              2018-12-19
_audit_creation_method            'Materials Studio'
_symmetry_space_group_name_H-M    'P1'
_symmetry_Int_Tables_number       1
_symmetry_cell_setting            triclinic
loop_
_symmetry_equiv_pos_as_xyz
  x,y,z
_cell_length_a                    10.2694
_cell_length_b                    29.3313
_cell_length_c                    14.9660
_cell_angle_alpha                 90.0000
_cell_angle_beta                  91.8304
_cell_angle_gamma                 90.0000
loop_
_atom_site_label
_atom_site_type_symbol
_atom_site_fract_x
_atom_site_fract_y
_atom_site_fract_z
_atom_site_U_iso_or_equiv
_atom_site_adp_type
_atom_site_occupancy
C1     C     0.09732   0.61886   0.53629   0.00000  Uiso   1.00
C2     C     0.05324   0.60508   0.44184   0.00000  Uiso   1.00
C3     C     0.93623   0.61719   0.39934   0.00000  Uiso   1.00
C4     C     0.91410   0.60114   0.31292   0.00000  Uiso   1.00
C5     C     0.83169   0.58386   0.17271   0.00000  Uiso   1.00
C6     C     0.12613   0.57452   0.58631   0.00000  Uiso   1.00
C7     C     0.07042   0.56094   0.66529   0.00000  Uiso   1.00
C8     C     0.10967   0.51916   0.70048   0.00000  Uiso   1.00
C9     C     0.14049   0.45445   0.78461   0.00000  Uiso   1.00
C10    C     0.22823   0.64268   0.52733   0.00000  Uiso   1.00
C11    C     0.25839   0.68641   0.55673   0.00000  Uiso   1.00
C12    C     0.38361   0.70202   0.54228   0.00000  Uiso   1.00
C13    C     0.57296   0.74314   0.53482   0.00000  Uiso   1.00
C14    C     0.26609   0.56882   0.45838   0.00000  Uiso   1.00
C15    C     0.14492   0.57790   0.39953   0.00000  Uiso   1.00
C16    C     0.12296   0.56182   0.31314   0.00000  Uiso   1.00
C17    C     0.00594   0.57391   0.27052   0.00000  Uiso   1.00
C18    C     0.21780   0.54734   0.54400   0.00000  Uiso   1.00
C19    C     0.25715   0.50557   0.57908   0.00000  Uiso   1.00
C20    C     0.20150   0.49193   0.65809   0.00000  Uiso   1.00
C21    C     0.31991   0.61550   0.48501   0.00000  Uiso   1.00
C22    C     0.44511   0.63104   0.47052   0.00000  Uiso   1.00
C23    C     0.47545   0.67479   0.49988   0.00000  Uiso   1.00
H24    H     0.02595   0.64002   0.56924   0.00000  Uiso   1.00
H25    H     0.86531   0.63823   0.43212   0.00000  Uiso   1.00
H26    H     0.99949   0.58199   0.69803   0.00000  Uiso   1.00
H27    H     0.18742   0.70744   0.58948   0.00000  Uiso   1.00
H28    H     0.72761   0.62424   0.26144   0.00000  Uiso   1.00
H29    H     0.01057   0.50566   0.82214   0.00000  Uiso   1.00
H30    H     0.40687   0.77020   0.59324   0.00000  Uiso   1.00
H31    H     0.33747   0.54765   0.42543   0.00000  Uiso   1.00
H32    H     0.19392   0.54079   0.28041   0.00000  Uiso   1.00
H33    H     0.32810   0.48455   0.54632   0.00000  Uiso   1.00
H34    H     0.51603   0.61000   0.43777   0.00000  Uiso   1.00
H35    H     0.99432   0.54515   0.13830   0.00000  Uiso   1.00
H36    H     0.27729   0.42657   0.69901   0.00000  Uiso   1.00
H37    H     0.67358   0.69111   0.47011   0.00000  Uiso   1.00
O38    O     0.76090   0.58183   0.10708   0.00000  Uiso   1.00
O39    O     0.13215   0.42627   0.84270   0.00000  Uiso   1.00
O40    O     0.65207   0.77334   0.54239   0.00000  Uiso   1.00
N41    N     0.81010   0.60657   0.25236   0.00000  Uiso   1.00
N42    N     0.07463   0.49570   0.77657   0.00000  Uiso   1.00
N43    N     0.44514   0.74302   0.56259   0.00000  Uiso   1.00
N44    N     0.95361   0.56402   0.18610   0.00000  Uiso   1.00
N45    N     0.21814   0.45315   0.71031   0.00000  Uiso   1.00
N46    N     0.58866   0.70047   0.49633   0.00000  Uiso   1.00
C47    C     0.60010   0.33884   0.70658   0.00000  Uiso   1.00
C48    C     0.55523   0.35177   0.79937   0.00000  Uiso   1.00
C49    C     0.44201   0.33678   0.83819   0.00000  Uiso   1.00
C50    C     0.41838   0.35252   0.92365   0.00000  Uiso   1.00
C51    C     0.33551   0.36810   0.06087   0.00000  Uiso   1.00
C52    C     0.61831   0.38363   0.65678   0.00000  Uiso   1.00
C53    C     0.55813   0.39543   0.57571   0.00000  Uiso   1.00
C54    C     0.58762   0.43799   0.54113   0.00000  Uiso   1.00
C55    C     0.60276   0.50303   0.45695   0.00000  Uiso   1.00
C56    C     0.73597   0.31854   0.72029   0.00000  Uiso   1.00
C57    C     0.77473   0.27562   0.69260   0.00000  Uiso   1.00
C58    C     0.90329   0.26338   0.71147   0.00000  Uiso   1.00
C59    C     0.10110   0.22734   0.72590   0.00000  Uiso   1.00
C60    C     0.75948   0.39344   0.78933   0.00000  Uiso   1.00
C61    C     0.64181   0.38143   0.84431   0.00000  Uiso   1.00
C62    C     0.61835   0.39719   0.92974   0.00000  Uiso   1.00
C63    C     0.50511   0.38223   0.96868   0.00000  Uiso   1.00
C64    C     0.70488   0.41329   0.70172   0.00000  Uiso   1.00
C65    C     0.73448   0.45584   0.66726   0.00000  Uiso   1.00
C66    C     0.67435   0.46770   0.58615   0.00000  Uiso   1.00
C67    C     0.82254   0.34819   0.76524   0.00000  Uiso   1.00
C68    C     0.95107   0.33602   0.78415   0.00000  Uiso   1.00
C69    C     0.99002   0.29308   0.75650   0.00000  Uiso   1.00
H70    H     0.53270   0.31576   0.67159   0.00000  Uiso   1.00
H71    H     0.37503   0.31384   0.80338   0.00000  Uiso   1.00
H72    H     0.49115   0.37248   0.54094   0.00000  Uiso   1.00
H73    H     0.70771   0.25268   0.65782   0.00000  Uiso   1.00
H74    H     0.23837   0.32480   0.96931   0.00000  Uiso   1.00
H75    H     0.48326   0.44844   0.41592   0.00000  Uiso   1.00
H76    H     0.93992   0.19582   0.66237   0.00000  Uiso   1.00
H77    H     0.82689   0.41653   0.82432   0.00000  Uiso   1.00
H78    H     0.68536   0.42014   0.96450   0.00000  Uiso   1.00
H79    H     0.80148   0.47878   0.70205   0.00000  Uiso   1.00
H80    H     0.01804   0.35898   0.81893   0.00000  Uiso   1.00
H81    H     0.49025   0.41108   0.10008   0.00000  Uiso   1.00
H82    H     0.73514   0.53471   0.54668   0.00000  Uiso   1.00
H83    H     0.19179   0.28209   0.79314   0.00000  Uiso   1.00
O84    O     0.26588   0.36851   0.12414   0.00000  Uiso   1.00
O85    O     0.58718   0.53071   0.39810   0.00000  Uiso   1.00
O86    O     0.18629   0.19928   0.72146   0.00000  Uiso   1.00
N87    N     0.31709   0.34460   0.98086   0.00000  Uiso   1.00
N88    N     0.54603   0.46020   0.46347   0.00000  Uiso   1.00
N89    N     0.97297   0.22402   0.69387   0.00000  Uiso   1.00
N90    N     0.45262   0.39103   0.05122   0.00000  Uiso   1.00
N91    N     0.68156   0.50662   0.53384   0.00000  Uiso   1.00
N92    N     0.10850   0.27045   0.76423   0.00000  Uiso   1.00
C93    C     0.88023   0.33259   0.20700   0.00000  Uiso   1.00
C94    C     0.92520   0.34387   0.30255   0.00000  Uiso   1.00
C95    C     0.03385   0.32580   0.34726   0.00000  Uiso   1.00
C96    C     0.05844   0.34047   0.43437   0.00000  Uiso   1.00
C97    C     0.14066   0.35319   0.57651   0.00000  Uiso   1.00
C98    C     0.87284   0.37797   0.15738   0.00000  Uiso   1.00
C99    C     0.93745   0.38857   0.08002   0.00000  Uiso   1.00
C100   C     0.91795   0.43194   0.04492   0.00000  Uiso   1.00
C101   C     0.91880   0.49759   0.96164   0.00000  Uiso   1.00
C102   C     0.74020   0.31581   0.21260   0.00000  Uiso   1.00
C103   C     0.69326   0.27414   0.18167   0.00000  Uiso   1.00
C104   C     0.56206   0.26519   0.19305   0.00000  Uiso   1.00
C105   C     0.35696   0.23432   0.19551   0.00000  Uiso   1.00
C106   C     0.73071   0.39078   0.28220   0.00000  Uiso   1.00
C107   C     0.84399   0.37548   0.34339   0.00000  Uiso   1.00
C108   C     0.86842   0.39017   0.43046   0.00000  Uiso   1.00
C109   C     0.97708   0.37213   0.47530   0.00000  Uiso   1.00
C110   C     0.79163   0.40958   0.19822   0.00000  Uiso   1.00
C111   C     0.77202   0.45294   0.16322   0.00000  Uiso   1.00
C112   C     0.83659   0.46360   0.08584   0.00000  Uiso   1.00
C113   C     0.65898   0.34741   0.25345   0.00000  Uiso   1.00
C114   C     0.52783   0.33852   0.26487   0.00000  Uiso   1.00
C115   C     0.48070   0.29685   0.23397   0.00000  Uiso   1.00
H116   H     0.94346   0.30799   0.17519   0.00000  Uiso   1.00
H117   H     0.09669   0.30135   0.31562   0.00000  Uiso   1.00
H118   H     0.00029   0.36410   0.04842   0.00000  Uiso   1.00
H119   H     0.75614   0.24970   0.15006   0.00000  Uiso   1.00
H120   H     0.23077   0.30793   0.48932   0.00000  Uiso   1.00
H121   H     0.02747   0.44025   0.92589   0.00000  Uiso   1.00
H122   H     0.51263   0.19900   0.14021   0.00000  Uiso   1.00
H123   H     0.66747   0.41538   0.31400   0.00000  Uiso   1.00
H124   H     0.80555   0.41463   0.46205   0.00000  Uiso   1.00
H125   H     0.70916   0.47739   0.19485   0.00000  Uiso   1.00
H126   H     0.46501   0.36298   0.29649   0.00000  Uiso   1.00
H127   H     0.99448   0.39988   0.60816   0.00000  Uiso   1.00
H128   H     0.79118   0.53220   0.04473   0.00000  Uiso   1.00
H129   H     0.27634   0.29095   0.25906   0.00000  Uiso   1.00
O130   O     0.20846   0.35148   0.64362   0.00000  Uiso   1.00
O131   O     0.94172   0.52508   0.90442   0.00000  Uiso   1.00
O132   O     0.26627   0.20857   0.18560   0.00000  Uiso   1.00
N133   N     0.15619   0.32967   0.49698   0.00000  Uiso   1.00
N134   N     0.96614   0.45338   0.97021   0.00000  Uiso   1.00
N135   N     0.48480   0.22784   0.17056   0.00000  Uiso   1.00
N136   N     0.02904   0.37914   0.56093   0.00000  Uiso   1.00
N137   N     0.83900   0.50286   0.03416   0.00000  Uiso   1.00
N138   N     0.35765   0.27732   0.23451   0.00000  Uiso   1.00
C139   C     0.42983   0.62774   0.02563   0.00000  Uiso   1.00
C140   C     0.47269   0.61398   0.93280   0.00000  Uiso   1.00
C141   C     0.59020   0.62540   0.89536   0.00000  Uiso   1.00
C142   C     0.61102   0.60951   0.80961   0.00000  Uiso   1.00
C143   C     0.69180   0.59214   0.67257   0.00000  Uiso   1.00
C144   C     0.39865   0.58343   0.07379   0.00000  Uiso   1.00
C145   C     0.45390   0.56917   0.15488   0.00000  Uiso   1.00
C146   C     0.41237   0.52756   0.18781   0.00000  Uiso   1.00
C147   C     0.37814   0.46278   0.26969   0.00000  Uiso   1.00
C148   C     0.30029   0.65253   0.01157   0.00000  Uiso   1.00
C149   C     0.27282   0.69636   0.04037   0.00000  Uiso   1.00
C150   C     0.14846   0.71293   0.02093   0.00000  Uiso   1.00
C151   C     0.96151   0.75543   0.00620   0.00000  Uiso   1.00
C152   C     0.25781   0.57920   0.93992   0.00000  Uiso   1.00
C153   C     0.37925   0.58762   0.88625   0.00000  Uiso   1.00
C154   C     0.39989   0.57171   0.80053   0.00000  Uiso   1.00
C155   C     0.51741   0.58310   0.76297   0.00000  Uiso   1.00
C156   C     0.30522   0.55707   0.02724   0.00000  Uiso   1.00
C157   C     0.26359   0.51547   0.06006   0.00000  Uiso   1.00
C158   C     0.31877   0.50115   0.14118   0.00000  Uiso   1.00
C159   C     0.20685   0.62617   0.96501   0.00000  Uiso   1.00
C160   C     0.08250   0.64267   0.94554   0.00000  Uiso   1.00
C161   C     0.05486   0.68652   0.97430   0.00000  Uiso   1.00
H162   H     0.50257   0.64826   0.06188   0.00000  Uiso   1.00
H163   H     0.66249   0.64580   0.93141   0.00000  Uiso   1.00
H164   H     0.52620   0.58958   0.19090   0.00000  Uiso   1.00
H165   H     0.34515   0.71675   0.07639   0.00000  Uiso   1.00
H166   H     0.79861   0.63143   0.76625   0.00000  Uiso   1.00
H167   H     0.51120   0.51290   0.31341   0.00000  Uiso   1.00
H168   H     0.12941   0.78107   0.07196   0.00000  Uiso   1.00
H169   H     0.18507   0.55868   0.90368   0.00000  Uiso   1.00
H170   H     0.32756   0.55131   0.76452   0.00000  Uiso   1.00
H171   H     0.19127   0.49509   0.02402   0.00000  Uiso   1.00
H172   H     0.01022   0.62226   0.90951   0.00000  Uiso   1.00
H173   H     0.52677   0.55474   0.63080   0.00000  Uiso   1.00
H174   H     0.23935   0.43620   0.17796   0.00000  Uiso   1.00
H175   H     0.85757   0.70437   0.93651   0.00000  Uiso   1.00
O176   O     0.76218   0.58984   0.60985   0.00000  Uiso   1.00
O177   O     0.38508   0.43433   0.32771   0.00000  Uiso   1.00
O178   O     0.88420   0.78616   0.01093   0.00000  Uiso   1.00
N179   N     0.71506   0.61440   0.75346   0.00000  Uiso   1.00
N180   N     0.44637   0.50357   0.26501   0.00000  Uiso   1.00
N181   N     0.08942   0.75429   0.03930   0.00000  Uiso   1.00
N182   N     0.56879   0.57313   0.68058   0.00000  Uiso   1.00
N183   N     0.30009   0.46231   0.19213   0.00000  Uiso   1.00
N184   N     0.94315   0.71302   0.96641   0.00000  Uiso   1.00
C185   C     0.90268   0.11886   0.46371   0.00000  Uiso   1.00
C186   C     0.94676   0.10508   0.55816   0.00000  Uiso   1.00
C187   C     0.06377   0.11719   0.60066   0.00000  Uiso   1.00
C188   C     0.08590   0.10114   0.68708   0.00000  Uiso   1.00
C189   C     0.16831   0.08386   0.82729   0.00000  Uiso   1.00
C190   C     0.87387   0.07452   0.41369   0.00000  Uiso   1.00
C191   C     0.92958   0.06094   0.33471   0.00000  Uiso   1.00
C192   C     0.89033   0.01916   0.29952   0.00000  Uiso   1.00
C193   C     0.85951   0.95445   0.21539   0.00000  Uiso   1.00
C194   C     0.77177   0.14268   0.47267   0.00000  Uiso   1.00
C195   C     0.74161   0.18641   0.44327   0.00000  Uiso   1.00
C196   C     0.61639   0.20202   0.45772   0.00000  Uiso   1.00
C197   C     0.42704   0.24314   0.46518   0.00000  Uiso   1.00
C198   C     0.73391   0.06882   0.54162   0.00000  Uiso   1.00
C199   C     0.85508   0.07790   0.60047   0.00000  Uiso   1.00
C200   C     0.87704   0.06182   0.68686   0.00000  Uiso   1.00
C201   C     0.99406   0.07391   0.72948   0.00000  Uiso   1.00
C202   C     0.78220   0.04734   0.45600   0.00000  Uiso   1.00
C203   C     0.74285   0.00557   0.42092   0.00000  Uiso   1.00
C204   C     0.79850   0.99193   0.34191   0.00000  Uiso   1.00
C205   C     0.68009   0.11550   0.51499   0.00000  Uiso   1.00
C206   C     0.55489   0.13104   0.52948   0.00000  Uiso   1.00
C207   C     0.52455   0.17479   0.50012   0.00000  Uiso   1.00
H208   H     0.97405   0.14002   0.43076   0.00000  Uiso   1.00
H209   H     0.13469   0.13823   0.56788   0.00000  Uiso   1.00
H210   H     0.00051   0.08199   0.30197   0.00000  Uiso   1.00
H211   H     0.81258   0.20744   0.41052   0.00000  Uiso   1.00
H212   H     0.27239   0.12424   0.73856   0.00000  Uiso   1.00
H213   H     0.98943   0.00566   0.17786   0.00000  Uiso   1.00
H214   H     0.59313   0.27020   0.40676   0.00000  Uiso   1.00
H215   H     0.66253   0.04765   0.57457   0.00000  Uiso   1.00
H216   H     0.80608   0.04079   0.71959   0.00000  Uiso   1.00
H217   H     0.67190   0.98455   0.45368   0.00000  Uiso   1.00
H218   H     0.48397   0.11000   0.56223   0.00000  Uiso   1.00
H219   H     0.00568   0.04515   0.86170   0.00000  Uiso   1.00
H220   H     0.72271   0.92657   0.30099   0.00000  Uiso   1.00
H221   H     0.32642   0.19111   0.52989   0.00000  Uiso   1.00
O222   O     0.23910   0.08183   0.89292   0.00000  Uiso   1.00
O223   O     0.86785   0.92627   0.15730   0.00000  Uiso   1.00
O224   O     0.34793   0.27334   0.45761   0.00000  Uiso   1.00
N225   N     0.18990   0.10657   0.74764   0.00000  Uiso   1.00
N226   N     0.92537   0.99570   0.22343   0.00000  Uiso   1.00
N227   N     0.55486   0.24302   0.43741   0.00000  Uiso   1.00
N228   N     0.04639   0.06402   0.81390   0.00000  Uiso   1.00
N229   N     0.78186   0.95315   0.28969   0.00000  Uiso   1.00
N230   N     0.41134   0.20047   0.50367   0.00000  Uiso   1.00
C231   C     0.39990   0.83884   0.29342   0.00000  Uiso   1.00
C232   C     0.44477   0.85177   0.20063   0.00000  Uiso   1.00
C233   C     0.55799   0.83678   0.16181   0.00000  Uiso   1.00
C234   C     0.58162   0.85252   0.07635   0.00000  Uiso   1.00
C235   C     0.66449   0.86810   0.93913   0.00000  Uiso   1.00
C236   C     0.38169   0.88363   0.34322   0.00000  Uiso   1.00
C237   C     0.44187   0.89543   0.42429   0.00000  Uiso   1.00
C238   C     0.41238   0.93799   0.45887   0.00000  Uiso   1.00
C239   C     0.39724   0.00303   0.54305   0.00000  Uiso   1.00
C240   C     0.26403   0.81854   0.27971   0.00000  Uiso   1.00
C241   C     0.22527   0.77562   0.30740   0.00000  Uiso   1.00
C242   C     0.09671   0.76338   0.28853   0.00000  Uiso   1.00
C243   C     0.89890   0.72734   0.27410   0.00000  Uiso   1.00
C244   C     0.24052   0.89344   0.21067   0.00000  Uiso   1.00
C245   C     0.35819   0.88143   0.15569   0.00000  Uiso   1.00
C246   C     0.38165   0.89719   0.07026   0.00000  Uiso   1.00
C247   C     0.49489   0.88223   0.03132   0.00000  Uiso   1.00
C248   C     0.29512   0.91329   0.29828   0.00000  Uiso   1.00
C249   C     0.26552   0.95584   0.33274   0.00000  Uiso   1.00
C250   C     0.32565   0.96770   0.41385   0.00000  Uiso   1.00
C251   C     0.17746   0.84819   0.23476   0.00000  Uiso   1.00
C252   C     0.04893   0.83602   0.21585   0.00000  Uiso   1.00
C253   C     0.00998   0.79308   0.24350   0.00000  Uiso   1.00
H254   H     0.46730   0.81576   0.32841   0.00000  Uiso   1.00
H255   H     0.62497   0.81384   0.19662   0.00000  Uiso   1.00
H256   H     0.50885   0.87248   0.45906   0.00000  Uiso   1.00
H257   H     0.29229   0.75268   0.34218   0.00000  Uiso   1.00
H258   H     0.76163   0.82480   0.03069   0.00000  Uiso   1.00
H259   H     0.51674   0.94844   0.58408   0.00000  Uiso   1.00
H260   H     0.06008   0.69582   0.33763   0.00000  Uiso   1.00
H261   H     0.17311   0.91653   0.17568   0.00000  Uiso   1.00
H262   H     0.31464   0.92014   0.03550   0.00000  Uiso   1.00
H263   H     0.19852   0.97878   0.29795   0.00000  Uiso   1.00
H264   H     0.98196   0.85898   0.18107   0.00000  Uiso   1.00
H265   H     0.50975   0.91108   0.89992   0.00000  Uiso   1.00
H266   H     0.26486   0.03471   0.45332   0.00000  Uiso   1.00
H267   H     0.80821   0.78209   0.20686   0.00000  Uiso   1.00
O268   O     0.73412   0.86851   0.87586   0.00000  Uiso   1.00
O269   O     0.41282   0.03071   0.60190   0.00000  Uiso   1.00
O270   O     0.81371   0.69928   0.27854   0.00000  Uiso   1.00
N271   N     0.68291   0.84460   0.01914   0.00000  Uiso   1.00
N272   N     0.45397   0.96020   0.53653   0.00000  Uiso   1.00
N273   N     0.02703   0.72402   0.30613   0.00000  Uiso   1.00
N274   N     0.54738   0.89103   0.94878   0.00000  Uiso   1.00
N275   N     0.31844   0.00662   0.46616   0.00000  Uiso   1.00
N276   N     0.89150   0.77045   0.23577   0.00000  Uiso   1.00
C277   C     0.11977   0.83259   0.79300   0.00000  Uiso   1.00
C278   C     0.07480   0.84387   0.69745   0.00000  Uiso   1.00
C279   C     0.96615   0.82580   0.65274   0.00000  Uiso   1.00
C280   C     0.94156   0.84047   0.56563   0.00000  Uiso   1.00
C281   C     0.85934   0.85319   0.42349   0.00000  Uiso   1.00
C282   C     0.12716   0.87797   0.84262   0.00000  Uiso   1.00
C283   C     0.06255   0.88857   0.91998   0.00000  Uiso   1.00
C284   C     0.08205   0.93194   0.95508   0.00000  Uiso   1.00
C285   C     0.08120   0.99759   0.03836   0.00000  Uiso   1.00
C286   C     0.25980   0.81581   0.78740   0.00000  Uiso   1.00
C287   C     0.30674   0.77414   0.81833   0.00000  Uiso   1.00
C288   C     0.43794   0.76519   0.80695   0.00000  Uiso   1.00
C289   C     0.64304   0.73432   0.80449   0.00000  Uiso   1.00
C290   C     0.26929   0.89078   0.71780   0.00000  Uiso   1.00
C291   C     0.15601   0.87548   0.65661   0.00000  Uiso   1.00
C292   C     0.13158   0.89017   0.56954   0.00000  Uiso   1.00
C293   C     0.02292   0.87213   0.52470   0.00000  Uiso   1.00
C294   C     0.20837   0.90958   0.80178   0.00000  Uiso   1.00
C295   C     0.22798   0.95294   0.83678   0.00000  Uiso   1.00
C296   C     0.16341   0.96360   0.91416   0.00000  Uiso   1.00
C297   C     0.34102   0.84741   0.74655   0.00000  Uiso   1.00
C298   C     0.47217   0.83852   0.73513   0.00000  Uiso   1.00
C299   C     0.51930   0.79685   0.76603   0.00000  Uiso   1.00
H300   H     0.05654   0.80799   0.82481   0.00000  Uiso   1.00
H301   H     0.90331   0.80135   0.68438   0.00000  Uiso   1.00
H302   H     0.99971   0.86410   0.95158   0.00000  Uiso   1.00
H303   H     0.24386   0.74970   0.84994   0.00000  Uiso   1.00
H304   H     0.76923   0.80793   0.51068   0.00000  Uiso   1.00
H305   H     0.97253   0.94025   0.07411   0.00000  Uiso   1.00
H306   H     0.48737   0.69900   0.85979   0.00000  Uiso   1.00
H307   H     0.33253   0.91538   0.68600   0.00000  Uiso   1.00
H308   H     0.19445   0.91463   0.53795   0.00000  Uiso   1.00
H309   H     0.29084   0.97739   0.80515   0.00000  Uiso   1.00
H310   H     0.53499   0.86298   0.70351   0.00000  Uiso   1.00
H311   H     0.00552   0.89988   0.39184   0.00000  Uiso   1.00
H312   H     0.20882   0.03220   0.95527   0.00000  Uiso   1.00
H313   H     0.72366   0.79095   0.74094   0.00000  Uiso   1.00
O314   O     0.79154   0.85148   0.35638   0.00000  Uiso   1.00
O315   O     0.05828   0.02508   0.09558   0.00000  Uiso   1.00
O316   O     0.73373   0.70857   0.81440   0.00000  Uiso   1.00
N317   N     0.84381   0.82967   0.50302   0.00000  Uiso   1.00
N318   N     0.03386   0.95338   0.02979   0.00000  Uiso   1.00
N319   N     0.51520   0.72784   0.82944   0.00000  Uiso   1.00
N320   N     0.97096   0.87914   0.43907   0.00000  Uiso   1.00
N321   N     0.16100   0.00286   0.96584   0.00000  Uiso   1.00
N322   N     0.64235   0.77732   0.76549   0.00000  Uiso   1.00
C323   C     0.57017   0.12774   0.97437   0.00000  Uiso   1.00
C324   C     0.52731   0.11398   0.06720   0.00000  Uiso   1.00
C325   C     0.40980   0.12540   0.10464   0.00000  Uiso   1.00
C326   C     0.38898   0.10951   0.19039   0.00000  Uiso   1.00
C327   C     0.30820   0.09214   0.32743   0.00000  Uiso   1.00
C328   C     0.60135   0.08343   0.92621   0.00000  Uiso   1.00
C329   C     0.54610   0.06917   0.84512   0.00000  Uiso   1.00
C330   C     0.58763   0.02756   0.81219   0.00000  Uiso   1.00
C331   C     0.62186   0.96278   0.73031   0.00000  Uiso   1.00
C332   C     0.69971   0.15253   0.98843   0.00000  Uiso   1.00
C333   C     0.72718   0.19636   0.95963   0.00000  Uiso   1.00
C334   C     0.85154   0.21293   0.97907   0.00000  Uiso   1.00
C335   C     0.03849   0.25543   0.99380   0.00000  Uiso   1.00
C336   C     0.74219   0.07920   0.06008   0.00000  Uiso   1.00
C337   C     0.62075   0.08762   0.11375   0.00000  Uiso   1.00
C338   C     0.60011   0.07171   0.19947   0.00000  Uiso   1.00
C339   C     0.48259   0.08310   0.23703   0.00000  Uiso   1.00
C340   C     0.69478   0.05707   0.97276   0.00000  Uiso   1.00
C341   C     0.73641   0.01547   0.93994   0.00000  Uiso   1.00
C342   C     0.68123   0.00115   0.85882   0.00000  Uiso   1.00
C343   C     0.79315   0.12617   0.03499   0.00000  Uiso   1.00
C344   C     0.91750   0.14267   0.05446   0.00000  Uiso   1.00
C345   C     0.94514   0.18652   0.02570   0.00000  Uiso   1.00
H346   H     0.49743   0.14826   0.93812   0.00000  Uiso   1.00
H347   H     0.33751   0.14580   0.06859   0.00000  Uiso   1.00
H348   H     0.47380   0.08958   0.80910   0.00000  Uiso   1.00
H349   H     0.65485   0.21675   0.92361   0.00000  Uiso   1.00
H350   H     0.20139   0.13143   0.23375   0.00000  Uiso   1.00
H351   H     0.48880   0.01290   0.68659   0.00000  Uiso   1.00
H352   H     0.87059   0.28107   0.92804   0.00000  Uiso   1.00
H353   H     0.81493   0.05868   0.09632   0.00000  Uiso   1.00
H354   H     0.67244   0.05131   0.23548   0.00000  Uiso   1.00
H355   H     0.80873   0.99509   0.97598   0.00000  Uiso   1.00
H356   H     0.98978   0.12226   0.09049   0.00000  Uiso   1.00
H357   H     0.47323   0.05474   0.36920   0.00000  Uiso   1.00
H358   H     0.76065   0.93620   0.82204   0.00000  Uiso   1.00
H359   H     0.14243   0.20437   0.06349   0.00000  Uiso   1.00
O360   O     0.23782   0.08984   0.39015   0.00000  Uiso   1.00
O361   O     0.61492   0.93433   0.67229   0.00000  Uiso   1.00
O362   O     0.11580   0.28616   0.98907   0.00000  Uiso   1.00
N363   N     0.28494   0.11440   0.24654   0.00000  Uiso   1.00
N364   N     0.55363   0.00357   0.73499   0.00000  Uiso   1.00
N365   N     0.91058   0.25429   0.96070   0.00000  Uiso   1.00
N366   N     0.43121   0.07313   0.31942   0.00000  Uiso   1.00
N367   N     0.69991   0.96231   0.80787   0.00000  Uiso   1.00
N368   N     0.05685   0.21302   0.03359   0.00000  Uiso   1.00
