data_job_02766
_audit_creation_date              2018-12-19
_audit_creation_method            'Materials Studio'
_symmetry_space_group_name_H-M    'P1'
_symmetry_Int_Tables_number       1
_symmetry_cell_setting            triclinic
loop_
_symmetry_equiv_pos_as_xyz
  x,y,z
_cell_length_a                    15.4370
_cell_length_b                    18.2103
_cell_length_c                    16.7943
_cell_angle_alpha                 90.0000
_cell_angle_beta                  90.0000
_cell_angle_gamma                 90.0000
loop_
_atom_site_label
_atom_site_type_symbol
_atom_site_fract_x
_atom_site_fract_y
_atom_site_fract_z
_atom_site_U_iso_or_equiv
_atom_site_adp_type
_atom_site_occupancy
C1     C     0.31705   0.26514   0.43674   0.00000  Uiso   1.00
C2     C     0.39488   0.31341   0.41704   0.00000  Uiso   1.00
C3     C     0.39661   0.38956   0.41975   0.00000  Uiso   1.00
C4     C     0.47406   0.42353   0.39953   0.00000  Uiso   1.00
C5     C     0.58378   0.50468   0.37225   0.00000  Uiso   1.00
C6     C     0.30129   0.21776   0.36329   0.00000  Uiso   1.00
C7     C     0.22434   0.21349   0.32082   0.00000  Uiso   1.00
C8     C     0.22301   0.16694   0.25536   0.00000  Uiso   1.00
C9     C     0.18742   0.09956   0.14467   0.00000  Uiso   1.00
C10    C     0.34714   0.21279   0.50199   0.00000  Uiso   1.00
C11    C     0.30872   0.20432   0.57613   0.00000  Uiso   1.00
C12    C     0.34599   0.15357   0.62744   0.00000  Uiso   1.00
C13    C     0.38158   0.07847   0.73211   0.00000  Uiso   1.00
C14    C     0.45153   0.19005   0.39602   0.00000  Uiso   1.00
C15    C     0.46792   0.27262   0.39491   0.00000  Uiso   1.00
C16    C     0.54540   0.30648   0.37469   0.00000  Uiso   1.00
C17    C     0.54724   0.38267   0.37737   0.00000  Uiso   1.00
C18    C     0.37433   0.17698   0.34117   0.00000  Uiso   1.00
C19    C     0.37312   0.13041   0.27576   0.00000  Uiso   1.00
C20    C     0.29619   0.12608   0.23319   0.00000  Uiso   1.00
C21    C     0.42019   0.17200   0.47987   0.00000  Uiso   1.00
C22    C     0.45751   0.12124   0.53107   0.00000  Uiso   1.00
C23    C     0.41916   0.11270   0.60528   0.00000  Uiso   1.00
H24    H     0.26018   0.29689   0.45396   0.00000  Uiso   1.00
H25    H     0.34006   0.42111   0.43686   0.00000  Uiso   1.00
H26    H     0.16782   0.24506   0.33795   0.00000  Uiso   1.00
H27    H     0.25220   0.23590   0.59323   0.00000  Uiso   1.00
H28    H     0.46083   0.54084   0.40812   0.00000  Uiso   1.00
H29    H     0.09763   0.16961   0.19958   0.00000  Uiso   1.00
H30    H     0.27556   0.15028   0.73788   0.00000  Uiso   1.00
H31    H     0.50840   0.15829   0.37879   0.00000  Uiso   1.00
H32    H     0.60191   0.27490   0.35757   0.00000  Uiso   1.00
H33    H     0.42966   0.09885   0.25866   0.00000  Uiso   1.00
H34    H     0.51404   0.08969   0.51393   0.00000  Uiso   1.00
H35    H     0.67335   0.42217   0.34376   0.00000  Uiso   1.00
H36    H     0.31015   0.05094   0.13522   0.00000  Uiso   1.00
H37    H     0.48808   0.03161   0.67352   0.00000  Uiso   1.00
O38    O     0.62411   0.56071   0.36331   0.00000  Uiso   1.00
O39    O     0.14761   0.07367   0.08973   0.00000  Uiso   1.00
O40    O     0.38104   0.04832   0.79596   0.00000  Uiso   1.00
N41    N     0.49802   0.49690   0.39590   0.00000  Uiso   1.00
N42    N     0.15846   0.14984   0.20092   0.00000  Uiso   1.00
N43    N     0.32479   0.13175   0.70418   0.00000  Uiso   1.00
N44    N     0.61238   0.43305   0.36127   0.00000  Uiso   1.00
N45    N     0.27281   0.08598   0.16629   0.00000  Uiso   1.00
N46    N     0.43914   0.06790   0.66955   0.00000  Uiso   1.00
C47    C     0.81705   0.76514   0.43674   0.00000  Uiso   1.00
C48    C     0.89488   0.81341   0.41704   0.00000  Uiso   1.00
C49    C     0.89661   0.88956   0.41975   0.00000  Uiso   1.00
C50    C     0.97406   0.92353   0.39953   0.00000  Uiso   1.00
C51    C     0.08378   0.00468   0.37225   0.00000  Uiso   1.00
C52    C     0.80129   0.71776   0.36329   0.00000  Uiso   1.00
C53    C     0.72434   0.71349   0.32082   0.00000  Uiso   1.00
C54    C     0.72301   0.66694   0.25536   0.00000  Uiso   1.00
C55    C     0.68742   0.59956   0.14467   0.00000  Uiso   1.00
C56    C     0.84714   0.71279   0.50199   0.00000  Uiso   1.00
C57    C     0.80872   0.70432   0.57613   0.00000  Uiso   1.00
C58    C     0.84599   0.65357   0.62744   0.00000  Uiso   1.00
C59    C     0.88158   0.57847   0.73211   0.00000  Uiso   1.00
C60    C     0.95153   0.69005   0.39602   0.00000  Uiso   1.00
C61    C     0.96792   0.77262   0.39491   0.00000  Uiso   1.00
C62    C     0.04540   0.80648   0.37469   0.00000  Uiso   1.00
C63    C     0.04724   0.88267   0.37737   0.00000  Uiso   1.00
C64    C     0.87433   0.67698   0.34117   0.00000  Uiso   1.00
C65    C     0.87312   0.63041   0.27576   0.00000  Uiso   1.00
C66    C     0.79619   0.62608   0.23319   0.00000  Uiso   1.00
C67    C     0.92019   0.67200   0.47987   0.00000  Uiso   1.00
C68    C     0.95751   0.62124   0.53107   0.00000  Uiso   1.00
C69    C     0.91916   0.61270   0.60528   0.00000  Uiso   1.00
H70    H     0.76018   0.79689   0.45396   0.00000  Uiso   1.00
H71    H     0.84006   0.92111   0.43686   0.00000  Uiso   1.00
H72    H     0.66782   0.74506   0.33795   0.00000  Uiso   1.00
H73    H     0.75220   0.73590   0.59323   0.00000  Uiso   1.00
H74    H     0.96083   0.04084   0.40812   0.00000  Uiso   1.00
H75    H     0.59763   0.66961   0.19958   0.00000  Uiso   1.00
H76    H     0.77556   0.65028   0.73788   0.00000  Uiso   1.00
H77    H     0.00840   0.65829   0.37879   0.00000  Uiso   1.00
H78    H     0.10191   0.77490   0.35757   0.00000  Uiso   1.00
H79    H     0.92966   0.59885   0.25866   0.00000  Uiso   1.00
H80    H     0.01404   0.58969   0.51393   0.00000  Uiso   1.00
H81    H     0.17335   0.92217   0.34376   0.00000  Uiso   1.00
H82    H     0.81015   0.55094   0.13522   0.00000  Uiso   1.00
H83    H     0.98808   0.53161   0.67352   0.00000  Uiso   1.00
O84    O     0.12411   0.06071   0.36331   0.00000  Uiso   1.00
O85    O     0.64761   0.57367   0.08973   0.00000  Uiso   1.00
O86    O     0.88104   0.54832   0.79596   0.00000  Uiso   1.00
N87    N     0.99802   0.99690   0.39590   0.00000  Uiso   1.00
N88    N     0.65846   0.64984   0.20092   0.00000  Uiso   1.00
N89    N     0.82479   0.63175   0.70418   0.00000  Uiso   1.00
N90    N     0.11238   0.93305   0.36127   0.00000  Uiso   1.00
N91    N     0.77281   0.58598   0.16629   0.00000  Uiso   1.00
N92    N     0.93914   0.56790   0.66955   0.00000  Uiso   1.00
C93    C     0.68295   0.73486   0.93674   0.00000  Uiso   1.00
C94    C     0.60512   0.68659   0.91704   0.00000  Uiso   1.00
C95    C     0.60339   0.61044   0.91975   0.00000  Uiso   1.00
C96    C     0.52594   0.57647   0.89953   0.00000  Uiso   1.00
C97    C     0.41622   0.49532   0.87225   0.00000  Uiso   1.00
C98    C     0.69871   0.78224   0.86329   0.00000  Uiso   1.00
C99    C     0.77566   0.78651   0.82082   0.00000  Uiso   1.00
C100   C     0.77699   0.83306   0.75536   0.00000  Uiso   1.00
C101   C     0.81258   0.90044   0.64467   0.00000  Uiso   1.00
C102   C     0.65286   0.78721   0.00199   0.00000  Uiso   1.00
C103   C     0.69128   0.79568   0.07613   0.00000  Uiso   1.00
C104   C     0.65401   0.84643   0.12744   0.00000  Uiso   1.00
C105   C     0.61842   0.92153   0.23211   0.00000  Uiso   1.00
C106   C     0.54847   0.80995   0.89602   0.00000  Uiso   1.00
C107   C     0.53208   0.72738   0.89491   0.00000  Uiso   1.00
C108   C     0.45460   0.69352   0.87469   0.00000  Uiso   1.00
C109   C     0.45276   0.61733   0.87737   0.00000  Uiso   1.00
C110   C     0.62567   0.82302   0.84117   0.00000  Uiso   1.00
C111   C     0.62688   0.86959   0.77576   0.00000  Uiso   1.00
C112   C     0.70381   0.87392   0.73319   0.00000  Uiso   1.00
C113   C     0.57981   0.82800   0.97987   0.00000  Uiso   1.00
C114   C     0.54249   0.87876   0.03107   0.00000  Uiso   1.00
C115   C     0.58084   0.88730   0.10528   0.00000  Uiso   1.00
H116   H     0.73982   0.70311   0.95396   0.00000  Uiso   1.00
H117   H     0.65994   0.57889   0.93686   0.00000  Uiso   1.00
H118   H     0.83218   0.75494   0.83795   0.00000  Uiso   1.00
H119   H     0.74780   0.76410   0.09323   0.00000  Uiso   1.00
H120   H     0.53917   0.45916   0.90812   0.00000  Uiso   1.00
H121   H     0.90237   0.83039   0.69958   0.00000  Uiso   1.00
H122   H     0.72444   0.84972   0.23788   0.00000  Uiso   1.00
H123   H     0.49160   0.84171   0.87879   0.00000  Uiso   1.00
H124   H     0.39809   0.72510   0.85757   0.00000  Uiso   1.00
H125   H     0.57034   0.90115   0.75866   0.00000  Uiso   1.00
H126   H     0.48596   0.91031   0.01393   0.00000  Uiso   1.00
H127   H     0.32665   0.57783   0.84376   0.00000  Uiso   1.00
H128   H     0.68985   0.94906   0.63522   0.00000  Uiso   1.00
H129   H     0.51192   0.96839   0.17352   0.00000  Uiso   1.00
O130   O     0.37589   0.43929   0.86331   0.00000  Uiso   1.00
O131   O     0.85239   0.92633   0.58973   0.00000  Uiso   1.00
O132   O     0.61896   0.95168   0.29596   0.00000  Uiso   1.00
N133   N     0.50198   0.50310   0.89590   0.00000  Uiso   1.00
N134   N     0.84154   0.85016   0.70092   0.00000  Uiso   1.00
N135   N     0.67521   0.86825   0.20418   0.00000  Uiso   1.00
N136   N     0.38762   0.56695   0.86127   0.00000  Uiso   1.00
N137   N     0.72719   0.91402   0.66629   0.00000  Uiso   1.00
N138   N     0.56086   0.93210   0.16955   0.00000  Uiso   1.00
C139   C     0.18295   0.23486   0.93674   0.00000  Uiso   1.00
C140   C     0.10512   0.18659   0.91704   0.00000  Uiso   1.00
C141   C     0.10339   0.11044   0.91975   0.00000  Uiso   1.00
C142   C     0.02594   0.07647   0.89953   0.00000  Uiso   1.00
C143   C     0.91622   0.99532   0.87225   0.00000  Uiso   1.00
C144   C     0.19871   0.28224   0.86329   0.00000  Uiso   1.00
C145   C     0.27566   0.28651   0.82082   0.00000  Uiso   1.00
C146   C     0.27699   0.33306   0.75536   0.00000  Uiso   1.00
C147   C     0.31258   0.40044   0.64467   0.00000  Uiso   1.00
C148   C     0.15286   0.28721   0.00199   0.00000  Uiso   1.00
C149   C     0.19128   0.29568   0.07613   0.00000  Uiso   1.00
C150   C     0.15401   0.34643   0.12744   0.00000  Uiso   1.00
C151   C     0.11842   0.42153   0.23211   0.00000  Uiso   1.00
C152   C     0.04847   0.30995   0.89602   0.00000  Uiso   1.00
C153   C     0.03208   0.22738   0.89491   0.00000  Uiso   1.00
C154   C     0.95460   0.19352   0.87469   0.00000  Uiso   1.00
C155   C     0.95276   0.11733   0.87737   0.00000  Uiso   1.00
C156   C     0.12567   0.32302   0.84117   0.00000  Uiso   1.00
C157   C     0.12688   0.36959   0.77576   0.00000  Uiso   1.00
C158   C     0.20381   0.37392   0.73319   0.00000  Uiso   1.00
C159   C     0.07981   0.32800   0.97987   0.00000  Uiso   1.00
C160   C     0.04249   0.37876   0.03107   0.00000  Uiso   1.00
C161   C     0.08084   0.38730   0.10528   0.00000  Uiso   1.00
H162   H     0.23982   0.20311   0.95396   0.00000  Uiso   1.00
H163   H     0.15994   0.07889   0.93686   0.00000  Uiso   1.00
H164   H     0.33218   0.25494   0.83795   0.00000  Uiso   1.00
H165   H     0.24780   0.26410   0.09323   0.00000  Uiso   1.00
H166   H     0.03917   0.95916   0.90812   0.00000  Uiso   1.00
H167   H     0.40237   0.33039   0.69958   0.00000  Uiso   1.00
H168   H     0.22444   0.34972   0.23788   0.00000  Uiso   1.00
H169   H     0.99160   0.34171   0.87879   0.00000  Uiso   1.00
H170   H     0.89809   0.22510   0.85757   0.00000  Uiso   1.00
H171   H     0.07034   0.40115   0.75866   0.00000  Uiso   1.00
H172   H     0.98596   0.41031   0.01393   0.00000  Uiso   1.00
H173   H     0.82665   0.07783   0.84376   0.00000  Uiso   1.00
H174   H     0.18985   0.44906   0.63522   0.00000  Uiso   1.00
H175   H     0.01192   0.46839   0.17352   0.00000  Uiso   1.00
O176   O     0.87589   0.93929   0.86331   0.00000  Uiso   1.00
O177   O     0.35239   0.42633   0.58973   0.00000  Uiso   1.00
O178   O     0.11896   0.45168   0.29596   0.00000  Uiso   1.00
N179   N     0.00198   0.00310   0.89590   0.00000  Uiso   1.00
N180   N     0.34154   0.35016   0.70092   0.00000  Uiso   1.00
N181   N     0.17521   0.36825   0.20418   0.00000  Uiso   1.00
N182   N     0.88762   0.06695   0.86127   0.00000  Uiso   1.00
N183   N     0.22719   0.41402   0.66629   0.00000  Uiso   1.00
N184   N     0.06086   0.43210   0.16955   0.00000  Uiso   1.00
C185   C     0.68295   0.26514   0.06326   0.00000  Uiso   1.00
C186   C     0.60512   0.31341   0.08296   0.00000  Uiso   1.00
C187   C     0.60339   0.38956   0.08025   0.00000  Uiso   1.00
C188   C     0.52594   0.42353   0.10047   0.00000  Uiso   1.00
C189   C     0.41622   0.50468   0.12775   0.00000  Uiso   1.00
C190   C     0.69871   0.21776   0.13671   0.00000  Uiso   1.00
C191   C     0.77566   0.21349   0.17918   0.00000  Uiso   1.00
C192   C     0.77699   0.16694   0.24464   0.00000  Uiso   1.00
C193   C     0.81258   0.09956   0.35533   0.00000  Uiso   1.00
C194   C     0.65286   0.21279   0.99801   0.00000  Uiso   1.00
C195   C     0.69128   0.20432   0.92387   0.00000  Uiso   1.00
C196   C     0.65401   0.15357   0.87256   0.00000  Uiso   1.00
C197   C     0.61842   0.07847   0.76789   0.00000  Uiso   1.00
C198   C     0.54847   0.19005   0.10398   0.00000  Uiso   1.00
C199   C     0.53208   0.27262   0.10509   0.00000  Uiso   1.00
C200   C     0.45460   0.30648   0.12531   0.00000  Uiso   1.00
C201   C     0.45276   0.38267   0.12263   0.00000  Uiso   1.00
C202   C     0.62567   0.17698   0.15883   0.00000  Uiso   1.00
C203   C     0.62688   0.13041   0.22424   0.00000  Uiso   1.00
C204   C     0.70381   0.12608   0.26681   0.00000  Uiso   1.00
C205   C     0.57981   0.17200   0.02013   0.00000  Uiso   1.00
C206   C     0.54249   0.12124   0.96893   0.00000  Uiso   1.00
C207   C     0.58084   0.11270   0.89472   0.00000  Uiso   1.00
H208   H     0.73982   0.29689   0.04604   0.00000  Uiso   1.00
H209   H     0.65994   0.42111   0.06314   0.00000  Uiso   1.00
H210   H     0.83218   0.24506   0.16205   0.00000  Uiso   1.00
H211   H     0.74780   0.23590   0.90677   0.00000  Uiso   1.00
H212   H     0.53917   0.54084   0.09188   0.00000  Uiso   1.00
H213   H     0.90237   0.16961   0.30042   0.00000  Uiso   1.00
H214   H     0.72444   0.15028   0.76212   0.00000  Uiso   1.00
H215   H     0.49160   0.15829   0.12121   0.00000  Uiso   1.00
H216   H     0.39809   0.27490   0.14243   0.00000  Uiso   1.00
H217   H     0.57034   0.09885   0.24134   0.00000  Uiso   1.00
H218   H     0.48596   0.08969   0.98607   0.00000  Uiso   1.00
H219   H     0.32665   0.42217   0.15624   0.00000  Uiso   1.00
H220   H     0.68985   0.05094   0.36478   0.00000  Uiso   1.00
H221   H     0.51192   0.03161   0.82648   0.00000  Uiso   1.00
O222   O     0.37589   0.56071   0.13669   0.00000  Uiso   1.00
O223   O     0.85239   0.07367   0.41027   0.00000  Uiso   1.00
O224   O     0.61896   0.04832   0.70404   0.00000  Uiso   1.00
N225   N     0.50198   0.49690   0.10410   0.00000  Uiso   1.00
N226   N     0.84154   0.14984   0.29908   0.00000  Uiso   1.00
N227   N     0.67521   0.13175   0.79582   0.00000  Uiso   1.00
N228   N     0.38762   0.43305   0.13873   0.00000  Uiso   1.00
N229   N     0.72719   0.08598   0.33371   0.00000  Uiso   1.00
N230   N     0.56086   0.06790   0.83045   0.00000  Uiso   1.00
C231   C     0.18295   0.76514   0.06326   0.00000  Uiso   1.00
C232   C     0.10512   0.81341   0.08296   0.00000  Uiso   1.00
C233   C     0.10339   0.88956   0.08025   0.00000  Uiso   1.00
C234   C     0.02594   0.92353   0.10047   0.00000  Uiso   1.00
C235   C     0.91622   0.00468   0.12775   0.00000  Uiso   1.00
C236   C     0.19871   0.71776   0.13671   0.00000  Uiso   1.00
C237   C     0.27566   0.71349   0.17918   0.00000  Uiso   1.00
C238   C     0.27699   0.66694   0.24464   0.00000  Uiso   1.00
C239   C     0.31258   0.59956   0.35533   0.00000  Uiso   1.00
C240   C     0.15286   0.71279   0.99801   0.00000  Uiso   1.00
C241   C     0.19128   0.70432   0.92387   0.00000  Uiso   1.00
C242   C     0.15401   0.65357   0.87256   0.00000  Uiso   1.00
C243   C     0.11842   0.57847   0.76789   0.00000  Uiso   1.00
C244   C     0.04847   0.69005   0.10398   0.00000  Uiso   1.00
C245   C     0.03208   0.77262   0.10509   0.00000  Uiso   1.00
C246   C     0.95460   0.80648   0.12531   0.00000  Uiso   1.00
C247   C     0.95276   0.88267   0.12263   0.00000  Uiso   1.00
C248   C     0.12567   0.67698   0.15883   0.00000  Uiso   1.00
C249   C     0.12688   0.63041   0.22424   0.00000  Uiso   1.00
C250   C     0.20381   0.62608   0.26681   0.00000  Uiso   1.00
C251   C     0.07981   0.67200   0.02013   0.00000  Uiso   1.00
C252   C     0.04249   0.62124   0.96893   0.00000  Uiso   1.00
C253   C     0.08084   0.61270   0.89472   0.00000  Uiso   1.00
H254   H     0.23982   0.79689   0.04604   0.00000  Uiso   1.00
H255   H     0.15994   0.92111   0.06314   0.00000  Uiso   1.00
H256   H     0.33218   0.74506   0.16205   0.00000  Uiso   1.00
H257   H     0.24780   0.73590   0.90677   0.00000  Uiso   1.00
H258   H     0.03917   0.04084   0.09188   0.00000  Uiso   1.00
H259   H     0.40237   0.66961   0.30042   0.00000  Uiso   1.00
H260   H     0.22444   0.65028   0.76212   0.00000  Uiso   1.00
H261   H     0.99160   0.65829   0.12121   0.00000  Uiso   1.00
H262   H     0.89809   0.77490   0.14243   0.00000  Uiso   1.00
H263   H     0.07034   0.59885   0.24134   0.00000  Uiso   1.00
H264   H     0.98596   0.58969   0.98607   0.00000  Uiso   1.00
H265   H     0.82665   0.92217   0.15624   0.00000  Uiso   1.00
H266   H     0.18985   0.55094   0.36478   0.00000  Uiso   1.00
H267   H     0.01192   0.53161   0.82648   0.00000  Uiso   1.00
O268   O     0.87589   0.06071   0.13669   0.00000  Uiso   1.00
O269   O     0.35239   0.57367   0.41027   0.00000  Uiso   1.00
O270   O     0.11896   0.54832   0.70404   0.00000  Uiso   1.00
N271   N     0.00198   0.99690   0.10410   0.00000  Uiso   1.00
N272   N     0.34154   0.64984   0.29908   0.00000  Uiso   1.00
N273   N     0.17521   0.63175   0.79582   0.00000  Uiso   1.00
N274   N     0.88762   0.93305   0.13873   0.00000  Uiso   1.00
N275   N     0.22719   0.58598   0.33371   0.00000  Uiso   1.00
N276   N     0.06086   0.56790   0.83045   0.00000  Uiso   1.00
C277   C     0.31705   0.73486   0.56326   0.00000  Uiso   1.00
C278   C     0.39488   0.68659   0.58296   0.00000  Uiso   1.00
C279   C     0.39661   0.61044   0.58025   0.00000  Uiso   1.00
C280   C     0.47406   0.57647   0.60047   0.00000  Uiso   1.00
C281   C     0.58378   0.49532   0.62775   0.00000  Uiso   1.00
C282   C     0.30129   0.78224   0.63671   0.00000  Uiso   1.00
C283   C     0.22434   0.78651   0.67918   0.00000  Uiso   1.00
C284   C     0.22301   0.83306   0.74464   0.00000  Uiso   1.00
C285   C     0.18742   0.90044   0.85533   0.00000  Uiso   1.00
C286   C     0.34714   0.78721   0.49801   0.00000  Uiso   1.00
C287   C     0.30872   0.79568   0.42387   0.00000  Uiso   1.00
C288   C     0.34599   0.84643   0.37256   0.00000  Uiso   1.00
C289   C     0.38158   0.92153   0.26789   0.00000  Uiso   1.00
C290   C     0.45153   0.80995   0.60398   0.00000  Uiso   1.00
C291   C     0.46792   0.72738   0.60509   0.00000  Uiso   1.00
C292   C     0.54540   0.69352   0.62531   0.00000  Uiso   1.00
C293   C     0.54724   0.61733   0.62263   0.00000  Uiso   1.00
C294   C     0.37433   0.82302   0.65883   0.00000  Uiso   1.00
C295   C     0.37312   0.86959   0.72424   0.00000  Uiso   1.00
C296   C     0.29619   0.87392   0.76681   0.00000  Uiso   1.00
C297   C     0.42019   0.82800   0.52013   0.00000  Uiso   1.00
C298   C     0.45751   0.87876   0.46893   0.00000  Uiso   1.00
C299   C     0.41916   0.88730   0.39472   0.00000  Uiso   1.00
H300   H     0.26018   0.70311   0.54604   0.00000  Uiso   1.00
H301   H     0.34006   0.57889   0.56314   0.00000  Uiso   1.00
H302   H     0.16782   0.75494   0.66205   0.00000  Uiso   1.00
H303   H     0.25220   0.76410   0.40677   0.00000  Uiso   1.00
H304   H     0.46083   0.45916   0.59188   0.00000  Uiso   1.00
H305   H     0.09763   0.83039   0.80042   0.00000  Uiso   1.00
H306   H     0.27556   0.84972   0.26212   0.00000  Uiso   1.00
H307   H     0.50840   0.84171   0.62121   0.00000  Uiso   1.00
H308   H     0.60191   0.72510   0.64243   0.00000  Uiso   1.00
H309   H     0.42966   0.90115   0.74134   0.00000  Uiso   1.00
H310   H     0.51404   0.91031   0.48607   0.00000  Uiso   1.00
H311   H     0.67335   0.57783   0.65624   0.00000  Uiso   1.00
H312   H     0.31015   0.94906   0.86478   0.00000  Uiso   1.00
H313   H     0.48808   0.96839   0.32648   0.00000  Uiso   1.00
O314   O     0.62411   0.43929   0.63669   0.00000  Uiso   1.00
O315   O     0.14761   0.92633   0.91027   0.00000  Uiso   1.00
O316   O     0.38104   0.95168   0.20404   0.00000  Uiso   1.00
N317   N     0.49802   0.50310   0.60410   0.00000  Uiso   1.00
N318   N     0.15846   0.85016   0.79908   0.00000  Uiso   1.00
N319   N     0.32479   0.86825   0.29582   0.00000  Uiso   1.00
N320   N     0.61238   0.56695   0.63873   0.00000  Uiso   1.00
N321   N     0.27281   0.91402   0.83371   0.00000  Uiso   1.00
N322   N     0.43914   0.93210   0.33045   0.00000  Uiso   1.00
C323   C     0.81705   0.23486   0.56326   0.00000  Uiso   1.00
C324   C     0.89488   0.18659   0.58296   0.00000  Uiso   1.00
C325   C     0.89661   0.11044   0.58025   0.00000  Uiso   1.00
C326   C     0.97406   0.07647   0.60047   0.00000  Uiso   1.00
C327   C     0.08378   0.99532   0.62775   0.00000  Uiso   1.00
C328   C     0.80129   0.28224   0.63671   0.00000  Uiso   1.00
C329   C     0.72434   0.28651   0.67918   0.00000  Uiso   1.00
C330   C     0.72301   0.33306   0.74464   0.00000  Uiso   1.00
C331   C     0.68742   0.40044   0.85533   0.00000  Uiso   1.00
C332   C     0.84714   0.28721   0.49801   0.00000  Uiso   1.00
C333   C     0.80872   0.29568   0.42387   0.00000  Uiso   1.00
C334   C     0.84599   0.34643   0.37256   0.00000  Uiso   1.00
C335   C     0.88158   0.42153   0.26789   0.00000  Uiso   1.00
C336   C     0.95153   0.30995   0.60398   0.00000  Uiso   1.00
C337   C     0.96792   0.22738   0.60509   0.00000  Uiso   1.00
C338   C     0.04540   0.19352   0.62531   0.00000  Uiso   1.00
C339   C     0.04724   0.11733   0.62263   0.00000  Uiso   1.00
C340   C     0.87433   0.32302   0.65883   0.00000  Uiso   1.00
C341   C     0.87312   0.36959   0.72424   0.00000  Uiso   1.00
C342   C     0.79619   0.37392   0.76681   0.00000  Uiso   1.00
C343   C     0.92019   0.32800   0.52013   0.00000  Uiso   1.00
C344   C     0.95751   0.37876   0.46893   0.00000  Uiso   1.00
C345   C     0.91916   0.38730   0.39472   0.00000  Uiso   1.00
H346   H     0.76018   0.20311   0.54604   0.00000  Uiso   1.00
H347   H     0.84006   0.07889   0.56314   0.00000  Uiso   1.00
H348   H     0.66782   0.25494   0.66205   0.00000  Uiso   1.00
H349   H     0.75220   0.26410   0.40677   0.00000  Uiso   1.00
H350   H     0.96083   0.95916   0.59188   0.00000  Uiso   1.00
H351   H     0.59763   0.33039   0.80042   0.00000  Uiso   1.00
H352   H     0.77556   0.34972   0.26212   0.00000  Uiso   1.00
H353   H     0.00840   0.34171   0.62121   0.00000  Uiso   1.00
H354   H     0.10191   0.22510   0.64243   0.00000  Uiso   1.00
H355   H     0.92966   0.40115   0.74134   0.00000  Uiso   1.00
H356   H     0.01404   0.41031   0.48607   0.00000  Uiso   1.00
H357   H     0.17335   0.07783   0.65624   0.00000  Uiso   1.00
H358   H     0.81015   0.44906   0.86478   0.00000  Uiso   1.00
H359   H     0.98808   0.46839   0.32648   0.00000  Uiso   1.00
O360   O     0.12411   0.93929   0.63669   0.00000  Uiso   1.00
O361   O     0.64761   0.42633   0.91027   0.00000  Uiso   1.00
O362   O     0.88104   0.45168   0.20404   0.00000  Uiso   1.00
N363   N     0.99802   0.00310   0.60410   0.00000  Uiso   1.00
N364   N     0.65846   0.35016   0.79908   0.00000  Uiso   1.00
N365   N     0.82479   0.36825   0.29582   0.00000  Uiso   1.00
N366   N     0.11238   0.06695   0.63873   0.00000  Uiso   1.00
N367   N     0.77281   0.41402   0.83371   0.00000  Uiso   1.00
N368   N     0.93914   0.43210   0.33045   0.00000  Uiso   1.00
