data_job_07028
_audit_creation_date              2018-12-19
_audit_creation_method            'Materials Studio'
_symmetry_space_group_name_H-M    'P1'
_symmetry_Int_Tables_number       1
_symmetry_cell_setting            triclinic
loop_
_symmetry_equiv_pos_as_xyz
  x,y,z
_cell_length_a                    22.6595
_cell_length_b                    23.5904
_cell_length_c                    23.6144
_cell_angle_alpha                 66.6523
_cell_angle_beta                  63.9666
_cell_angle_gamma                 85.9758
loop_
_atom_site_label
_atom_site_type_symbol
_atom_site_fract_x
_atom_site_fract_y
_atom_site_fract_z
_atom_site_U_iso_or_equiv
_atom_site_adp_type
_atom_site_occupancy
C1     C     0.82214   0.47596   0.59068   0.00000  Uiso   1.00
C2     C     0.76737   0.42225   0.64492   0.00000  Uiso   1.00
C3     C     0.70387   0.42775   0.68850   0.00000  Uiso   1.00
C4     C     0.66103   0.37304   0.73456   0.00000  Uiso   1.00
C5     C     0.57294   0.29848   0.81846   0.00000  Uiso   1.00
C6     C     0.88058   0.46192   0.60771   0.00000  Uiso   1.00
C7     C     0.91228   0.50078   0.61999   0.00000  Uiso   1.00
C8     C     0.96474   0.47946   0.63472   0.00000  Uiso   1.00
C9     C     0.05245   0.46650   0.66080   0.00000  Uiso   1.00
C10    C     0.84372   0.47041   0.52235   0.00000  Uiso   1.00
C11    C     0.84445   0.51642   0.46285   0.00000  Uiso   1.00
C12    C     0.86590   0.50225   0.40570   0.00000  Uiso   1.00
C13    C     0.89639   0.50249   0.29924   0.00000  Uiso   1.00
C14    C     0.85897   0.36901   0.59499   0.00000  Uiso   1.00
C15    C     0.78737   0.36416   0.64727   0.00000  Uiso   1.00
C16    C     0.74461   0.30942   0.69327   0.00000  Uiso   1.00
C17    C     0.68106   0.31485   0.73690   0.00000  Uiso   1.00
C18    C     0.90058   0.40383   0.61006   0.00000  Uiso   1.00
C19    C     0.95302   0.38245   0.62477   0.00000  Uiso   1.00
C20    C     0.98478   0.42126   0.63707   0.00000  Uiso   1.00
C21    C     0.86373   0.41232   0.52469   0.00000  Uiso   1.00
C22    C     0.88519   0.39809   0.46762   0.00000  Uiso   1.00
C23    C     0.88594   0.44406   0.40805   0.00000  Uiso   1.00
H24    H     0.80657   0.52118   0.58885   0.00000  Uiso   1.00
H25    H     0.68841   0.47272   0.68667   0.00000  Uiso   1.00
H26    H     0.89679   0.54573   0.61817   0.00000  Uiso   1.00
H27    H     0.82897   0.56137   0.46105   0.00000  Uiso   1.00
H28    H     0.56623   0.39336   0.79617   0.00000  Uiso   1.00
H29    H     0.00562   0.54732   0.65171   0.00000  Uiso   1.00
H30    H     0.86261   0.58030   0.32040   0.00000  Uiso   1.00
H31    H     0.87454   0.32378   0.59681   0.00000  Uiso   1.00
H32    H     0.76010   0.26448   0.69507   0.00000  Uiso   1.00
H33    H     0.96849   0.33749   0.62657   0.00000  Uiso   1.00
H34    H     0.90066   0.35313   0.46946   0.00000  Uiso   1.00
H35    H     0.62442   0.22435   0.80300   0.00000  Uiso   1.00
H36    H     0.06382   0.37831   0.65853   0.00000  Uiso   1.00
H37    H     0.92080   0.41128   0.32722   0.00000  Uiso   1.00
O38    O     0.51883   0.27341   0.86409   0.00000  Uiso   1.00
O39    O     0.09530   0.47540   0.67455   0.00000  Uiso   1.00
O40    O     0.90767   0.51866   0.23988   0.00000  Uiso   1.00
N41    N     0.59563   0.36173   0.78429   0.00000  Uiso   1.00
N42    N     0.00643   0.50566   0.64923   0.00000  Uiso   1.00
N43    N     0.87274   0.53650   0.33948   0.00000  Uiso   1.00
N44    N     0.62694   0.27078   0.78796   0.00000  Uiso   1.00
N45    N     0.03774   0.41472   0.65290   0.00000  Uiso   1.00
N46    N     0.90405   0.44555   0.34315   0.00000  Uiso   1.00
C47    C     0.42345   0.22795   0.45510   0.00000  Uiso   1.00
C48    C     0.44398   0.29788   0.42412   0.00000  Uiso   1.00
C49    C     0.50853   0.32714   0.38881   0.00000  Uiso   1.00
C50    C     0.51694   0.39155   0.36447   0.00000  Uiso   1.00
C51    C     0.55707   0.49498   0.31478   0.00000  Uiso   1.00
C52    C     0.37689   0.20981   0.53139   0.00000  Uiso   1.00
C53    C     0.38502   0.16502   0.58625   0.00000  Uiso   1.00
C54    C     0.33696   0.15529   0.65222   0.00000  Uiso   1.00
C55    C     0.27289   0.12196   0.76905   0.00000  Uiso   1.00
C56    C     0.38108   0.21887   0.42323   0.00000  Uiso   1.00
C57    C     0.39272   0.18170   0.38717   0.00000  Uiso   1.00
C58    C     0.34816   0.17959   0.36209   0.00000  Uiso   1.00
C59    C     0.29060   0.16033   0.31100   0.00000  Uiso   1.00
C60    C     0.32362   0.29029   0.47469   0.00000  Uiso   1.00
C61    C     0.38976   0.33174   0.43477   0.00000  Uiso   1.00
C62    C     0.39808   0.39612   0.41048   0.00000  Uiso   1.00
C63    C     0.46262   0.42547   0.37513   0.00000  Uiso   1.00
C64    C     0.32267   0.24367   0.54203   0.00000  Uiso   1.00
C65    C     0.27458   0.23400   0.60793   0.00000  Uiso   1.00
C66    C     0.28264   0.18921   0.66288   0.00000  Uiso   1.00
C67    C     0.32685   0.25274   0.43387   0.00000  Uiso   1.00
C68    C     0.28227   0.25068   0.40884   0.00000  Uiso   1.00
C69    C     0.29384   0.21351   0.37275   0.00000  Uiso   1.00
H70    H     0.46566   0.20158   0.44683   0.00000  Uiso   1.00
H71    H     0.55047   0.30092   0.38059   0.00000  Uiso   1.00
H72    H     0.42699   0.13882   0.57800   0.00000  Uiso   1.00
H73    H     0.43468   0.15550   0.37895   0.00000  Uiso   1.00
H74    H     0.62059   0.42599   0.31187   0.00000  Uiso   1.00
H75    H     0.36019   0.08418   0.72813   0.00000  Uiso   1.00
H76    H     0.37642   0.11934   0.30839   0.00000  Uiso   1.00
H77    H     0.28141   0.31665   0.48298   0.00000  Uiso   1.00
H78    H     0.35611   0.42231   0.41872   0.00000  Uiso   1.00
H79    H     0.23262   0.26021   0.61614   0.00000  Uiso   1.00
H80    H     0.24031   0.27689   0.41709   0.00000  Uiso   1.00
H81    H     0.46283   0.52451   0.34282   0.00000  Uiso   1.00
H82    H     0.20244   0.18270   0.75908   0.00000  Uiso   1.00
H83    H     0.21866   0.21787   0.33934   0.00000  Uiso   1.00
O84    O     0.59417   0.54268   0.28444   0.00000  Uiso   1.00
O85    O     0.25254   0.09423   0.83056   0.00000  Uiso   1.00
O86    O     0.27383   0.14037   0.27987   0.00000  Uiso   1.00
N87    N     0.57321   0.43468   0.32796   0.00000  Uiso   1.00
N88    N     0.32976   0.11511   0.71714   0.00000  Uiso   1.00
N89    N     0.34492   0.14798   0.32473   0.00000  Uiso   1.00
N90    N     0.48832   0.48769   0.34461   0.00000  Uiso   1.00
N91    N     0.24488   0.16813   0.73379   0.00000  Uiso   1.00
N92    N     0.26003   0.20099   0.34139   0.00000  Uiso   1.00
C93    C     0.57836   0.43703   0.01428   0.00000  Uiso   1.00
C94    C     0.63793   0.40530   0.01933   0.00000  Uiso   1.00
C95    C     0.64230   0.34197   0.03932   0.00000  Uiso   1.00
C96    C     0.70101   0.32212   0.04064   0.00000  Uiso   1.00
C97    C     0.78552   0.26644   0.05127   0.00000  Uiso   1.00
C98    C     0.55922   0.47253   0.06027   0.00000  Uiso   1.00
C99    C     0.49742   0.46573   0.11467   0.00000  Uiso   1.00
C100   C     0.48988   0.50248   0.15045   0.00000  Uiso   1.00
C101   C     0.45218   0.55121   0.22460   0.00000  Uiso   1.00
C102   C     0.60405   0.48629   0.94048   0.00000  Uiso   1.00
C103   C     0.57994   0.49108   0.89416   0.00000  Uiso   1.00
C104   C     0.61013   0.53944   0.82909   0.00000  Uiso   1.00
C105   C     0.64204   0.60954   0.71725   0.00000  Uiso   1.00
C106   C     0.67485   0.51440   0.98109   0.00000  Uiso   1.00
C107   C     0.69034   0.44732   0.00131   0.00000  Uiso   1.00
C108   C     0.74906   0.42756   0.00260   0.00000  Uiso   1.00
C109   C     0.75352   0.36421   0.02258   0.00000  Uiso   1.00
C110   C     0.61163   0.51455   0.04225   0.00000  Uiso   1.00
C111   C     0.60418   0.55132   0.07795   0.00000  Uiso   1.00
C112   C     0.54238   0.54458   0.13239   0.00000  Uiso   1.00
C113   C     0.65647   0.52831   0.92246   0.00000  Uiso   1.00
C114   C     0.68670   0.57667   0.85744   0.00000  Uiso   1.00
C115   C     0.66263   0.58153   0.81103   0.00000  Uiso   1.00
H116   H     0.53755   0.40432   0.02831   0.00000  Uiso   1.00
H117   H     0.60173   0.30946   0.05327   0.00000  Uiso   1.00
H118   H     0.45687   0.43321   0.12860   0.00000  Uiso   1.00
H119   H     0.53938   0.45856   0.90813   0.00000  Uiso   1.00
H120   H     0.69598   0.22282   0.07301   0.00000  Uiso   1.00
H121   H     0.39053   0.48377   0.23184   0.00000  Uiso   1.00
H122   H     0.56451   0.53722   0.76693   0.00000  Uiso   1.00
H123   H     0.71566   0.54711   0.96706   0.00000  Uiso   1.00
H124   H     0.78961   0.46009   0.98865   0.00000  Uiso   1.00
H125   H     0.64475   0.58383   0.06399   0.00000  Uiso   1.00
H126   H     0.72725   0.60918   0.84351   0.00000  Uiso   1.00
H127   H     0.84847   0.34507   0.02057   0.00000  Uiso   1.00
H128   H     0.54302   0.60602   0.17940   0.00000  Uiso   1.00
H129   H     0.71700   0.65947   0.71449   0.00000  Uiso   1.00
O130   O     0.81765   0.22412   0.06213   0.00000  Uiso   1.00
O131   O     0.41691   0.56648   0.27049   0.00000  Uiso   1.00
O132   O     0.64517   0.63660   0.66054   0.00000  Uiso   1.00
N133   N     0.72172   0.26354   0.05769   0.00000  Uiso   1.00
N134   N     0.43615   0.50750   0.20620   0.00000  Uiso   1.00
N135   N     0.59880   0.55748   0.77155   0.00000  Uiso   1.00
N136   N     0.80378   0.32932   0.02947   0.00000  Uiso   1.00
N137   N     0.51820   0.57328   0.17798   0.00000  Uiso   1.00
N138   N     0.68085   0.62326   0.74333   0.00000  Uiso   1.00
C139   C     0.36817   0.88809   0.11382   0.00000  Uiso   1.00
C140   C     0.30429   0.84317   0.16159   0.00000  Uiso   1.00
C141   C     0.30003   0.77883   0.19243   0.00000  Uiso   1.00
C142   C     0.23698   0.74599   0.23441   0.00000  Uiso   1.00
C143   C     0.14641   0.67161   0.30699   0.00000  Uiso   1.00
C144   C     0.36547   0.93326   0.14631   0.00000  Uiso   1.00
C145   C     0.41266   0.94467   0.16430   0.00000  Uiso   1.00
C146   C     0.40111   0.98768   0.19340   0.00000  Uiso   1.00
C147   C     0.40555   0.05320   0.24221   0.00000  Uiso   1.00
C148   C     0.36320   0.92628   0.04706   0.00000  Uiso   1.00
C149   C     0.40850   0.93184   0.98160   0.00000  Uiso   1.00
C150   C     0.39505   0.96899   0.92714   0.00000  Uiso   1.00
C151   C     0.39598   0.02366   0.82185   0.00000  Uiso   1.00
C152   C     0.26375   0.94418   0.13352   0.00000  Uiso   1.00
C153   C     0.24757   0.87363   0.17229   0.00000  Uiso   1.00
C154   C     0.18451   0.84089   0.21423   0.00000  Uiso   1.00
C155   C     0.18016   0.77651   0.24513   0.00000  Uiso   1.00
C156   C     0.30875   0.96372   0.15701   0.00000  Uiso   1.00
C157   C     0.29713   0.00673   0.18609   0.00000  Uiso   1.00
C158   C     0.34429   0.01820   0.20412   0.00000  Uiso   1.00
C159   C     0.30649   0.95674   0.05776   0.00000  Uiso   1.00
C160   C     0.29297   0.99389   0.00339   0.00000  Uiso   1.00
C161   C     0.33824   0.99951   0.93785   0.00000  Uiso   1.00
H162   H     0.41233   0.86437   0.10549   0.00000  Uiso   1.00
H163   H     0.34394   0.75527   0.18415   0.00000  Uiso   1.00
H164   H     0.45655   0.92110   0.15601   0.00000  Uiso   1.00
H165   H     0.45239   0.90826   0.97334   0.00000  Uiso   1.00
H166   H     0.24310   0.64775   0.27609   0.00000  Uiso   1.00
H167   H     0.48056   0.99741   0.21673   0.00000  Uiso   1.00
H168   H     0.47179   0.97035   0.83153   0.00000  Uiso   1.00
H169   H     0.21960   0.96790   0.14185   0.00000  Uiso   1.00
H170   H     0.14063   0.86447   0.22250   0.00000  Uiso   1.00
H171   H     0.25324   0.03030   0.19436   0.00000  Uiso   1.00
H172   H     0.24908   0.01746   0.01169   0.00000  Uiso   1.00
H173   H     0.07809   0.73638   0.30722   0.00000  Uiso   1.00
H174   H     0.31555   0.08605   0.24786   0.00000  Uiso   1.00
H175   H     0.30677   0.05898   0.86266   0.00000  Uiso   1.00
O176   O     0.11212   0.62217   0.34407   0.00000  Uiso   1.00
O177   O     0.42366   0.08092   0.26618   0.00000  Uiso   1.00
O178   O     0.41215   0.04540   0.76082   0.00000  Uiso   1.00
N179   N     0.21510   0.68280   0.27234   0.00000  Uiso   1.00
N180   N     0.43711   0.00971   0.21685   0.00000  Uiso   1.00
N181   N     0.42891   0.98442   0.85672   0.00000  Uiso   1.00
N182   N     0.12631   0.73050   0.28909   0.00000  Uiso   1.00
N183   N     0.34831   0.05740   0.23360   0.00000  Uiso   1.00
N184   N     0.34012   0.03211   0.87347   0.00000  Uiso   1.00
C185   C     0.13371   0.58339   0.98192   0.00000  Uiso   1.00
C186   C     0.19150   0.60746   0.98650   0.00000  Uiso   1.00
C187   C     0.19933   0.66426   0.98869   0.00000  Uiso   1.00
C188   C     0.25561   0.67766   0.99286   0.00000  Uiso   1.00
C189   C     0.33821   0.72139   0.99971   0.00000  Uiso   1.00
C190   C     0.10440   0.52083   0.04361   0.00000  Uiso   1.00
C191   C     0.03899   0.50479   0.09382   0.00000  Uiso   1.00
C192   C     0.02195   0.44527   0.14606   0.00000  Uiso   1.00
C193   C     0.96931   0.35450   0.24155   0.00000  Uiso   1.00
C194   C     0.16420   0.56898   0.91808   0.00000  Uiso   1.00
C195   C     0.14906   0.59341   0.86274   0.00000  Uiso   1.00
C196   C     0.18236   0.57441   0.80930   0.00000  Uiso   1.00
C197   C     0.22257   0.55839   0.70988   0.00000  Uiso   1.00
C198   C     0.21975   0.50619   0.98543   0.00000  Uiso   1.00
C199   C     0.23823   0.56552   0.98840   0.00000  Uiso   1.00
C200   C     0.29451   0.57884   0.99257   0.00000  Uiso   1.00
C201   C     0.30243   0.63565   0.99476   0.00000  Uiso   1.00
C202   C     0.15112   0.47890   0.04551   0.00000  Uiso   1.00
C203   C     0.13417   0.41938   0.09769   0.00000  Uiso   1.00
C204   C     0.06876   0.40326   0.14797   0.00000  Uiso   1.00
C205   C     0.21093   0.52705   0.91998   0.00000  Uiso   1.00
C206   C     0.24425   0.50800   0.86662   0.00000  Uiso   1.00
C207   C     0.22917   0.53240   0.81121   0.00000  Uiso   1.00
H208   H     0.09733   0.61603   0.98045   0.00000  Uiso   1.00
H209   H     0.16315   0.69669   0.98722   0.00000  Uiso   1.00
H210   H     0.00284   0.53725   0.09233   0.00000  Uiso   1.00
H211   H     0.11290   0.62586   0.86129   0.00000  Uiso   1.00
H212   H     0.25672   0.76761   0.99560   0.00000  Uiso   1.00
H213   H     0.91869   0.43142   0.21721   0.00000  Uiso   1.00
H214   H     0.15077   0.61826   0.73001   0.00000  Uiso   1.00
H215   H     0.25613   0.47354   0.98691   0.00000  Uiso   1.00
H216   H     0.33067   0.54638   0.99404   0.00000  Uiso   1.00
H217   H     0.17035   0.38695   0.09914   0.00000  Uiso   1.00
H218   H     0.28041   0.47555   0.86810   0.00000  Uiso   1.00
H219   H     0.39268   0.64562   0.00114   0.00000  Uiso   1.00
H220   H     0.05464   0.30942   0.22274   0.00000  Uiso   1.00
H221   H     0.28672   0.49626   0.73555   0.00000  Uiso   1.00
O222   O     0.37086   0.75709   0.00297   0.00000  Uiso   1.00
O223   O     0.92737   0.31602   0.29369   0.00000  Uiso   1.00
O224   O     0.23185   0.56115   0.65451   0.00000  Uiso   1.00
N225   N     0.27850   0.72891   0.99591   0.00000  Uiso   1.00
N226   N     0.96246   0.41459   0.20311   0.00000  Uiso   1.00
N227   N     0.17942   0.58926   0.74763   0.00000  Uiso   1.00
N228   N     0.35166   0.66327   0.99889   0.00000  Uiso   1.00
N229   N     0.03562   0.34895   0.20608   0.00000  Uiso   1.00
N230   N     0.25258   0.52361   0.75060   0.00000  Uiso   1.00
C231   C     0.36971   0.64934   0.52663   0.00000  Uiso   1.00
C232   C     0.34206   0.70778   0.53532   0.00000  Uiso   1.00
C233   C     0.27549   0.71530   0.56387   0.00000  Uiso   1.00
C234   C     0.26033   0.77230   0.56722   0.00000  Uiso   1.00
C235   C     0.20984   0.85577   0.58445   0.00000  Uiso   1.00
C236   C     0.41315   0.63054   0.56382   0.00000  Uiso   1.00
C237   C     0.40635   0.57311   0.61632   0.00000  Uiso   1.00
C238   C     0.45104   0.56508   0.64365   0.00000  Uiso   1.00
C239   C     0.51093   0.52861   0.70510   0.00000  Uiso   1.00
C240   C     0.41660   0.66990   0.45005   0.00000  Uiso   1.00
C241   C     0.41273   0.64556   0.40688   0.00000  Uiso   1.00
C242   C     0.46034   0.67066   0.33842   0.00000  Uiso   1.00
C243   C     0.52560   0.69532   0.22321   0.00000  Uiso   1.00
C244   C     0.46116   0.73718   0.48183   0.00000  Uiso   1.00
C245   C     0.39173   0.75549   0.51099   0.00000  Uiso   1.00
C246   C     0.37667   0.81248   0.51430   0.00000  Uiso   1.00
C247   C     0.31009   0.82009   0.54284   0.00000  Uiso   1.00
C248   C     0.46282   0.67824   0.53949   0.00000  Uiso   1.00
C249   C     0.50753   0.67029   0.56675   0.00000  Uiso   1.00
C250   C     0.50080   0.61288   0.61927   0.00000  Uiso   1.00
C251   C     0.46628   0.71761   0.42571   0.00000  Uiso   1.00
C252   C     0.51391   0.74275   0.35731   0.00000  Uiso   1.00
C253   C     0.51010   0.71846   0.31404   0.00000  Uiso   1.00
H254   H     0.33104   0.61219   0.54558   0.00000  Uiso   1.00
H255   H     0.23707   0.67837   0.58270   0.00000  Uiso   1.00
H256   H     0.36791   0.53620   0.63514   0.00000  Uiso   1.00
H257   H     0.37428   0.60864   0.42573   0.00000  Uiso   1.00
H258   H     0.15478   0.77277   0.61315   0.00000  Uiso   1.00
H259   H     0.43068   0.47299   0.72370   0.00000  Uiso   1.00
H260   H     0.44413   0.62575   0.28211   0.00000  Uiso   1.00
H261   H     0.49984   0.77432   0.46288   0.00000  Uiso   1.00
H262   H     0.41512   0.84940   0.49546   0.00000  Uiso   1.00
H263   H     0.54596   0.70722   0.54790   0.00000  Uiso   1.00
H264   H     0.55234   0.77967   0.33849   0.00000  Uiso   1.00
H265   H     0.29930   0.91158   0.54234   0.00000  Uiso   1.00
H266   H     0.57520   0.61179   0.65289   0.00000  Uiso   1.00
H267   H     0.58864   0.76456   0.21131   0.00000  Uiso   1.00
O268   O     0.16826   0.88862   0.60069   0.00000  Uiso   1.00
O269   O     0.53024   0.49532   0.74572   0.00000  Uiso   1.00
O270   O     0.54788   0.69574   0.16638   0.00000  Uiso   1.00
N271   N     0.20042   0.79514   0.59200   0.00000  Uiso   1.00
N272   N     0.45836   0.51486   0.69536   0.00000  Uiso   1.00
N273   N     0.47094   0.65767   0.28253   0.00000  Uiso   1.00
N274   N     0.27818   0.86983   0.55390   0.00000  Uiso   1.00
N275   N     0.53613   0.58956   0.65727   0.00000  Uiso   1.00
N276   N     0.54871   0.73236   0.24443   0.00000  Uiso   1.00
C277   C     0.11654   0.66615   0.53176   0.00000  Uiso   1.00
C278   C     0.17200   0.72042   0.48476   0.00000  Uiso   1.00
C279   C     0.23851   0.71576   0.44935   0.00000  Uiso   1.00
C280   C     0.28148   0.77088   0.40900   0.00000  Uiso   1.00
C281   C     0.37106   0.84637   0.33672   0.00000  Uiso   1.00
C282   C     0.06603   0.68017   0.50312   0.00000  Uiso   1.00
C283   C     0.04344   0.64167   0.48315   0.00000  Uiso   1.00
C284   C     0.99719   0.66290   0.45827   0.00000  Uiso   1.00
C285   C     0.92222   0.67588   0.41454   0.00000  Uiso   1.00
C286   C     0.08282   0.67062   0.60144   0.00000  Uiso   1.00
C287   C     0.07433   0.62408   0.66415   0.00000  Uiso   1.00
C288   C     0.04220   0.63726   0.72206   0.00000  Uiso   1.00
C289   C     0.99330   0.63542   0.83098   0.00000  Uiso   1.00
C290   C     0.07458   0.77231   0.52308   0.00000  Uiso   1.00
C291   C     0.14921   0.77808   0.48005   0.00000  Uiso   1.00
C292   C     0.19209   0.83321   0.43975   0.00000  Uiso   1.00
C293   C     0.25865   0.82864   0.40428   0.00000  Uiso   1.00
C294   C     0.04324   0.73783   0.49841   0.00000  Uiso   1.00
C295   C     0.99701   0.75912   0.47356   0.00000  Uiso   1.00
C296   C     0.97436   0.72066   0.45355   0.00000  Uiso   1.00
C297   C     0.06003   0.72828   0.59673   0.00000  Uiso   1.00
C298   C     0.02791   0.74153   0.65455   0.00000  Uiso   1.00
C299   C     0.01937   0.69503   0.71734   0.00000  Uiso   1.00
H300   H     0.13428   0.62126   0.53543   0.00000  Uiso   1.00
H301   H     0.25613   0.67113   0.45300   0.00000  Uiso   1.00
H302   H     0.06108   0.59705   0.48681   0.00000  Uiso   1.00
H303   H     0.09197   0.57946   0.66778   0.00000  Uiso   1.00
H304   H     0.38117   0.75185   0.35952   0.00000  Uiso   1.00
H305   H     0.96988   0.59563   0.43083   0.00000  Uiso   1.00
H306   H     0.03501   0.55855   0.81244   0.00000  Uiso   1.00
H307   H     0.05683   0.81720   0.51942   0.00000  Uiso   1.00
H308   H     0.17444   0.87783   0.43611   0.00000  Uiso   1.00
H309   H     0.97938   0.80374   0.46992   0.00000  Uiso   1.00
H310   H     0.01028   0.78616   0.65089   0.00000  Uiso   1.00
H311   H     0.31486   0.91962   0.34581   0.00000  Uiso   1.00
H312   H     0.90357   0.76339   0.41712   0.00000  Uiso   1.00
H313   H     0.96871   0.72632   0.79873   0.00000  Uiso   1.00
O314   O     0.42677   0.87208   0.29814   0.00000  Uiso   1.00
O315   O     0.88717   0.66711   0.39171   0.00000  Uiso   1.00
O316   O     0.97263   0.61847   0.89236   0.00000  Uiso   1.00
N317   N     0.34943   0.78302   0.36774   0.00000  Uiso   1.00
N318   N     0.96490   0.63696   0.43440   0.00000  Uiso   1.00
N319   N     0.02578   0.60229   0.79117   0.00000  Uiso   1.00
N320   N     0.31375   0.87329   0.36036   0.00000  Uiso   1.00
N321   N     0.92922   0.72723   0.42702   0.00000  Uiso   1.00
N322   N     0.99010   0.69256   0.78380   0.00000  Uiso   1.00
C323   C     0.20970   0.81363   0.83206   0.00000  Uiso   1.00
C324   C     0.27052   0.77919   0.82254   0.00000  Uiso   1.00
C325   C     0.27447   0.71991   0.82339   0.00000  Uiso   1.00
C326   C     0.33452   0.69661   0.81370   0.00000  Uiso   1.00
C327   C     0.42074   0.63786   0.80042   0.00000  Uiso   1.00
C328   C     0.23173   0.87500   0.76832   0.00000  Uiso   1.00
C329   C     0.20305   0.89627   0.72359   0.00000  Uiso   1.00
C330   C     0.23045   0.95363   0.66827   0.00000  Uiso   1.00
C331   C     0.25640   0.04364   0.57085   0.00000  Uiso   1.00
C332   C     0.19513   0.83058   0.89248   0.00000  Uiso   1.00
C333   C     0.13568   0.81452   0.95215   0.00000  Uiso   1.00
C334   C     0.13226   0.83449   0.00136   0.00000  Uiso   1.00
C335   C     0.10140   0.85554   0.09672   0.00000  Uiso   1.00
C336   C     0.30933   0.87767   0.81334   0.00000  Uiso   1.00
C337   C     0.32464   0.81398   0.81237   0.00000  Uiso   1.00
C338   C     0.38470   0.79076   0.80267   0.00000  Uiso   1.00
C339   C     0.38874   0.73145   0.80351   0.00000  Uiso   1.00
C340   C     0.28584   0.90978   0.75815   0.00000  Uiso   1.00
C341   C     0.31328   0.96712   0.70288   0.00000  Uiso   1.00
C342   C     0.28466   0.98848   0.65808   0.00000  Uiso   1.00
C343   C     0.24925   0.86536   0.88232   0.00000  Uiso   1.00
C344   C     0.24592   0.88537   0.93144   0.00000  Uiso   1.00
C345   C     0.18647   0.86934   0.99117   0.00000  Uiso   1.00
H346   H     0.16757   0.78655   0.83997   0.00000  Uiso   1.00
H347   H     0.23258   0.69301   0.83125   0.00000  Uiso   1.00
H348   H     0.16117   0.86935   0.73148   0.00000  Uiso   1.00
H349   H     0.09381   0.78761   0.96000   0.00000  Uiso   1.00
H350   H     0.32853   0.60465   0.81707   0.00000  Uiso   1.00
H351   H     0.17794   0.97648   0.60671   0.00000  Uiso   1.00
H352   H     0.03590   0.80411   0.08860   0.00000  Uiso   1.00
H353   H     0.35147   0.90475   0.80542   0.00000  Uiso   1.00
H354   H     0.42657   0.81769   0.79481   0.00000  Uiso   1.00
H355   H     0.35516   0.99403   0.69503   0.00000  Uiso   1.00
H356   H     0.28780   0.91229   0.92355   0.00000  Uiso   1.00
H357   H     0.48598   0.70585   0.78749   0.00000  Uiso   1.00
H358   H     0.33539   0.07767   0.57713   0.00000  Uiso   1.00
H359   H     0.19336   0.90530   0.05901   0.00000  Uiso   1.00
O360   O     0.45335   0.59585   0.79590   0.00000  Uiso   1.00
O361   O     0.25577   0.08368   0.51992   0.00000  Uiso   1.00
O362   O     0.06943   0.85753   0.15214   0.00000  Uiso   1.00
N363   N     0.35527   0.64041   0.81158   0.00000  Uiso   1.00
N364   N     0.21449   0.98804   0.61490   0.00000  Uiso   1.00
N365   N     0.08169   0.82690   0.06541   0.00000  Uiso   1.00
N366   N     0.44000   0.69486   0.79566   0.00000  Uiso   1.00
N367   N     0.29921   0.04249   0.59898   0.00000  Uiso   1.00
N368   N     0.16641   0.88136   0.04949   0.00000  Uiso   1.00
C369   C     0.24996   0.54053   0.21270   0.00000  Uiso   1.00
C370   C     0.18836   0.56302   0.20428   0.00000  Uiso   1.00
C371   C     0.17766   0.62468   0.17815   0.00000  Uiso   1.00
C372   C     0.11811   0.63560   0.17462   0.00000  Uiso   1.00
C373   C     0.02964   0.67798   0.15819   0.00000  Uiso   1.00
C374   C     0.27648   0.49965   0.17271   0.00000  Uiso   1.00
C375   C     0.33988   0.50803   0.12005   0.00000  Uiso   1.00
C376   C     0.35450   0.46559   0.08996   0.00000  Uiso   1.00
C377   C     0.40286   0.40956   0.02455   0.00000  Uiso   1.00
C378   C     0.22559   0.49706   0.28865   0.00000  Uiso   1.00
C379   C     0.24621   0.50326   0.33347   0.00000  Uiso   1.00
C380   C     0.21800   0.45864   0.40097   0.00000  Uiso   1.00
C381   C     0.18734   0.39860   0.51558   0.00000  Uiso   1.00
C382   C     0.16321   0.45026   0.25289   0.00000  Uiso   1.00
C383   C     0.14124   0.51399   0.22611   0.00000  Uiso   1.00
C384   C     0.08168   0.52481   0.22262   0.00000  Uiso   1.00
C385   C     0.07090   0.58648   0.19649   0.00000  Uiso   1.00
C386   C     0.22936   0.45062   0.19454   0.00000  Uiso   1.00
C387   C     0.24390   0.40816   0.16452   0.00000  Uiso   1.00
C388   C     0.30730   0.41647   0.11182   0.00000  Uiso   1.00
C389   C     0.17847   0.44803   0.31048   0.00000  Uiso   1.00
C390   C     0.15022   0.40339   0.37793   0.00000  Uiso   1.00
C391   C     0.17079   0.40952   0.42284   0.00000  Uiso   1.00
H392   H     0.28665   0.57870   0.19570   0.00000  Uiso   1.00
H393   H     0.21415   0.66261   0.16126   0.00000  Uiso   1.00
H394   H     0.37634   0.54597   0.10318   0.00000  Uiso   1.00
H395   H     0.28268   0.54121   0.31655   0.00000  Uiso   1.00
H396   H     0.11299   0.73403   0.13267   0.00000  Uiso   1.00
H397   H     0.45499   0.48807   0.01022   0.00000  Uiso   1.00
H398   H     0.25749   0.47802   0.46017   0.00000  Uiso   1.00
H399   H     0.12652   0.41209   0.26989   0.00000  Uiso   1.00
H400   H     0.04522   0.48686   0.23952   0.00000  Uiso   1.00
H401   H     0.20742   0.37022   0.18143   0.00000  Uiso   1.00
H402   H     0.11376   0.36546   0.39481   0.00000  Uiso   1.00
H403   H     0.97589   0.59138   0.19618   0.00000  Uiso   1.00
H404   H     0.31789   0.34542   0.07373   0.00000  Uiso   1.00
H405   H     0.12039   0.33538   0.52368   0.00000  Uiso   1.00
O406   O     0.99387   0.71490   0.14309   0.00000  Uiso   1.00
O407   O     0.44255   0.39220   0.98244   0.00000  Uiso   1.00
O408   O     0.18344   0.37903   0.57276   0.00000  Uiso   1.00
N409   N     0.09188   0.69019   0.15180   0.00000  Uiso   1.00
N410   N     0.41162   0.46024   0.03730   0.00000  Uiso   1.00
N411   N     0.22699   0.45084   0.45796   0.00000  Uiso   1.00
N412   N     0.01810   0.61344   0.18598   0.00000  Uiso   1.00
N413   N     0.33784   0.38348   0.07148   0.00000  Uiso   1.00
N414   N     0.15322   0.37408   0.49214   0.00000  Uiso   1.00
C415   C     0.59500   0.19500   0.97950   0.00000  Uiso   1.00
C416   C     0.65045   0.24928   0.93243   0.00000  Uiso   1.00
C417   C     0.64211   0.31189   0.91033   0.00000  Uiso   1.00
C418   C     0.69910   0.35440   0.86742   0.00000  Uiso   1.00
C419   C     0.77561   0.44164   0.79736   0.00000  Uiso   1.00
C420   C     0.60519   0.15438   0.94008   0.00000  Uiso   1.00
C421   C     0.55879   0.13719   0.92443   0.00000  Uiso   1.00
C422   C     0.57768   0.09980   0.88797   0.00000  Uiso   1.00
C423   C     0.58390   0.03966   0.82983   0.00000  Uiso   1.00
C424   C     0.60888   0.15679   0.04067   0.00000  Uiso   1.00
C425   C     0.56558   0.14162   0.10961   0.00000  Uiso   1.00
C426   C     0.58756   0.10626   0.15784   0.00000  Uiso   1.00
C427   C     0.59951   0.04987   0.25589   0.00000  Uiso   1.00
C428   C     0.71104   0.15917   0.94258   0.00000  Uiso   1.00
C429   C     0.71348   0.22981   0.91238   0.00000  Uiso   1.00
C430   C     0.77049   0.27224   0.86949   0.00000  Uiso   1.00
C431   C     0.76223   0.33490   0.84733   0.00000  Uiso   1.00
C432   C     0.66821   0.13491   0.92003   0.00000  Uiso   1.00
C433   C     0.68717   0.09754   0.88359   0.00000  Uiso   1.00
C434   C     0.64081   0.08030   0.86788   0.00000  Uiso   1.00
C435   C     0.67191   0.13733   0.02062   0.00000  Uiso   1.00
C436   C     0.69396   0.10198   0.06876   0.00000  Uiso   1.00
C437   C     0.65070   0.08676   0.13775   0.00000  Uiso   1.00
H438   H     0.54594   0.21015   0.99511   0.00000  Uiso   1.00
H439   H     0.59333   0.32693   0.92586   0.00000  Uiso   1.00
H440   H     0.51002   0.15225   0.93996   0.00000  Uiso   1.00
H441   H     0.51681   0.15669   0.12510   0.00000  Uiso   1.00
H442   H     0.67367   0.44782   0.84022   0.00000  Uiso   1.00
H443   H     0.49800   0.07948   0.86998   0.00000  Uiso   1.00
H444   H     0.51231   0.08883   0.26039   0.00000  Uiso   1.00
H445   H     0.76010   0.14401   0.92697   0.00000  Uiso   1.00
H446   H     0.81925   0.25716   0.85398   0.00000  Uiso   1.00
H447   H     0.73594   0.08248   0.86808   0.00000  Uiso   1.00
H448   H     0.74273   0.08692   0.05322   0.00000  Uiso   1.00
H449   H     0.85704   0.39119   0.78188   0.00000  Uiso   1.00
H450   H     0.68137   0.02285   0.81164   0.00000  Uiso   1.00
H451   H     0.69568   0.03221   0.20205   0.00000  Uiso   1.00
O452   O     0.80040   0.49513   0.76424   0.00000  Uiso   1.00
O453   O     0.56992   0.01188   0.80330   0.00000  Uiso   1.00
O454   O     0.58870   0.02416   0.31551   0.00000  Uiso   1.00
N455   N     0.70871   0.41896   0.83651   0.00000  Uiso   1.00
N456   N     0.54447   0.07460   0.86433   0.00000  Uiso   1.00
N457   N     0.55784   0.08333   0.22933   0.00000  Uiso   1.00
N458   N     0.80738   0.38849   0.80512   0.00000  Uiso   1.00
N459   N     0.64314   0.04413   0.83294   0.00000  Uiso   1.00
N460   N     0.65651   0.05286   0.19794   0.00000  Uiso   1.00
C461   C     0.77608   0.29986   0.22055   0.00000  Uiso   1.00
C462   C     0.71032   0.30541   0.21677   0.00000  Uiso   1.00
C463   C     0.67238   0.25839   0.22173   0.00000  Uiso   1.00
C464   C     0.61377   0.27276   0.21701   0.00000  Uiso   1.00
C465   C     0.51471   0.27237   0.21252   0.00000  Uiso   1.00
C466   C     0.82586   0.35104   0.15420   0.00000  Uiso   1.00
C467   C     0.88507   0.34238   0.10656   0.00000  Uiso   1.00
C468   C     0.92373   0.39516   0.04917   0.00000  Uiso   1.00
C469   C     0.00407   0.46561   0.94757   0.00000  Uiso   1.00
C470   C     0.76697   0.31792   0.27889   0.00000  Uiso   1.00
C471   C     0.77667   0.28142   0.33608   0.00000  Uiso   1.00
C472   C     0.76577   0.30632   0.38367   0.00000  Uiso   1.00
C473   C     0.75467   0.32535   0.47567   0.00000  Uiso   1.00
C474   C     0.73947   0.40899   0.20335   0.00000  Uiso   1.00
C475   C     0.69044   0.36469   0.20743   0.00000  Uiso   1.00
C476   C     0.63188   0.37913   0.20270   0.00000  Uiso   1.00
C477   C     0.59385   0.33214   0.20765   0.00000  Uiso   1.00
C478   C     0.80598   0.41031   0.14486   0.00000  Uiso   1.00
C479   C     0.84456   0.46312   0.08753   0.00000  Uiso   1.00
C480   C     0.90381   0.45454   0.03981   0.00000  Uiso   1.00
C481   C     0.74708   0.37719   0.26955   0.00000  Uiso   1.00
C482   C     0.73617   0.40216   0.31705   0.00000  Uiso   1.00
C483   C     0.74585   0.36570   0.37431   0.00000  Uiso   1.00
H484   H     0.79156   0.25372   0.22782   0.00000  Uiso   1.00
H485   H     0.68778   0.21253   0.22895   0.00000  Uiso   1.00
H486   H     0.90044   0.29650   0.11381   0.00000  Uiso   1.00
H487   H     0.79206   0.23556   0.34330   0.00000  Uiso   1.00
H488   H     0.56397   0.19301   0.22606   0.00000  Uiso   1.00
H489   H     0.01238   0.37008   0.98328   0.00000  Uiso   1.00
H490   H     0.78384   0.24156   0.46720   0.00000  Uiso   1.00
H491   H     0.72399   0.45514   0.19608   0.00000  Uiso   1.00
H492   H     0.61650   0.42500   0.19547   0.00000  Uiso   1.00
H493   H     0.82916   0.50898   0.08032   0.00000  Uiso   1.00
H494   H     0.72078   0.44803   0.30981   0.00000  Uiso   1.00
H495   H     0.50612   0.36546   0.19888   0.00000  Uiso   1.00
H496   H     0.95453   0.54253   0.95609   0.00000  Uiso   1.00
H497   H     0.72599   0.41401   0.44002   0.00000  Uiso   1.00
O498   O     0.46557   0.25579   0.21262   0.00000  Uiso   1.00
O499   O     0.05387   0.48809   0.89410   0.00000  Uiso   1.00
O500   O     0.75403   0.31947   0.52900   0.00000  Uiso   1.00
N501   N     0.56510   0.23773   0.21976   0.00000  Uiso   1.00
N502   N     0.98433   0.40328   0.99277   0.00000  Uiso   1.00
N503   N     0.77069   0.28313   0.44519   0.00000  Uiso   1.00
N504   N     0.53397   0.33053   0.20514   0.00000  Uiso   1.00
N505   N     0.95320   0.49607   0.97814   0.00000  Uiso   1.00
N506   N     0.73956   0.37592   0.43056   0.00000  Uiso   1.00
C507   C     0.47473   0.35598   0.69685   0.00000  Uiso   1.00
C508   C     0.50650   0.29989   0.68521   0.00000  Uiso   1.00
C509   C     0.57392   0.29569   0.65670   0.00000  Uiso   1.00
C510   C     0.59304   0.24042   0.65040   0.00000  Uiso   1.00
C511   C     0.64948   0.16084   0.62904   0.00000  Uiso   1.00
C512   C     0.43197   0.37392   0.65889   0.00000  Uiso   1.00
C513   C     0.43672   0.43197   0.60826   0.00000  Uiso   1.00
C514   C     0.39310   0.43902   0.57981   0.00000  Uiso   1.00
C515   C     0.33379   0.47438   0.51761   0.00000  Uiso   1.00
C516   C     0.42681   0.33198   0.77351   0.00000  Uiso   1.00
C517   C     0.42722   0.35478   0.81926   0.00000  Uiso   1.00
C518   C     0.37924   0.32652   0.88731   0.00000  Uiso   1.00
C519   C     0.31193   0.29677   0.00308   0.00000  Uiso   1.00
C520   C     0.38879   0.26529   0.73635   0.00000  Uiso   1.00
C521   C     0.45982   0.25063   0.70667   0.00000  Uiso   1.00
C522   C     0.47884   0.19536   0.70041   0.00000  Uiso   1.00
C523   C     0.54628   0.19108   0.67190   0.00000  Uiso   1.00
C524   C     0.38529   0.32466   0.68034   0.00000  Uiso   1.00
C525   C     0.34164   0.33163   0.65196   0.00000  Uiso   1.00
C526   C     0.34633   0.38967   0.60130   0.00000  Uiso   1.00
C527   C     0.38014   0.28272   0.79497   0.00000  Uiso   1.00
C528   C     0.33214   0.25444   0.86296   0.00000  Uiso   1.00
C529   C     0.33248   0.27718   0.90880   0.00000  Uiso   1.00
H530   H     0.51107   0.39433   0.68014   0.00000  Uiso   1.00
H531   H     0.61003   0.33383   0.64010   0.00000  Uiso   1.00
H532   H     0.47285   0.47008   0.59167   0.00000  Uiso   1.00
H533   H     0.46335   0.39289   0.80263   0.00000  Uiso   1.00
H534   H     0.69917   0.24503   0.60515   0.00000  Uiso   1.00
H535   H     0.40990   0.53233   0.50304   0.00000  Uiso   1.00
H536   H     0.38987   0.36958   0.94790   0.00000  Uiso   1.00
H537   H     0.35244   0.22694   0.75306   0.00000  Uiso   1.00
H538   H     0.44271   0.15725   0.71702   0.00000  Uiso   1.00
H539   H     0.30552   0.29350   0.66858   0.00000  Uiso   1.00
H540   H     0.29603   0.21632   0.87955   0.00000  Uiso   1.00
H541   H     0.56336   0.10171   0.66757   0.00000  Uiso   1.00
H542   H     0.27409   0.38902   0.56547   0.00000  Uiso   1.00
H543   H     0.25406   0.22626   0.01033   0.00000  Uiso   1.00
O544   O     0.69351   0.13055   0.61131   0.00000  Uiso   1.00
O545   O     0.31398   0.50749   0.47737   0.00000  Uiso   1.00
O546   O     0.28771   0.29395   0.06102   0.00000  Uiso   1.00
N547   N     0.65482   0.22086   0.62480   0.00000  Uiso   1.00
N548   N     0.38437   0.48947   0.52933   0.00000  Uiso   1.00
N549   N     0.36564   0.33732   0.94523   0.00000  Uiso   1.00
N550   N     0.58174   0.14374   0.65839   0.00000  Uiso   1.00
N551   N     0.31130   0.41235   0.56292   0.00000  Uiso   1.00
N552   N     0.29256   0.26020   0.97882   0.00000  Uiso   1.00
