data_job_00885
_audit_creation_date              2018-12-19
_audit_creation_method            'Materials Studio'
_symmetry_space_group_name_H-M    'P1'
_symmetry_Int_Tables_number       1
_symmetry_cell_setting            triclinic
loop_
_symmetry_equiv_pos_as_xyz
  x,y,z
_cell_length_a                    13.0097
_cell_length_b                    16.3593
_cell_length_c                    12.4382
_cell_angle_alpha                 90.0000
_cell_angle_beta                  90.0000
_cell_angle_gamma                 90.0000
loop_
_atom_site_label
_atom_site_type_symbol
_atom_site_fract_x
_atom_site_fract_y
_atom_site_fract_z
_atom_site_U_iso_or_equiv
_atom_site_adp_type
_atom_site_occupancy
C1     C     0.11567   0.76335   0.81741   0.00000  Uiso   1.00
C2     C     0.06240   0.79621   0.71711   0.00000  Uiso   1.00
C3     C     0.09132   0.86526   0.65979   0.00000  Uiso   1.00
C4     C     0.03265   0.88516   0.57030   0.00000  Uiso   1.00
C5     C     0.96277   0.94343   0.41930   0.00000  Uiso   1.00
C6     C     0.03306   0.75873   0.90417   0.00000  Uiso   1.00
C7     C     0.03731   0.79627   0.00414   0.00000  Uiso   1.00
C8     C     0.95394   0.78461   0.07212   0.00000  Uiso   1.00
C9     C     0.83854   0.78464   0.21158   0.00000  Uiso   1.00
C10    C     0.14489   0.67520   0.79188   0.00000  Uiso   1.00
C11    C     0.24317   0.64248   0.79746   0.00000  Uiso   1.00
C12    C     0.25396   0.56049   0.77093   0.00000  Uiso   1.00
C13    C     0.31220   0.43082   0.73603   0.00000  Uiso   1.00
C14    C     0.96006   0.67591   0.76040   0.00000  Uiso   1.00
C15    C     0.97788   0.74871   0.68615   0.00000  Uiso   1.00
C16    C     0.91915   0.76851   0.59672   0.00000  Uiso   1.00
C17    C     0.94798   0.83758   0.53928   0.00000  Uiso   1.00
C18    C     0.94854   0.71124   0.87321   0.00000  Uiso   1.00
C19    C     0.86515   0.69952   0.94107   0.00000  Uiso   1.00
C20    C     0.86927   0.73703   0.04111   0.00000  Uiso   1.00
C21    C     0.06037   0.62770   0.76092   0.00000  Uiso   1.00
C22    C     0.07101   0.54574   0.73438   0.00000  Uiso   1.00
C23    C     0.16928   0.51291   0.73991   0.00000  Uiso   1.00
H24    H     0.18147   0.80033   0.84152   0.00000  Uiso   1.00
H25    H     0.15673   0.90201   0.68378   0.00000  Uiso   1.00
H26    H     0.10273   0.83301   0.02808   0.00000  Uiso   1.00
H27    H     0.30856   0.67926   0.82142   0.00000  Uiso   1.00
H28    H     0.09200   0.99380   0.49527   0.00000  Uiso   1.00
H29    H     0.97817   0.84830   0.22126   0.00000  Uiso   1.00
H30    H     0.41220   0.52408   0.78549   0.00000  Uiso   1.00
H31    H     0.89425   0.63893   0.73630   0.00000  Uiso   1.00
H32    H     0.85375   0.73174   0.57278   0.00000  Uiso   1.00
H33    H     0.79976   0.66275   0.91708   0.00000  Uiso   1.00
H34    H     0.00558   0.50900   0.71043   0.00000  Uiso   1.00
H35    H     0.84609   0.85562   0.40518   0.00000  Uiso   1.00
H36    H     0.73226   0.71011   0.13117   0.00000  Uiso   1.00
H37    H     0.16629   0.38589   0.69540   0.00000  Uiso   1.00
O38    O     0.94757   0.98870   0.34458   0.00000  Uiso   1.00
O39    O     0.79824   0.79779   0.29705   0.00000  Uiso   1.00
O40    O     0.36767   0.37242   0.72533   0.00000  Uiso   1.00
N41    N     0.03970   0.94853   0.49650   0.00000  Uiso   1.00
N42    N     0.93327   0.81251   0.17524   0.00000  Uiso   1.00
N43    N     0.33904   0.50938   0.76786   0.00000  Uiso   1.00
N44    N     0.90738   0.87417   0.44802   0.00000  Uiso   1.00
N45    N     0.80094   0.73815   0.12677   0.00000  Uiso   1.00
N46    N     0.20672   0.43502   0.71939   0.00000  Uiso   1.00
C47    C     0.88433   0.23665   0.31741   0.00000  Uiso   1.00
C48    C     0.93760   0.20379   0.21711   0.00000  Uiso   1.00
C49    C     0.90868   0.13474   0.15979   0.00000  Uiso   1.00
C50    C     0.96735   0.11484   0.07030   0.00000  Uiso   1.00
C51    C     0.03723   0.05657   0.91930   0.00000  Uiso   1.00
C52    C     0.96694   0.24127   0.40417   0.00000  Uiso   1.00
C53    C     0.96269   0.20373   0.50414   0.00000  Uiso   1.00
C54    C     0.04606   0.21539   0.57212   0.00000  Uiso   1.00
C55    C     0.16146   0.21536   0.71158   0.00000  Uiso   1.00
C56    C     0.85511   0.32480   0.29188   0.00000  Uiso   1.00
C57    C     0.75683   0.35752   0.29746   0.00000  Uiso   1.00
C58    C     0.74604   0.43951   0.27093   0.00000  Uiso   1.00
C59    C     0.68780   0.56918   0.23603   0.00000  Uiso   1.00
C60    C     0.03994   0.32409   0.26040   0.00000  Uiso   1.00
C61    C     0.02212   0.25129   0.18615   0.00000  Uiso   1.00
C62    C     0.08085   0.23149   0.09672   0.00000  Uiso   1.00
C63    C     0.05202   0.16242   0.03928   0.00000  Uiso   1.00
C64    C     0.05146   0.28876   0.37321   0.00000  Uiso   1.00
C65    C     0.13485   0.30048   0.44107   0.00000  Uiso   1.00
C66    C     0.13073   0.26297   0.54111   0.00000  Uiso   1.00
C67    C     0.93963   0.37230   0.26092   0.00000  Uiso   1.00
C68    C     0.92899   0.45426   0.23438   0.00000  Uiso   1.00
C69    C     0.83072   0.48709   0.23991   0.00000  Uiso   1.00
H70    H     0.81853   0.19967   0.34152   0.00000  Uiso   1.00
H71    H     0.84327   0.09799   0.18378   0.00000  Uiso   1.00
H72    H     0.89727   0.16699   0.52808   0.00000  Uiso   1.00
H73    H     0.69144   0.32074   0.32142   0.00000  Uiso   1.00
H74    H     0.90800   0.00620   0.99527   0.00000  Uiso   1.00
H75    H     0.02183   0.15170   0.72126   0.00000  Uiso   1.00
H76    H     0.58780   0.47592   0.28549   0.00000  Uiso   1.00
H77    H     0.10575   0.36107   0.23630   0.00000  Uiso   1.00
H78    H     0.14625   0.26826   0.07278   0.00000  Uiso   1.00
H79    H     0.20024   0.33725   0.41708   0.00000  Uiso   1.00
H80    H     0.99442   0.49100   0.21043   0.00000  Uiso   1.00
H81    H     0.15391   0.14438   0.90518   0.00000  Uiso   1.00
H82    H     0.26774   0.28989   0.63117   0.00000  Uiso   1.00
H83    H     0.83371   0.61411   0.19540   0.00000  Uiso   1.00
O84    O     0.05243   0.01130   0.84458   0.00000  Uiso   1.00
O85    O     0.20176   0.20221   0.79705   0.00000  Uiso   1.00
O86    O     0.63233   0.62758   0.22533   0.00000  Uiso   1.00
N87    N     0.96030   0.05147   0.99650   0.00000  Uiso   1.00
N88    N     0.06673   0.18749   0.67524   0.00000  Uiso   1.00
N89    N     0.66096   0.49062   0.26786   0.00000  Uiso   1.00
N90    N     0.09262   0.12583   0.94802   0.00000  Uiso   1.00
N91    N     0.19906   0.26185   0.62677   0.00000  Uiso   1.00
N92    N     0.79328   0.56498   0.21939   0.00000  Uiso   1.00
C93    C     0.61567   0.73665   0.81741   0.00000  Uiso   1.00
C94    C     0.56240   0.70379   0.71711   0.00000  Uiso   1.00
C95    C     0.59132   0.63474   0.65979   0.00000  Uiso   1.00
C96    C     0.53265   0.61484   0.57030   0.00000  Uiso   1.00
C97    C     0.46277   0.55657   0.41930   0.00000  Uiso   1.00
C98    C     0.53306   0.74127   0.90417   0.00000  Uiso   1.00
C99    C     0.53731   0.70373   0.00414   0.00000  Uiso   1.00
C100   C     0.45394   0.71539   0.07212   0.00000  Uiso   1.00
C101   C     0.33854   0.71536   0.21158   0.00000  Uiso   1.00
C102   C     0.64489   0.82480   0.79188   0.00000  Uiso   1.00
C103   C     0.74317   0.85752   0.79746   0.00000  Uiso   1.00
C104   C     0.75396   0.93951   0.77093   0.00000  Uiso   1.00
C105   C     0.81220   0.06918   0.73603   0.00000  Uiso   1.00
C106   C     0.46006   0.82409   0.76040   0.00000  Uiso   1.00
C107   C     0.47788   0.75129   0.68615   0.00000  Uiso   1.00
C108   C     0.41915   0.73149   0.59672   0.00000  Uiso   1.00
C109   C     0.44798   0.66242   0.53928   0.00000  Uiso   1.00
C110   C     0.44854   0.78876   0.87321   0.00000  Uiso   1.00
C111   C     0.36515   0.80048   0.94107   0.00000  Uiso   1.00
C112   C     0.36927   0.76297   0.04111   0.00000  Uiso   1.00
C113   C     0.56037   0.87230   0.76092   0.00000  Uiso   1.00
C114   C     0.57101   0.95426   0.73438   0.00000  Uiso   1.00
C115   C     0.66928   0.98709   0.73991   0.00000  Uiso   1.00
H116   H     0.68147   0.69967   0.84152   0.00000  Uiso   1.00
H117   H     0.65673   0.59799   0.68378   0.00000  Uiso   1.00
H118   H     0.60273   0.66699   0.02808   0.00000  Uiso   1.00
H119   H     0.80856   0.82074   0.82142   0.00000  Uiso   1.00
H120   H     0.59200   0.50620   0.49527   0.00000  Uiso   1.00
H121   H     0.47817   0.65170   0.22126   0.00000  Uiso   1.00
H122   H     0.91220   0.97592   0.78549   0.00000  Uiso   1.00
H123   H     0.39425   0.86107   0.73630   0.00000  Uiso   1.00
H124   H     0.35375   0.76826   0.57278   0.00000  Uiso   1.00
H125   H     0.29976   0.83725   0.91708   0.00000  Uiso   1.00
H126   H     0.50558   0.99100   0.71043   0.00000  Uiso   1.00
H127   H     0.34609   0.64438   0.40518   0.00000  Uiso   1.00
H128   H     0.23226   0.78989   0.13117   0.00000  Uiso   1.00
H129   H     0.66629   0.11411   0.69540   0.00000  Uiso   1.00
O130   O     0.44757   0.51130   0.34458   0.00000  Uiso   1.00
O131   O     0.29824   0.70221   0.29705   0.00000  Uiso   1.00
O132   O     0.86767   0.12758   0.72533   0.00000  Uiso   1.00
N133   N     0.53970   0.55147   0.49650   0.00000  Uiso   1.00
N134   N     0.43327   0.68749   0.17524   0.00000  Uiso   1.00
N135   N     0.83904   0.99062   0.76786   0.00000  Uiso   1.00
N136   N     0.40738   0.62583   0.44802   0.00000  Uiso   1.00
N137   N     0.30094   0.76185   0.12677   0.00000  Uiso   1.00
N138   N     0.70672   0.06498   0.71939   0.00000  Uiso   1.00
C139   C     0.38433   0.26335   0.31741   0.00000  Uiso   1.00
C140   C     0.43760   0.29621   0.21711   0.00000  Uiso   1.00
C141   C     0.40868   0.36526   0.15979   0.00000  Uiso   1.00
C142   C     0.46735   0.38516   0.07030   0.00000  Uiso   1.00
C143   C     0.53723   0.44343   0.91930   0.00000  Uiso   1.00
C144   C     0.46694   0.25873   0.40417   0.00000  Uiso   1.00
C145   C     0.46269   0.29627   0.50414   0.00000  Uiso   1.00
C146   C     0.54606   0.28461   0.57212   0.00000  Uiso   1.00
C147   C     0.66146   0.28464   0.71158   0.00000  Uiso   1.00
C148   C     0.35511   0.17520   0.29188   0.00000  Uiso   1.00
C149   C     0.25683   0.14248   0.29746   0.00000  Uiso   1.00
C150   C     0.24604   0.06049   0.27093   0.00000  Uiso   1.00
C151   C     0.18780   0.93082   0.23603   0.00000  Uiso   1.00
C152   C     0.53994   0.17591   0.26040   0.00000  Uiso   1.00
C153   C     0.52212   0.24871   0.18615   0.00000  Uiso   1.00
C154   C     0.58085   0.26851   0.09672   0.00000  Uiso   1.00
C155   C     0.55202   0.33758   0.03928   0.00000  Uiso   1.00
C156   C     0.55146   0.21124   0.37321   0.00000  Uiso   1.00
C157   C     0.63485   0.19952   0.44107   0.00000  Uiso   1.00
C158   C     0.63073   0.23703   0.54111   0.00000  Uiso   1.00
C159   C     0.43963   0.12770   0.26092   0.00000  Uiso   1.00
C160   C     0.42899   0.04574   0.23438   0.00000  Uiso   1.00
C161   C     0.33072   0.01291   0.23991   0.00000  Uiso   1.00
H162   H     0.31853   0.30033   0.34152   0.00000  Uiso   1.00
H163   H     0.34327   0.40201   0.18378   0.00000  Uiso   1.00
H164   H     0.39727   0.33301   0.52808   0.00000  Uiso   1.00
H165   H     0.19144   0.17926   0.32142   0.00000  Uiso   1.00
H166   H     0.40800   0.49380   0.99527   0.00000  Uiso   1.00
H167   H     0.52183   0.34830   0.72126   0.00000  Uiso   1.00
H168   H     0.08780   0.02408   0.28549   0.00000  Uiso   1.00
H169   H     0.60575   0.13893   0.23630   0.00000  Uiso   1.00
H170   H     0.64625   0.23174   0.07278   0.00000  Uiso   1.00
H171   H     0.70024   0.16275   0.41708   0.00000  Uiso   1.00
H172   H     0.49442   0.00900   0.21043   0.00000  Uiso   1.00
H173   H     0.65391   0.35562   0.90518   0.00000  Uiso   1.00
H174   H     0.76774   0.21011   0.63117   0.00000  Uiso   1.00
H175   H     0.33371   0.88589   0.19540   0.00000  Uiso   1.00
O176   O     0.55243   0.48870   0.84458   0.00000  Uiso   1.00
O177   O     0.70176   0.29779   0.79705   0.00000  Uiso   1.00
O178   O     0.13233   0.87242   0.22533   0.00000  Uiso   1.00
N179   N     0.46030   0.44853   0.99650   0.00000  Uiso   1.00
N180   N     0.56673   0.31251   0.67524   0.00000  Uiso   1.00
N181   N     0.16096   0.00938   0.26786   0.00000  Uiso   1.00
N182   N     0.59262   0.37417   0.94802   0.00000  Uiso   1.00
N183   N     0.69906   0.23815   0.62677   0.00000  Uiso   1.00
N184   N     0.29328   0.93502   0.21939   0.00000  Uiso   1.00
