data_job_05213
_audit_creation_date              2018-12-19
_audit_creation_method            'Materials Studio'
_symmetry_space_group_name_H-M    'P1'
_symmetry_Int_Tables_number       1
_symmetry_cell_setting            triclinic
loop_
_symmetry_equiv_pos_as_xyz
  x,y,z
_cell_length_a                    11.6147
_cell_length_b                    7.0714
_cell_length_c                    29.8533
_cell_angle_alpha                 90.0000
_cell_angle_beta                  103.9593
_cell_angle_gamma                 90.0000
loop_
_atom_site_label
_atom_site_type_symbol
_atom_site_fract_x
_atom_site_fract_y
_atom_site_fract_z
_atom_site_U_iso_or_equiv
_atom_site_adp_type
_atom_site_occupancy
C1     C     0.61418   0.58690   0.37681   0.00000  Uiso   1.00
C2     C     0.64111   0.65378   0.42682   0.00000  Uiso   1.00
C3     C     0.62727   0.54748   0.46425   0.00000  Uiso   1.00
C4     C     0.65676   0.63426   0.50722   0.00000  Uiso   1.00
C5     C     0.69215   0.70979   0.58407   0.00000  Uiso   1.00
C6     C     0.52564   0.72839   0.34930   0.00000  Uiso   1.00
C7     C     0.41473   0.68480   0.32154   0.00000  Uiso   1.00
C8     C     0.34704   0.83440   0.29925   0.00000  Uiso   1.00
C9     C     0.20322   0.02574   0.25571   0.00000  Uiso   1.00
C10    C     0.72852   0.61371   0.36099   0.00000  Uiso   1.00
C11    C     0.78818   0.47371   0.34306   0.00000  Uiso   1.00
C12    C     0.89128   0.52676   0.33060   0.00000  Uiso   1.00
C13    C     0.06246   0.54003   0.30522   0.00000  Uiso   1.00
C14    C     0.69117   0.93007   0.38657   0.00000  Uiso   1.00
C15    C     0.68292   0.84018   0.43212   0.00000  Uiso   1.00
C16    C     0.71245   0.92715   0.47505   0.00000  Uiso   1.00
C17    C     0.69865   0.82099   0.51253   0.00000  Uiso   1.00
C18    C     0.56746   0.91478   0.35460   0.00000  Uiso   1.00
C19    C     0.49992   0.06448   0.33234   0.00000  Uiso   1.00
C20    C     0.38893   0.02113   0.30456   0.00000  Uiso   1.00
C21    C     0.77034   0.80010   0.36630   0.00000  Uiso   1.00
C22    C     0.87336   0.85338   0.35386   0.00000  Uiso   1.00
C23    C     0.93317   0.71349   0.33591   0.00000  Uiso   1.00
H24    H     0.58161   0.44179   0.37268   0.00000  Uiso   1.00
H25    H     0.59489   0.40324   0.46013   0.00000  Uiso   1.00
H26    H     0.38240   0.54055   0.31744   0.00000  Uiso   1.00
H27    H     0.75579   0.32948   0.33896   0.00000  Uiso   1.00
H28    H     0.62801   0.44272   0.55942   0.00000  Uiso   1.00
H29    H     0.17998   0.73223   0.25854   0.00000  Uiso   1.00
H30    H     0.96735   0.28716   0.30391   0.00000  Uiso   1.00
H31    H     0.72372   0.07519   0.39070   0.00000  Uiso   1.00
H32    H     0.74480   0.07140   0.47914   0.00000  Uiso   1.00
H33    H     0.53231   0.20870   0.33645   0.00000  Uiso   1.00
H34    H     0.90570   0.99764   0.35797   0.00000  Uiso   1.00
H35    H     0.74968   0.98502   0.57485   0.00000  Uiso   1.00
H36    H     0.30165   0.27453   0.27397   0.00000  Uiso   1.00
H37    H     0.08902   0.82946   0.31934   0.00000  Uiso   1.00
O38    O     0.70011   0.69997   0.62499   0.00000  Uiso   1.00
O39    O     0.11233   0.07978   0.23024   0.00000  Uiso   1.00
O40    O     0.14533   0.49586   0.28977   0.00000  Uiso   1.00
N41    N     0.65378   0.57086   0.55092   0.00000  Uiso   1.00
N42    N     0.23489   0.84154   0.26962   0.00000  Uiso   1.00
N43    N     0.97099   0.42544   0.31202   0.00000  Uiso   1.00
N44    N     0.71925   0.86267   0.55922   0.00000  Uiso   1.00
N45    N     0.30036   0.13335   0.27792   0.00000  Uiso   1.00
N46    N     0.03646   0.71725   0.32033   0.00000  Uiso   1.00
C47    C     0.38582   0.58690   0.12319   0.00000  Uiso   1.00
C48    C     0.35889   0.65378   0.07318   0.00000  Uiso   1.00
C49    C     0.37273   0.54748   0.03575   0.00000  Uiso   1.00
C50    C     0.34324   0.63426   0.99278   0.00000  Uiso   1.00
C51    C     0.30785   0.70979   0.91593   0.00000  Uiso   1.00
C52    C     0.47436   0.72839   0.15070   0.00000  Uiso   1.00
C53    C     0.58527   0.68480   0.17846   0.00000  Uiso   1.00
C54    C     0.65296   0.83440   0.20075   0.00000  Uiso   1.00
C55    C     0.79678   0.02574   0.24429   0.00000  Uiso   1.00
C56    C     0.27148   0.61371   0.13901   0.00000  Uiso   1.00
C57    C     0.21182   0.47371   0.15694   0.00000  Uiso   1.00
C58    C     0.10872   0.52676   0.16940   0.00000  Uiso   1.00
C59    C     0.93754   0.54003   0.19478   0.00000  Uiso   1.00
C60    C     0.30883   0.93007   0.11343   0.00000  Uiso   1.00
C61    C     0.31708   0.84018   0.06788   0.00000  Uiso   1.00
C62    C     0.28755   0.92715   0.02495   0.00000  Uiso   1.00
C63    C     0.30135   0.82099   0.98747   0.00000  Uiso   1.00
C64    C     0.43254   0.91478   0.14540   0.00000  Uiso   1.00
C65    C     0.50008   0.06448   0.16766   0.00000  Uiso   1.00
C66    C     0.61107   0.02113   0.19544   0.00000  Uiso   1.00
C67    C     0.22966   0.80010   0.13370   0.00000  Uiso   1.00
C68    C     0.12664   0.85338   0.14614   0.00000  Uiso   1.00
C69    C     0.06683   0.71349   0.16409   0.00000  Uiso   1.00
H70    H     0.41839   0.44179   0.12732   0.00000  Uiso   1.00
H71    H     0.40511   0.40324   0.03987   0.00000  Uiso   1.00
H72    H     0.61760   0.54055   0.18256   0.00000  Uiso   1.00
H73    H     0.24421   0.32948   0.16104   0.00000  Uiso   1.00
H74    H     0.37199   0.44272   0.94058   0.00000  Uiso   1.00
H75    H     0.82002   0.73223   0.24146   0.00000  Uiso   1.00
H76    H     0.03265   0.28716   0.19609   0.00000  Uiso   1.00
H77    H     0.27628   0.07519   0.10930   0.00000  Uiso   1.00
H78    H     0.25520   0.07140   0.02086   0.00000  Uiso   1.00
H79    H     0.46769   0.20870   0.16355   0.00000  Uiso   1.00
H80    H     0.09430   0.99764   0.14203   0.00000  Uiso   1.00
H81    H     0.25032   0.98502   0.92515   0.00000  Uiso   1.00
H82    H     0.69835   0.27453   0.22603   0.00000  Uiso   1.00
H83    H     0.91098   0.82946   0.18066   0.00000  Uiso   1.00
O84    O     0.29989   0.69997   0.87501   0.00000  Uiso   1.00
O85    O     0.88767   0.07978   0.26976   0.00000  Uiso   1.00
O86    O     0.85467   0.49586   0.21023   0.00000  Uiso   1.00
N87    N     0.34622   0.57086   0.94908   0.00000  Uiso   1.00
N88    N     0.76511   0.84154   0.23038   0.00000  Uiso   1.00
N89    N     0.02901   0.42544   0.18798   0.00000  Uiso   1.00
N90    N     0.28075   0.86267   0.94078   0.00000  Uiso   1.00
N91    N     0.69964   0.13335   0.22208   0.00000  Uiso   1.00
N92    N     0.96354   0.71725   0.17967   0.00000  Uiso   1.00
C93    C     0.38582   0.41310   0.62319   0.00000  Uiso   1.00
C94    C     0.35889   0.34622   0.57318   0.00000  Uiso   1.00
C95    C     0.37273   0.45252   0.53575   0.00000  Uiso   1.00
C96    C     0.34324   0.36574   0.49278   0.00000  Uiso   1.00
C97    C     0.30785   0.29021   0.41593   0.00000  Uiso   1.00
C98    C     0.47436   0.27161   0.65070   0.00000  Uiso   1.00
C99    C     0.58527   0.31520   0.67846   0.00000  Uiso   1.00
C100   C     0.65296   0.16560   0.70075   0.00000  Uiso   1.00
C101   C     0.79678   0.97426   0.74429   0.00000  Uiso   1.00
C102   C     0.27148   0.38629   0.63901   0.00000  Uiso   1.00
C103   C     0.21182   0.52629   0.65694   0.00000  Uiso   1.00
C104   C     0.10872   0.47324   0.66940   0.00000  Uiso   1.00
C105   C     0.93754   0.45997   0.69478   0.00000  Uiso   1.00
C106   C     0.30883   0.06993   0.61343   0.00000  Uiso   1.00
C107   C     0.31708   0.15982   0.56788   0.00000  Uiso   1.00
C108   C     0.28755   0.07285   0.52495   0.00000  Uiso   1.00
C109   C     0.30135   0.17901   0.48747   0.00000  Uiso   1.00
C110   C     0.43254   0.08522   0.64540   0.00000  Uiso   1.00
C111   C     0.50008   0.93552   0.66766   0.00000  Uiso   1.00
C112   C     0.61107   0.97887   0.69544   0.00000  Uiso   1.00
C113   C     0.22966   0.19990   0.63370   0.00000  Uiso   1.00
C114   C     0.12664   0.14662   0.64614   0.00000  Uiso   1.00
C115   C     0.06683   0.28651   0.66409   0.00000  Uiso   1.00
H116   H     0.41839   0.55821   0.62732   0.00000  Uiso   1.00
H117   H     0.40511   0.59676   0.53987   0.00000  Uiso   1.00
H118   H     0.61760   0.45945   0.68256   0.00000  Uiso   1.00
H119   H     0.24421   0.67052   0.66104   0.00000  Uiso   1.00
H120   H     0.37199   0.55728   0.44058   0.00000  Uiso   1.00
H121   H     0.82002   0.26777   0.74146   0.00000  Uiso   1.00
H122   H     0.03265   0.71284   0.69609   0.00000  Uiso   1.00
H123   H     0.27628   0.92481   0.60930   0.00000  Uiso   1.00
H124   H     0.25520   0.92860   0.52086   0.00000  Uiso   1.00
H125   H     0.46769   0.79130   0.66355   0.00000  Uiso   1.00
H126   H     0.09430   0.00236   0.64203   0.00000  Uiso   1.00
H127   H     0.25032   0.01498   0.42515   0.00000  Uiso   1.00
H128   H     0.69835   0.72547   0.72603   0.00000  Uiso   1.00
H129   H     0.91098   0.17054   0.68066   0.00000  Uiso   1.00
O130   O     0.29989   0.30003   0.37501   0.00000  Uiso   1.00
O131   O     0.88767   0.92022   0.76976   0.00000  Uiso   1.00
O132   O     0.85467   0.50414   0.71023   0.00000  Uiso   1.00
N133   N     0.34622   0.42914   0.44908   0.00000  Uiso   1.00
N134   N     0.76511   0.15846   0.73038   0.00000  Uiso   1.00
N135   N     0.02901   0.57456   0.68798   0.00000  Uiso   1.00
N136   N     0.28075   0.13733   0.44078   0.00000  Uiso   1.00
N137   N     0.69964   0.86665   0.72208   0.00000  Uiso   1.00
N138   N     0.96354   0.28275   0.67967   0.00000  Uiso   1.00
C139   C     0.61418   0.41310   0.87681   0.00000  Uiso   1.00
C140   C     0.64111   0.34622   0.92682   0.00000  Uiso   1.00
C141   C     0.62727   0.45252   0.96425   0.00000  Uiso   1.00
C142   C     0.65676   0.36574   0.00722   0.00000  Uiso   1.00
C143   C     0.69215   0.29021   0.08407   0.00000  Uiso   1.00
C144   C     0.52564   0.27161   0.84930   0.00000  Uiso   1.00
C145   C     0.41473   0.31520   0.82154   0.00000  Uiso   1.00
C146   C     0.34704   0.16560   0.79925   0.00000  Uiso   1.00
C147   C     0.20322   0.97426   0.75571   0.00000  Uiso   1.00
C148   C     0.72852   0.38629   0.86099   0.00000  Uiso   1.00
C149   C     0.78818   0.52629   0.84306   0.00000  Uiso   1.00
C150   C     0.89128   0.47324   0.83060   0.00000  Uiso   1.00
C151   C     0.06246   0.45997   0.80522   0.00000  Uiso   1.00
C152   C     0.69117   0.06993   0.88657   0.00000  Uiso   1.00
C153   C     0.68292   0.15982   0.93212   0.00000  Uiso   1.00
C154   C     0.71245   0.07285   0.97505   0.00000  Uiso   1.00
C155   C     0.69865   0.17901   0.01253   0.00000  Uiso   1.00
C156   C     0.56746   0.08522   0.85460   0.00000  Uiso   1.00
C157   C     0.49992   0.93552   0.83234   0.00000  Uiso   1.00
C158   C     0.38893   0.97887   0.80456   0.00000  Uiso   1.00
C159   C     0.77034   0.19990   0.86630   0.00000  Uiso   1.00
C160   C     0.87336   0.14662   0.85386   0.00000  Uiso   1.00
C161   C     0.93317   0.28651   0.83591   0.00000  Uiso   1.00
H162   H     0.58161   0.55821   0.87268   0.00000  Uiso   1.00
H163   H     0.59489   0.59676   0.96013   0.00000  Uiso   1.00
H164   H     0.38240   0.45945   0.81744   0.00000  Uiso   1.00
H165   H     0.75579   0.67052   0.83896   0.00000  Uiso   1.00
H166   H     0.62801   0.55728   0.05942   0.00000  Uiso   1.00
H167   H     0.17998   0.26777   0.75854   0.00000  Uiso   1.00
H168   H     0.96735   0.71284   0.80391   0.00000  Uiso   1.00
H169   H     0.72372   0.92481   0.89070   0.00000  Uiso   1.00
H170   H     0.74480   0.92860   0.97914   0.00000  Uiso   1.00
H171   H     0.53231   0.79130   0.83645   0.00000  Uiso   1.00
H172   H     0.90570   0.00236   0.85797   0.00000  Uiso   1.00
H173   H     0.74968   0.01498   0.07485   0.00000  Uiso   1.00
H174   H     0.30165   0.72547   0.77397   0.00000  Uiso   1.00
H175   H     0.08902   0.17054   0.81934   0.00000  Uiso   1.00
O176   O     0.70011   0.30003   0.12499   0.00000  Uiso   1.00
O177   O     0.11233   0.92022   0.73024   0.00000  Uiso   1.00
O178   O     0.14533   0.50414   0.78977   0.00000  Uiso   1.00
N179   N     0.65378   0.42914   0.05092   0.00000  Uiso   1.00
N180   N     0.23489   0.15846   0.76962   0.00000  Uiso   1.00
N181   N     0.97099   0.57456   0.81202   0.00000  Uiso   1.00
N182   N     0.71925   0.13733   0.05922   0.00000  Uiso   1.00
N183   N     0.30036   0.86665   0.77792   0.00000  Uiso   1.00
N184   N     0.03646   0.28275   0.82033   0.00000  Uiso   1.00
