data_job_02128
_audit_creation_date              2018-12-19
_audit_creation_method            'Materials Studio'
_symmetry_space_group_name_H-M    'P1'
_symmetry_Int_Tables_number       1
_symmetry_cell_setting            triclinic
loop_
_symmetry_equiv_pos_as_xyz
  x,y,z
_cell_length_a                    15.1204
_cell_length_b                    17.6854
_cell_length_c                    17.8822
_cell_angle_alpha                 90.0000
_cell_angle_beta                  90.0000
_cell_angle_gamma                 90.0000
loop_
_atom_site_label
_atom_site_type_symbol
_atom_site_fract_x
_atom_site_fract_y
_atom_site_fract_z
_atom_site_U_iso_or_equiv
_atom_site_adp_type
_atom_site_occupancy
C1     C     0.82454   0.13296   0.72461   0.00000  Uiso   1.00
C2     C     0.87326   0.20491   0.70198   0.00000  Uiso   1.00
C3     C     0.95430   0.20805   0.66569   0.00000  Uiso   1.00
C4     C     0.98780   0.27938   0.64989   0.00000  Uiso   1.00
C5     C     0.07045   0.38110   0.61177   0.00000  Uiso   1.00
C6     C     0.80889   0.13918   0.80863   0.00000  Uiso   1.00
C7     C     0.83580   0.08706   0.86200   0.00000  Uiso   1.00
C8     C     0.81510   0.10305   0.93597   0.00000  Uiso   1.00
C9     C     0.79776   0.10269   0.06342   0.00000  Uiso   1.00
C10    C     0.73351   0.13776   0.68823   0.00000  Uiso   1.00
C11    C     0.69703   0.08442   0.64038   0.00000  Uiso   1.00
C12    C     0.61286   0.09921   0.61300   0.00000  Uiso   1.00
C13    C     0.47848   0.09664   0.55350   0.00000  Uiso   1.00
C14    C     0.73993   0.25403   0.76109   0.00000  Uiso   1.00
C15    C     0.82729   0.27067   0.72180   0.00000  Uiso   1.00
C16    C     0.86068   0.34201   0.70605   0.00000  Uiso   1.00
C17    C     0.94175   0.34526   0.66973   0.00000  Uiso   1.00
C18    C     0.76293   0.20494   0.82844   0.00000  Uiso   1.00
C19    C     0.74218   0.22101   0.90236   0.00000  Uiso   1.00
C20    C     0.76906   0.16893   0.95582   0.00000  Uiso   1.00
C21    C     0.68755   0.20352   0.70804   0.00000  Uiso   1.00
C22    C     0.60341   0.21839   0.68073   0.00000  Uiso   1.00
C23    C     0.56681   0.16509   0.63285   0.00000  Uiso   1.00
H24    H     0.86033   0.08176   0.70919   0.00000  Uiso   1.00
H25    H     0.98985   0.15715   0.65037   0.00000  Uiso   1.00
H26    H     0.87136   0.03617   0.84665   0.00000  Uiso   1.00
H27    H     0.73262   0.03354   0.62506   0.00000  Uiso   1.00
H28    H     0.11319   0.26973   0.59392   0.00000  Uiso   1.00
H29    H     0.86332   0.01462   0.00778   0.00000  Uiso   1.00
H30    H     0.57076   0.00908   0.54052   0.00000  Uiso   1.00
H31    H     0.70414   0.30523   0.77652   0.00000  Uiso   1.00
H32    H     0.82510   0.39289   0.72139   0.00000  Uiso   1.00
H33    H     0.70661   0.27191   0.91767   0.00000  Uiso   1.00
H34    H     0.56787   0.26928   0.69608   0.00000  Uiso   1.00
H35    H     0.97948   0.46107   0.65156   0.00000  Uiso   1.00
H36    H     0.72960   0.20596   0.06542   0.00000  Uiso   1.00
H37    H     0.43704   0.20042   0.59816   0.00000  Uiso   1.00
O38    O     0.12873   0.41904   0.58528   0.00000  Uiso   1.00
O39    O     0.80090   0.08433   0.12824   0.00000  Uiso   1.00
O40    O     0.41706   0.07707   0.51521   0.00000  Uiso   1.00
N41    N     0.06512   0.30274   0.61504   0.00000  Uiso   1.00
N42    N     0.83152   0.06423   0.00197   0.00000  Uiso   1.00
N43    N     0.55798   0.05904   0.56514   0.00000  Uiso   1.00
N44    N     0.99316   0.40569   0.64605   0.00000  Uiso   1.00
N45    N     0.75956   0.16719   0.03299   0.00000  Uiso   1.00
N46    N     0.48603   0.16200   0.59615   0.00000  Uiso   1.00
C47    C     0.67546   0.36704   0.22461   0.00000  Uiso   1.00
C48    C     0.62674   0.29509   0.20198   0.00000  Uiso   1.00
C49    C     0.54570   0.29195   0.16569   0.00000  Uiso   1.00
C50    C     0.51220   0.22062   0.14989   0.00000  Uiso   1.00
C51    C     0.42955   0.11890   0.11177   0.00000  Uiso   1.00
C52    C     0.69111   0.36082   0.30863   0.00000  Uiso   1.00
C53    C     0.66420   0.41294   0.36200   0.00000  Uiso   1.00
C54    C     0.68490   0.39695   0.43597   0.00000  Uiso   1.00
C55    C     0.70224   0.39731   0.56342   0.00000  Uiso   1.00
C56    C     0.76649   0.36224   0.18823   0.00000  Uiso   1.00
C57    C     0.80297   0.41558   0.14038   0.00000  Uiso   1.00
C58    C     0.88714   0.40079   0.11300   0.00000  Uiso   1.00
C59    C     0.02152   0.40336   0.05350   0.00000  Uiso   1.00
C60    C     0.76007   0.24597   0.26109   0.00000  Uiso   1.00
C61    C     0.67271   0.22933   0.22180   0.00000  Uiso   1.00
C62    C     0.63932   0.15799   0.20605   0.00000  Uiso   1.00
C63    C     0.55825   0.15474   0.16973   0.00000  Uiso   1.00
C64    C     0.73707   0.29506   0.32844   0.00000  Uiso   1.00
C65    C     0.75782   0.27899   0.40236   0.00000  Uiso   1.00
C66    C     0.73094   0.33107   0.45582   0.00000  Uiso   1.00
C67    C     0.81245   0.29648   0.20804   0.00000  Uiso   1.00
C68    C     0.89659   0.28161   0.18073   0.00000  Uiso   1.00
C69    C     0.93319   0.33491   0.13285   0.00000  Uiso   1.00
H70    H     0.63967   0.41824   0.20919   0.00000  Uiso   1.00
H71    H     0.51015   0.34285   0.15037   0.00000  Uiso   1.00
H72    H     0.62864   0.46383   0.34665   0.00000  Uiso   1.00
H73    H     0.76738   0.46646   0.12506   0.00000  Uiso   1.00
H74    H     0.38681   0.23027   0.09392   0.00000  Uiso   1.00
H75    H     0.63668   0.48538   0.50778   0.00000  Uiso   1.00
H76    H     0.92924   0.49092   0.04052   0.00000  Uiso   1.00
H77    H     0.79586   0.19477   0.27652   0.00000  Uiso   1.00
H78    H     0.67490   0.10711   0.22139   0.00000  Uiso   1.00
H79    H     0.79339   0.22809   0.41767   0.00000  Uiso   1.00
H80    H     0.93213   0.23072   0.19608   0.00000  Uiso   1.00
H81    H     0.52052   0.03893   0.15156   0.00000  Uiso   1.00
H82    H     0.77040   0.29404   0.56542   0.00000  Uiso   1.00
H83    H     0.06296   0.29958   0.09816   0.00000  Uiso   1.00
O84    O     0.37127   0.08096   0.08528   0.00000  Uiso   1.00
O85    O     0.69910   0.41567   0.62824   0.00000  Uiso   1.00
O86    O     0.08294   0.42293   0.01521   0.00000  Uiso   1.00
N87    N     0.43488   0.19726   0.11504   0.00000  Uiso   1.00
N88    N     0.66848   0.43577   0.50197   0.00000  Uiso   1.00
N89    N     0.94202   0.44096   0.06514   0.00000  Uiso   1.00
N90    N     0.50684   0.09431   0.14605   0.00000  Uiso   1.00
N91    N     0.74044   0.33281   0.53299   0.00000  Uiso   1.00
N92    N     0.01397   0.33800   0.09615   0.00000  Uiso   1.00
C93    C     0.17546   0.13296   0.77539   0.00000  Uiso   1.00
C94    C     0.12674   0.20491   0.79802   0.00000  Uiso   1.00
C95    C     0.04570   0.20805   0.83431   0.00000  Uiso   1.00
C96    C     0.01220   0.27938   0.85011   0.00000  Uiso   1.00
C97    C     0.92955   0.38110   0.88823   0.00000  Uiso   1.00
C98    C     0.19111   0.13918   0.69137   0.00000  Uiso   1.00
C99    C     0.16420   0.08706   0.63800   0.00000  Uiso   1.00
C100   C     0.18490   0.10305   0.56403   0.00000  Uiso   1.00
C101   C     0.20224   0.10269   0.43658   0.00000  Uiso   1.00
C102   C     0.26649   0.13776   0.81177   0.00000  Uiso   1.00
C103   C     0.30297   0.08442   0.85962   0.00000  Uiso   1.00
C104   C     0.38714   0.09921   0.88700   0.00000  Uiso   1.00
C105   C     0.52152   0.09664   0.94650   0.00000  Uiso   1.00
C106   C     0.26007   0.25403   0.73891   0.00000  Uiso   1.00
C107   C     0.17271   0.27067   0.77820   0.00000  Uiso   1.00
C108   C     0.13932   0.34201   0.79395   0.00000  Uiso   1.00
C109   C     0.05825   0.34526   0.83027   0.00000  Uiso   1.00
C110   C     0.23707   0.20494   0.67156   0.00000  Uiso   1.00
C111   C     0.25782   0.22101   0.59764   0.00000  Uiso   1.00
C112   C     0.23094   0.16893   0.54418   0.00000  Uiso   1.00
C113   C     0.31245   0.20352   0.79196   0.00000  Uiso   1.00
C114   C     0.39659   0.21839   0.81927   0.00000  Uiso   1.00
C115   C     0.43319   0.16509   0.86715   0.00000  Uiso   1.00
H116   H     0.13967   0.08176   0.79081   0.00000  Uiso   1.00
H117   H     0.01015   0.15715   0.84963   0.00000  Uiso   1.00
H118   H     0.12864   0.03617   0.65335   0.00000  Uiso   1.00
H119   H     0.26738   0.03354   0.87494   0.00000  Uiso   1.00
H120   H     0.88681   0.26973   0.90608   0.00000  Uiso   1.00
H121   H     0.13668   0.01462   0.49222   0.00000  Uiso   1.00
H122   H     0.42924   0.00908   0.95948   0.00000  Uiso   1.00
H123   H     0.29586   0.30523   0.72348   0.00000  Uiso   1.00
H124   H     0.17490   0.39289   0.77861   0.00000  Uiso   1.00
H125   H     0.29339   0.27191   0.58233   0.00000  Uiso   1.00
H126   H     0.43213   0.26928   0.80392   0.00000  Uiso   1.00
H127   H     0.02052   0.46107   0.84844   0.00000  Uiso   1.00
H128   H     0.27040   0.20596   0.43458   0.00000  Uiso   1.00
H129   H     0.56296   0.20042   0.90184   0.00000  Uiso   1.00
O130   O     0.87127   0.41904   0.91472   0.00000  Uiso   1.00
O131   O     0.19910   0.08433   0.37176   0.00000  Uiso   1.00
O132   O     0.58294   0.07707   0.98479   0.00000  Uiso   1.00
N133   N     0.93488   0.30274   0.88496   0.00000  Uiso   1.00
N134   N     0.16848   0.06423   0.49803   0.00000  Uiso   1.00
N135   N     0.44202   0.05904   0.93486   0.00000  Uiso   1.00
N136   N     0.00684   0.40569   0.85395   0.00000  Uiso   1.00
N137   N     0.24044   0.16719   0.46701   0.00000  Uiso   1.00
N138   N     0.51397   0.16200   0.90385   0.00000  Uiso   1.00
C139   C     0.32454   0.36704   0.27539   0.00000  Uiso   1.00
C140   C     0.37326   0.29509   0.29802   0.00000  Uiso   1.00
C141   C     0.45430   0.29195   0.33431   0.00000  Uiso   1.00
C142   C     0.48780   0.22062   0.35011   0.00000  Uiso   1.00
C143   C     0.57045   0.11890   0.38823   0.00000  Uiso   1.00
C144   C     0.30889   0.36082   0.19137   0.00000  Uiso   1.00
C145   C     0.33580   0.41294   0.13800   0.00000  Uiso   1.00
C146   C     0.31510   0.39695   0.06403   0.00000  Uiso   1.00
C147   C     0.29776   0.39731   0.93658   0.00000  Uiso   1.00
C148   C     0.23351   0.36224   0.31177   0.00000  Uiso   1.00
C149   C     0.19703   0.41558   0.35962   0.00000  Uiso   1.00
C150   C     0.11286   0.40079   0.38700   0.00000  Uiso   1.00
C151   C     0.97848   0.40336   0.44650   0.00000  Uiso   1.00
C152   C     0.23993   0.24597   0.23891   0.00000  Uiso   1.00
C153   C     0.32729   0.22933   0.27820   0.00000  Uiso   1.00
C154   C     0.36068   0.15799   0.29395   0.00000  Uiso   1.00
C155   C     0.44175   0.15474   0.33027   0.00000  Uiso   1.00
C156   C     0.26293   0.29506   0.17156   0.00000  Uiso   1.00
C157   C     0.24218   0.27899   0.09764   0.00000  Uiso   1.00
C158   C     0.26906   0.33107   0.04418   0.00000  Uiso   1.00
C159   C     0.18755   0.29648   0.29196   0.00000  Uiso   1.00
C160   C     0.10341   0.28161   0.31927   0.00000  Uiso   1.00
C161   C     0.06681   0.33491   0.36715   0.00000  Uiso   1.00
H162   H     0.36033   0.41824   0.29081   0.00000  Uiso   1.00
H163   H     0.48985   0.34285   0.34963   0.00000  Uiso   1.00
H164   H     0.37136   0.46383   0.15335   0.00000  Uiso   1.00
H165   H     0.23262   0.46646   0.37494   0.00000  Uiso   1.00
H166   H     0.61319   0.23027   0.40608   0.00000  Uiso   1.00
H167   H     0.36332   0.48538   0.99222   0.00000  Uiso   1.00
H168   H     0.07076   0.49092   0.45948   0.00000  Uiso   1.00
H169   H     0.20414   0.19477   0.22348   0.00000  Uiso   1.00
H170   H     0.32510   0.10711   0.27861   0.00000  Uiso   1.00
H171   H     0.20661   0.22809   0.08233   0.00000  Uiso   1.00
H172   H     0.06787   0.23072   0.30392   0.00000  Uiso   1.00
H173   H     0.47948   0.03893   0.34844   0.00000  Uiso   1.00
H174   H     0.22960   0.29404   0.93458   0.00000  Uiso   1.00
H175   H     0.93704   0.29958   0.40184   0.00000  Uiso   1.00
O176   O     0.62873   0.08096   0.41472   0.00000  Uiso   1.00
O177   O     0.30090   0.41567   0.87176   0.00000  Uiso   1.00
O178   O     0.91706   0.42293   0.48479   0.00000  Uiso   1.00
N179   N     0.56512   0.19726   0.38496   0.00000  Uiso   1.00
N180   N     0.33152   0.43577   0.99803   0.00000  Uiso   1.00
N181   N     0.05798   0.44096   0.43486   0.00000  Uiso   1.00
N182   N     0.49316   0.09431   0.35395   0.00000  Uiso   1.00
N183   N     0.25956   0.33281   0.96701   0.00000  Uiso   1.00
N184   N     0.98603   0.33800   0.40385   0.00000  Uiso   1.00
C185   C     0.17546   0.86704   0.27539   0.00000  Uiso   1.00
C186   C     0.12674   0.79509   0.29802   0.00000  Uiso   1.00
C187   C     0.04570   0.79195   0.33431   0.00000  Uiso   1.00
C188   C     0.01220   0.72062   0.35011   0.00000  Uiso   1.00
C189   C     0.92955   0.61890   0.38823   0.00000  Uiso   1.00
C190   C     0.19111   0.86082   0.19137   0.00000  Uiso   1.00
C191   C     0.16420   0.91294   0.13800   0.00000  Uiso   1.00
C192   C     0.18490   0.89695   0.06403   0.00000  Uiso   1.00
C193   C     0.20224   0.89731   0.93658   0.00000  Uiso   1.00
C194   C     0.26649   0.86224   0.31177   0.00000  Uiso   1.00
C195   C     0.30297   0.91558   0.35962   0.00000  Uiso   1.00
C196   C     0.38714   0.90079   0.38700   0.00000  Uiso   1.00
C197   C     0.52152   0.90336   0.44650   0.00000  Uiso   1.00
C198   C     0.26007   0.74597   0.23891   0.00000  Uiso   1.00
C199   C     0.17271   0.72933   0.27820   0.00000  Uiso   1.00
C200   C     0.13932   0.65799   0.29395   0.00000  Uiso   1.00
C201   C     0.05825   0.65474   0.33027   0.00000  Uiso   1.00
C202   C     0.23707   0.79506   0.17156   0.00000  Uiso   1.00
C203   C     0.25782   0.77899   0.09764   0.00000  Uiso   1.00
C204   C     0.23094   0.83107   0.04418   0.00000  Uiso   1.00
C205   C     0.31245   0.79648   0.29196   0.00000  Uiso   1.00
C206   C     0.39659   0.78161   0.31927   0.00000  Uiso   1.00
C207   C     0.43319   0.83491   0.36715   0.00000  Uiso   1.00
H208   H     0.13967   0.91824   0.29081   0.00000  Uiso   1.00
H209   H     0.01015   0.84285   0.34963   0.00000  Uiso   1.00
H210   H     0.12864   0.96383   0.15335   0.00000  Uiso   1.00
H211   H     0.26738   0.96646   0.37494   0.00000  Uiso   1.00
H212   H     0.88681   0.73027   0.40608   0.00000  Uiso   1.00
H213   H     0.13668   0.98538   0.99222   0.00000  Uiso   1.00
H214   H     0.42924   0.99092   0.45948   0.00000  Uiso   1.00
H215   H     0.29586   0.69477   0.22348   0.00000  Uiso   1.00
H216   H     0.17490   0.60711   0.27861   0.00000  Uiso   1.00
H217   H     0.29339   0.72809   0.08233   0.00000  Uiso   1.00
H218   H     0.43213   0.73072   0.30392   0.00000  Uiso   1.00
H219   H     0.02052   0.53893   0.34844   0.00000  Uiso   1.00
H220   H     0.27040   0.79404   0.93458   0.00000  Uiso   1.00
H221   H     0.56296   0.79958   0.40184   0.00000  Uiso   1.00
O222   O     0.87127   0.58096   0.41472   0.00000  Uiso   1.00
O223   O     0.19910   0.91567   0.87176   0.00000  Uiso   1.00
O224   O     0.58294   0.92293   0.48479   0.00000  Uiso   1.00
N225   N     0.93488   0.69726   0.38496   0.00000  Uiso   1.00
N226   N     0.16848   0.93577   0.99803   0.00000  Uiso   1.00
N227   N     0.44202   0.94096   0.43486   0.00000  Uiso   1.00
N228   N     0.00684   0.59431   0.35395   0.00000  Uiso   1.00
N229   N     0.24044   0.83281   0.96701   0.00000  Uiso   1.00
N230   N     0.51397   0.83800   0.40385   0.00000  Uiso   1.00
C231   C     0.32454   0.63296   0.77539   0.00000  Uiso   1.00
C232   C     0.37326   0.70491   0.79802   0.00000  Uiso   1.00
C233   C     0.45430   0.70805   0.83431   0.00000  Uiso   1.00
C234   C     0.48780   0.77938   0.85011   0.00000  Uiso   1.00
C235   C     0.57045   0.88110   0.88823   0.00000  Uiso   1.00
C236   C     0.30889   0.63918   0.69137   0.00000  Uiso   1.00
C237   C     0.33580   0.58706   0.63800   0.00000  Uiso   1.00
C238   C     0.31510   0.60305   0.56403   0.00000  Uiso   1.00
C239   C     0.29776   0.60269   0.43658   0.00000  Uiso   1.00
C240   C     0.23351   0.63776   0.81177   0.00000  Uiso   1.00
C241   C     0.19703   0.58442   0.85962   0.00000  Uiso   1.00
C242   C     0.11286   0.59921   0.88700   0.00000  Uiso   1.00
C243   C     0.97848   0.59664   0.94650   0.00000  Uiso   1.00
C244   C     0.23993   0.75403   0.73891   0.00000  Uiso   1.00
C245   C     0.32729   0.77067   0.77820   0.00000  Uiso   1.00
C246   C     0.36068   0.84201   0.79395   0.00000  Uiso   1.00
C247   C     0.44175   0.84526   0.83027   0.00000  Uiso   1.00
C248   C     0.26293   0.70494   0.67156   0.00000  Uiso   1.00
C249   C     0.24218   0.72101   0.59764   0.00000  Uiso   1.00
C250   C     0.26906   0.66893   0.54418   0.00000  Uiso   1.00
C251   C     0.18755   0.70352   0.79196   0.00000  Uiso   1.00
C252   C     0.10341   0.71839   0.81927   0.00000  Uiso   1.00
C253   C     0.06681   0.66509   0.86715   0.00000  Uiso   1.00
H254   H     0.36033   0.58176   0.79081   0.00000  Uiso   1.00
H255   H     0.48985   0.65715   0.84963   0.00000  Uiso   1.00
H256   H     0.37136   0.53617   0.65335   0.00000  Uiso   1.00
H257   H     0.23262   0.53354   0.87494   0.00000  Uiso   1.00
H258   H     0.61319   0.76973   0.90608   0.00000  Uiso   1.00
H259   H     0.36332   0.51462   0.49222   0.00000  Uiso   1.00
H260   H     0.07076   0.50908   0.95948   0.00000  Uiso   1.00
H261   H     0.20414   0.80523   0.72348   0.00000  Uiso   1.00
H262   H     0.32510   0.89289   0.77861   0.00000  Uiso   1.00
H263   H     0.20661   0.77191   0.58233   0.00000  Uiso   1.00
H264   H     0.06787   0.76928   0.80392   0.00000  Uiso   1.00
H265   H     0.47948   0.96107   0.84844   0.00000  Uiso   1.00
H266   H     0.22960   0.70596   0.43458   0.00000  Uiso   1.00
H267   H     0.93704   0.70042   0.90184   0.00000  Uiso   1.00
O268   O     0.62873   0.91904   0.91472   0.00000  Uiso   1.00
O269   O     0.30090   0.58433   0.37176   0.00000  Uiso   1.00
O270   O     0.91706   0.57707   0.98479   0.00000  Uiso   1.00
N271   N     0.56512   0.80274   0.88496   0.00000  Uiso   1.00
N272   N     0.33152   0.56423   0.49803   0.00000  Uiso   1.00
N273   N     0.05798   0.55904   0.93486   0.00000  Uiso   1.00
N274   N     0.49316   0.90569   0.85395   0.00000  Uiso   1.00
N275   N     0.25956   0.66719   0.46701   0.00000  Uiso   1.00
N276   N     0.98603   0.66200   0.90385   0.00000  Uiso   1.00
C277   C     0.82454   0.86704   0.22461   0.00000  Uiso   1.00
C278   C     0.87326   0.79509   0.20198   0.00000  Uiso   1.00
C279   C     0.95430   0.79195   0.16569   0.00000  Uiso   1.00
C280   C     0.98780   0.72062   0.14989   0.00000  Uiso   1.00
C281   C     0.07045   0.61890   0.11177   0.00000  Uiso   1.00
C282   C     0.80889   0.86082   0.30863   0.00000  Uiso   1.00
C283   C     0.83580   0.91294   0.36200   0.00000  Uiso   1.00
C284   C     0.81510   0.89695   0.43597   0.00000  Uiso   1.00
C285   C     0.79776   0.89731   0.56342   0.00000  Uiso   1.00
C286   C     0.73351   0.86224   0.18823   0.00000  Uiso   1.00
C287   C     0.69703   0.91558   0.14038   0.00000  Uiso   1.00
C288   C     0.61286   0.90079   0.11300   0.00000  Uiso   1.00
C289   C     0.47848   0.90336   0.05350   0.00000  Uiso   1.00
C290   C     0.73993   0.74597   0.26109   0.00000  Uiso   1.00
C291   C     0.82729   0.72933   0.22180   0.00000  Uiso   1.00
C292   C     0.86068   0.65799   0.20605   0.00000  Uiso   1.00
C293   C     0.94175   0.65474   0.16973   0.00000  Uiso   1.00
C294   C     0.76293   0.79506   0.32844   0.00000  Uiso   1.00
C295   C     0.74218   0.77899   0.40236   0.00000  Uiso   1.00
C296   C     0.76906   0.83107   0.45582   0.00000  Uiso   1.00
C297   C     0.68755   0.79648   0.20804   0.00000  Uiso   1.00
C298   C     0.60341   0.78161   0.18073   0.00000  Uiso   1.00
C299   C     0.56681   0.83491   0.13285   0.00000  Uiso   1.00
H300   H     0.86033   0.91824   0.20919   0.00000  Uiso   1.00
H301   H     0.98985   0.84285   0.15037   0.00000  Uiso   1.00
H302   H     0.87136   0.96383   0.34665   0.00000  Uiso   1.00
H303   H     0.73262   0.96646   0.12506   0.00000  Uiso   1.00
H304   H     0.11319   0.73027   0.09392   0.00000  Uiso   1.00
H305   H     0.86332   0.98538   0.50778   0.00000  Uiso   1.00
H306   H     0.57076   0.99092   0.04052   0.00000  Uiso   1.00
H307   H     0.70414   0.69477   0.27652   0.00000  Uiso   1.00
H308   H     0.82510   0.60711   0.22139   0.00000  Uiso   1.00
H309   H     0.70661   0.72809   0.41767   0.00000  Uiso   1.00
H310   H     0.56787   0.73072   0.19608   0.00000  Uiso   1.00
H311   H     0.97948   0.53893   0.15156   0.00000  Uiso   1.00
H312   H     0.72960   0.79404   0.56542   0.00000  Uiso   1.00
H313   H     0.43704   0.79958   0.09816   0.00000  Uiso   1.00
O314   O     0.12873   0.58096   0.08528   0.00000  Uiso   1.00
O315   O     0.80090   0.91567   0.62824   0.00000  Uiso   1.00
O316   O     0.41706   0.92293   0.01521   0.00000  Uiso   1.00
N317   N     0.06512   0.69726   0.11504   0.00000  Uiso   1.00
N318   N     0.83152   0.93577   0.50197   0.00000  Uiso   1.00
N319   N     0.55798   0.94096   0.06514   0.00000  Uiso   1.00
N320   N     0.99316   0.59431   0.14605   0.00000  Uiso   1.00
N321   N     0.75956   0.83281   0.53299   0.00000  Uiso   1.00
N322   N     0.48603   0.83800   0.09615   0.00000  Uiso   1.00
C323   C     0.67546   0.63296   0.72461   0.00000  Uiso   1.00
C324   C     0.62674   0.70491   0.70198   0.00000  Uiso   1.00
C325   C     0.54570   0.70805   0.66569   0.00000  Uiso   1.00
C326   C     0.51220   0.77938   0.64989   0.00000  Uiso   1.00
C327   C     0.42955   0.88110   0.61177   0.00000  Uiso   1.00
C328   C     0.69111   0.63918   0.80863   0.00000  Uiso   1.00
C329   C     0.66420   0.58706   0.86200   0.00000  Uiso   1.00
C330   C     0.68490   0.60305   0.93597   0.00000  Uiso   1.00
C331   C     0.70224   0.60269   0.06342   0.00000  Uiso   1.00
C332   C     0.76649   0.63776   0.68823   0.00000  Uiso   1.00
C333   C     0.80297   0.58442   0.64038   0.00000  Uiso   1.00
C334   C     0.88714   0.59921   0.61300   0.00000  Uiso   1.00
C335   C     0.02152   0.59664   0.55350   0.00000  Uiso   1.00
C336   C     0.76007   0.75403   0.76109   0.00000  Uiso   1.00
C337   C     0.67271   0.77067   0.72180   0.00000  Uiso   1.00
C338   C     0.63932   0.84201   0.70605   0.00000  Uiso   1.00
C339   C     0.55825   0.84526   0.66973   0.00000  Uiso   1.00
C340   C     0.73707   0.70494   0.82844   0.00000  Uiso   1.00
C341   C     0.75782   0.72101   0.90236   0.00000  Uiso   1.00
C342   C     0.73094   0.66893   0.95582   0.00000  Uiso   1.00
C343   C     0.81245   0.70352   0.70804   0.00000  Uiso   1.00
C344   C     0.89659   0.71839   0.68073   0.00000  Uiso   1.00
C345   C     0.93319   0.66509   0.63285   0.00000  Uiso   1.00
H346   H     0.63967   0.58176   0.70919   0.00000  Uiso   1.00
H347   H     0.51015   0.65715   0.65037   0.00000  Uiso   1.00
H348   H     0.62864   0.53617   0.84665   0.00000  Uiso   1.00
H349   H     0.76738   0.53354   0.62506   0.00000  Uiso   1.00
H350   H     0.38681   0.76973   0.59392   0.00000  Uiso   1.00
H351   H     0.63668   0.51462   0.00778   0.00000  Uiso   1.00
H352   H     0.92924   0.50908   0.54052   0.00000  Uiso   1.00
H353   H     0.79586   0.80523   0.77652   0.00000  Uiso   1.00
H354   H     0.67490   0.89289   0.72139   0.00000  Uiso   1.00
H355   H     0.79339   0.77191   0.91767   0.00000  Uiso   1.00
H356   H     0.93213   0.76928   0.69608   0.00000  Uiso   1.00
H357   H     0.52052   0.96107   0.65156   0.00000  Uiso   1.00
H358   H     0.77040   0.70596   0.06542   0.00000  Uiso   1.00
H359   H     0.06296   0.70042   0.59816   0.00000  Uiso   1.00
O360   O     0.37127   0.91904   0.58528   0.00000  Uiso   1.00
O361   O     0.69910   0.58433   0.12824   0.00000  Uiso   1.00
O362   O     0.08294   0.57707   0.51521   0.00000  Uiso   1.00
N363   N     0.43488   0.80274   0.61504   0.00000  Uiso   1.00
N364   N     0.66848   0.56423   0.00197   0.00000  Uiso   1.00
N365   N     0.94202   0.55904   0.56514   0.00000  Uiso   1.00
N366   N     0.50684   0.90569   0.64605   0.00000  Uiso   1.00
N367   N     0.74044   0.66719   0.03299   0.00000  Uiso   1.00
N368   N     0.01397   0.66200   0.59615   0.00000  Uiso   1.00
