data_job_05853
_audit_creation_date              2018-12-19
_audit_creation_method            'Materials Studio'
_symmetry_space_group_name_H-M    'P1'
_symmetry_Int_Tables_number       1
_symmetry_cell_setting            triclinic
loop_
_symmetry_equiv_pos_as_xyz
  x,y,z
_cell_length_a                    31.2131
_cell_length_b                    17.9237
_cell_length_c                    10.0528
_cell_angle_alpha                 90.0000
_cell_angle_beta                  90.0000
_cell_angle_gamma                 90.0000
loop_
_atom_site_label
_atom_site_type_symbol
_atom_site_fract_x
_atom_site_fract_y
_atom_site_fract_z
_atom_site_U_iso_or_equiv
_atom_site_adp_type
_atom_site_occupancy
C1     C     0.15117   0.23071   0.87871   0.00000  Uiso   1.00
C2     C     0.17281   0.28034   0.77543   0.00000  Uiso   1.00
C3     C     0.21664   0.28658   0.75508   0.00000  Uiso   1.00
C4     C     0.23005   0.33502   0.65569   0.00000  Uiso   1.00
C5     C     0.26813   0.40592   0.50696   0.00000  Uiso   1.00
C6     C     0.12331   0.28229   0.96278   0.00000  Uiso   1.00
C7     C     0.12552   0.29017   0.09995   0.00000  Uiso   1.00
C8     C     0.09726   0.34026   0.15826   0.00000  Uiso   1.00
C9     C     0.05846   0.41416   0.30041   0.00000  Uiso   1.00
C10    C     0.12031   0.18085   0.80176   0.00000  Uiso   1.00
C11    C     0.11997   0.10343   0.80357   0.00000  Uiso   1.00
C12    C     0.08917   0.06810   0.72634   0.00000  Uiso   1.00
C13    C     0.04571   0.98449   0.61848   0.00000  Uiso   1.00
C14    C     0.09705   0.30564   0.73838   0.00000  Uiso   1.00
C15    C     0.14341   0.32104   0.69921   0.00000  Uiso   1.00
C16    C     0.15676   0.36949   0.59982   0.00000  Uiso   1.00
C17    C     0.20060   0.37580   0.57932   0.00000  Uiso   1.00
C18    C     0.09392   0.32300   0.88656   0.00000  Uiso   1.00
C19    C     0.06564   0.37308   0.94469   0.00000  Uiso   1.00
C20    C     0.06781   0.38104   0.08191   0.00000  Uiso   1.00
C21    C     0.09091   0.22155   0.72554   0.00000  Uiso   1.00
C22    C     0.06010   0.18634   0.64830   0.00000  Uiso   1.00
C23    C     0.05973   0.10888   0.64998   0.00000  Uiso   1.00
H24    H     0.17406   0.19902   0.93806   0.00000  Uiso   1.00
H25    H     0.23938   0.25507   0.81410   0.00000  Uiso   1.00
H26    H     0.14827   0.25866   0.15891   0.00000  Uiso   1.00
H27    H     0.14273   0.07195   0.86256   0.00000  Uiso   1.00
H28    H     0.29884   0.33519   0.64308   0.00000  Uiso   1.00
H29    H     0.10672   0.34273   0.37014   0.00000  Uiso   1.00
H30    H     0.09503   0.94901   0.74525   0.00000  Uiso   1.00
H31    H     0.07416   0.33733   0.67904   0.00000  Uiso   1.00
H32    H     0.13401   0.40098   0.54085   0.00000  Uiso   1.00
H33    H     0.04290   0.40456   0.88567   0.00000  Uiso   1.00
H34    H     0.03736   0.21785   0.58933   0.00000  Uiso   1.00
H35    H     0.21332   0.45362   0.42131   0.00000  Uiso   1.00
H36    H     0.02119   0.46116   0.14838   0.00000  Uiso   1.00
H37    H     0.00951   0.06744   0.52348   0.00000  Uiso   1.00
O38    O     0.29725   0.43379   0.44600   0.00000  Uiso   1.00
O39    O     0.04519   0.44368   0.39988   0.00000  Uiso   1.00
O40    O     0.02986   0.92713   0.58003   0.00000  Uiso   1.00
N41    N     0.27050   0.35432   0.60983   0.00000  Uiso   1.00
N42    N     0.09088   0.36138   0.28959   0.00000  Uiso   1.00
N43    N     0.07995   0.99328   0.70539   0.00000  Uiso   1.00
N44    N     0.22448   0.41804   0.49050   0.00000  Uiso   1.00
N45    N     0.04486   0.42510   0.17026   0.00000  Uiso   1.00
N46    N     0.03393   0.05701   0.58606   0.00000  Uiso   1.00
C47    C     0.34883   0.76929   0.87871   0.00000  Uiso   1.00
C48    C     0.32719   0.71966   0.77543   0.00000  Uiso   1.00
C49    C     0.28336   0.71342   0.75508   0.00000  Uiso   1.00
C50    C     0.26995   0.66498   0.65569   0.00000  Uiso   1.00
C51    C     0.23187   0.59408   0.50696   0.00000  Uiso   1.00
C52    C     0.37669   0.71771   0.96278   0.00000  Uiso   1.00
C53    C     0.37448   0.70983   0.09995   0.00000  Uiso   1.00
C54    C     0.40274   0.65974   0.15826   0.00000  Uiso   1.00
C55    C     0.44154   0.58584   0.30041   0.00000  Uiso   1.00
C56    C     0.37969   0.81915   0.80176   0.00000  Uiso   1.00
C57    C     0.38003   0.89657   0.80357   0.00000  Uiso   1.00
C58    C     0.41083   0.93190   0.72634   0.00000  Uiso   1.00
C59    C     0.45429   0.01551   0.61848   0.00000  Uiso   1.00
C60    C     0.40295   0.69436   0.73838   0.00000  Uiso   1.00
C61    C     0.35659   0.67896   0.69921   0.00000  Uiso   1.00
C62    C     0.34324   0.63051   0.59982   0.00000  Uiso   1.00
C63    C     0.29940   0.62420   0.57932   0.00000  Uiso   1.00
C64    C     0.40608   0.67700   0.88656   0.00000  Uiso   1.00
C65    C     0.43436   0.62692   0.94469   0.00000  Uiso   1.00
C66    C     0.43219   0.61896   0.08191   0.00000  Uiso   1.00
C67    C     0.40909   0.77845   0.72554   0.00000  Uiso   1.00
C68    C     0.43990   0.81366   0.64830   0.00000  Uiso   1.00
C69    C     0.44027   0.89112   0.64998   0.00000  Uiso   1.00
H70    H     0.32594   0.80098   0.93806   0.00000  Uiso   1.00
H71    H     0.26062   0.74493   0.81410   0.00000  Uiso   1.00
H72    H     0.35173   0.74134   0.15891   0.00000  Uiso   1.00
H73    H     0.35727   0.92805   0.86256   0.00000  Uiso   1.00
H74    H     0.20116   0.66481   0.64308   0.00000  Uiso   1.00
H75    H     0.39328   0.65727   0.37014   0.00000  Uiso   1.00
H76    H     0.40497   0.05099   0.74525   0.00000  Uiso   1.00
H77    H     0.42584   0.66267   0.67904   0.00000  Uiso   1.00
H78    H     0.36599   0.59902   0.54085   0.00000  Uiso   1.00
H79    H     0.45710   0.59544   0.88567   0.00000  Uiso   1.00
H80    H     0.46264   0.78215   0.58933   0.00000  Uiso   1.00
H81    H     0.28668   0.54638   0.42131   0.00000  Uiso   1.00
H82    H     0.47881   0.53884   0.14838   0.00000  Uiso   1.00
H83    H     0.49049   0.93256   0.52348   0.00000  Uiso   1.00
O84    O     0.20275   0.56621   0.44600   0.00000  Uiso   1.00
O85    O     0.45481   0.55632   0.39988   0.00000  Uiso   1.00
O86    O     0.47014   0.07287   0.58003   0.00000  Uiso   1.00
N87    N     0.22950   0.64568   0.60983   0.00000  Uiso   1.00
N88    N     0.40912   0.63862   0.28959   0.00000  Uiso   1.00
N89    N     0.42005   0.00672   0.70539   0.00000  Uiso   1.00
N90    N     0.27552   0.58196   0.49050   0.00000  Uiso   1.00
N91    N     0.45514   0.57490   0.17026   0.00000  Uiso   1.00
N92    N     0.46607   0.94299   0.58606   0.00000  Uiso   1.00
C93    C     0.84883   0.23071   0.62129   0.00000  Uiso   1.00
C94    C     0.82719   0.28034   0.72457   0.00000  Uiso   1.00
C95    C     0.78336   0.28658   0.74492   0.00000  Uiso   1.00
C96    C     0.76995   0.33502   0.84431   0.00000  Uiso   1.00
C97    C     0.73187   0.40592   0.99304   0.00000  Uiso   1.00
C98    C     0.87669   0.28229   0.53722   0.00000  Uiso   1.00
C99    C     0.87448   0.29017   0.40005   0.00000  Uiso   1.00
C100   C     0.90274   0.34026   0.34174   0.00000  Uiso   1.00
C101   C     0.94154   0.41416   0.19959   0.00000  Uiso   1.00
C102   C     0.87969   0.18085   0.69824   0.00000  Uiso   1.00
C103   C     0.88003   0.10343   0.69643   0.00000  Uiso   1.00
C104   C     0.91083   0.06810   0.77366   0.00000  Uiso   1.00
C105   C     0.95429   0.98449   0.88152   0.00000  Uiso   1.00
C106   C     0.90295   0.30564   0.76162   0.00000  Uiso   1.00
C107   C     0.85659   0.32104   0.80079   0.00000  Uiso   1.00
C108   C     0.84324   0.36949   0.90018   0.00000  Uiso   1.00
C109   C     0.79940   0.37580   0.92068   0.00000  Uiso   1.00
C110   C     0.90608   0.32300   0.61344   0.00000  Uiso   1.00
C111   C     0.93436   0.37308   0.55531   0.00000  Uiso   1.00
C112   C     0.93219   0.38104   0.41809   0.00000  Uiso   1.00
C113   C     0.90909   0.22155   0.77446   0.00000  Uiso   1.00
C114   C     0.93990   0.18634   0.85170   0.00000  Uiso   1.00
C115   C     0.94027   0.10888   0.85002   0.00000  Uiso   1.00
H116   H     0.82594   0.19902   0.56194   0.00000  Uiso   1.00
H117   H     0.76062   0.25507   0.68590   0.00000  Uiso   1.00
H118   H     0.85173   0.25866   0.34109   0.00000  Uiso   1.00
H119   H     0.85727   0.07195   0.63744   0.00000  Uiso   1.00
H120   H     0.70116   0.33519   0.85692   0.00000  Uiso   1.00
H121   H     0.89328   0.34273   0.12986   0.00000  Uiso   1.00
H122   H     0.90497   0.94901   0.75475   0.00000  Uiso   1.00
H123   H     0.92584   0.33733   0.82096   0.00000  Uiso   1.00
H124   H     0.86599   0.40098   0.95915   0.00000  Uiso   1.00
H125   H     0.95710   0.40456   0.61433   0.00000  Uiso   1.00
H126   H     0.96264   0.21785   0.91067   0.00000  Uiso   1.00
H127   H     0.78668   0.45362   0.07869   0.00000  Uiso   1.00
H128   H     0.97881   0.46116   0.35162   0.00000  Uiso   1.00
H129   H     0.99049   0.06744   0.97652   0.00000  Uiso   1.00
O130   O     0.70275   0.43379   0.05400   0.00000  Uiso   1.00
O131   O     0.95481   0.44368   0.10012   0.00000  Uiso   1.00
O132   O     0.97014   0.92713   0.91997   0.00000  Uiso   1.00
N133   N     0.72950   0.35432   0.89017   0.00000  Uiso   1.00
N134   N     0.90912   0.36138   0.21041   0.00000  Uiso   1.00
N135   N     0.92005   0.99328   0.79461   0.00000  Uiso   1.00
N136   N     0.77552   0.41804   0.00950   0.00000  Uiso   1.00
N137   N     0.95514   0.42510   0.32974   0.00000  Uiso   1.00
N138   N     0.96607   0.05701   0.91394   0.00000  Uiso   1.00
C139   C     0.65117   0.76929   0.62129   0.00000  Uiso   1.00
C140   C     0.67281   0.71966   0.72457   0.00000  Uiso   1.00
C141   C     0.71664   0.71342   0.74492   0.00000  Uiso   1.00
C142   C     0.73005   0.66498   0.84431   0.00000  Uiso   1.00
C143   C     0.76813   0.59408   0.99304   0.00000  Uiso   1.00
C144   C     0.62331   0.71771   0.53722   0.00000  Uiso   1.00
C145   C     0.62552   0.70983   0.40005   0.00000  Uiso   1.00
C146   C     0.59726   0.65974   0.34174   0.00000  Uiso   1.00
C147   C     0.55846   0.58584   0.19959   0.00000  Uiso   1.00
C148   C     0.62031   0.81915   0.69824   0.00000  Uiso   1.00
C149   C     0.61997   0.89657   0.69643   0.00000  Uiso   1.00
C150   C     0.58917   0.93190   0.77366   0.00000  Uiso   1.00
C151   C     0.54571   0.01551   0.88152   0.00000  Uiso   1.00
C152   C     0.59705   0.69436   0.76162   0.00000  Uiso   1.00
C153   C     0.64341   0.67896   0.80079   0.00000  Uiso   1.00
C154   C     0.65676   0.63051   0.90018   0.00000  Uiso   1.00
C155   C     0.70060   0.62420   0.92068   0.00000  Uiso   1.00
C156   C     0.59392   0.67700   0.61344   0.00000  Uiso   1.00
C157   C     0.56564   0.62692   0.55531   0.00000  Uiso   1.00
C158   C     0.56781   0.61896   0.41809   0.00000  Uiso   1.00
C159   C     0.59091   0.77845   0.77446   0.00000  Uiso   1.00
C160   C     0.56010   0.81366   0.85170   0.00000  Uiso   1.00
C161   C     0.55973   0.89112   0.85002   0.00000  Uiso   1.00
H162   H     0.67406   0.80098   0.56194   0.00000  Uiso   1.00
H163   H     0.73938   0.74493   0.68590   0.00000  Uiso   1.00
H164   H     0.64827   0.74134   0.34109   0.00000  Uiso   1.00
H165   H     0.64273   0.92805   0.63744   0.00000  Uiso   1.00
H166   H     0.79884   0.66481   0.85692   0.00000  Uiso   1.00
H167   H     0.60672   0.65727   0.12986   0.00000  Uiso   1.00
H168   H     0.59503   0.05099   0.75475   0.00000  Uiso   1.00
H169   H     0.57416   0.66267   0.82096   0.00000  Uiso   1.00
H170   H     0.63401   0.59902   0.95915   0.00000  Uiso   1.00
H171   H     0.54290   0.59544   0.61433   0.00000  Uiso   1.00
H172   H     0.53736   0.78215   0.91067   0.00000  Uiso   1.00
H173   H     0.71332   0.54638   0.07869   0.00000  Uiso   1.00
H174   H     0.52119   0.53884   0.35162   0.00000  Uiso   1.00
H175   H     0.50951   0.93256   0.97652   0.00000  Uiso   1.00
O176   O     0.79725   0.56621   0.05400   0.00000  Uiso   1.00
O177   O     0.54519   0.55632   0.10012   0.00000  Uiso   1.00
O178   O     0.52986   0.07287   0.91997   0.00000  Uiso   1.00
N179   N     0.77050   0.64568   0.89017   0.00000  Uiso   1.00
N180   N     0.59088   0.63862   0.21041   0.00000  Uiso   1.00
N181   N     0.57995   0.00672   0.79461   0.00000  Uiso   1.00
N182   N     0.72448   0.58196   0.00950   0.00000  Uiso   1.00
N183   N     0.54486   0.57490   0.32974   0.00000  Uiso   1.00
N184   N     0.53393   0.94299   0.91394   0.00000  Uiso   1.00
C185   C     0.84883   0.76929   0.12129   0.00000  Uiso   1.00
C186   C     0.82719   0.71966   0.22457   0.00000  Uiso   1.00
C187   C     0.78336   0.71342   0.24492   0.00000  Uiso   1.00
C188   C     0.76995   0.66498   0.34431   0.00000  Uiso   1.00
C189   C     0.73187   0.59408   0.49304   0.00000  Uiso   1.00
C190   C     0.87669   0.71771   0.03722   0.00000  Uiso   1.00
C191   C     0.87448   0.70983   0.90005   0.00000  Uiso   1.00
C192   C     0.90274   0.65974   0.84174   0.00000  Uiso   1.00
C193   C     0.94154   0.58584   0.69959   0.00000  Uiso   1.00
C194   C     0.87969   0.81915   0.19824   0.00000  Uiso   1.00
C195   C     0.88003   0.89657   0.19643   0.00000  Uiso   1.00
C196   C     0.91083   0.93190   0.27366   0.00000  Uiso   1.00
C197   C     0.95429   0.01551   0.38152   0.00000  Uiso   1.00
C198   C     0.90295   0.69436   0.26162   0.00000  Uiso   1.00
C199   C     0.85659   0.67896   0.30079   0.00000  Uiso   1.00
C200   C     0.84324   0.63051   0.40018   0.00000  Uiso   1.00
C201   C     0.79940   0.62420   0.42068   0.00000  Uiso   1.00
C202   C     0.90608   0.67700   0.11344   0.00000  Uiso   1.00
C203   C     0.93436   0.62692   0.05531   0.00000  Uiso   1.00
C204   C     0.93219   0.61896   0.91809   0.00000  Uiso   1.00
C205   C     0.90909   0.77845   0.27446   0.00000  Uiso   1.00
C206   C     0.93990   0.81366   0.35170   0.00000  Uiso   1.00
C207   C     0.94027   0.89112   0.35002   0.00000  Uiso   1.00
H208   H     0.82594   0.80098   0.06194   0.00000  Uiso   1.00
H209   H     0.76062   0.74493   0.18590   0.00000  Uiso   1.00
H210   H     0.85173   0.74134   0.84109   0.00000  Uiso   1.00
H211   H     0.85727   0.92805   0.13744   0.00000  Uiso   1.00
H212   H     0.70116   0.66481   0.35692   0.00000  Uiso   1.00
H213   H     0.89328   0.65727   0.62986   0.00000  Uiso   1.00
H214   H     0.90497   0.05099   0.25475   0.00000  Uiso   1.00
H215   H     0.92584   0.66267   0.32096   0.00000  Uiso   1.00
H216   H     0.86599   0.59902   0.45915   0.00000  Uiso   1.00
H217   H     0.95710   0.59544   0.11433   0.00000  Uiso   1.00
H218   H     0.96264   0.78215   0.41067   0.00000  Uiso   1.00
H219   H     0.78668   0.54638   0.57869   0.00000  Uiso   1.00
H220   H     0.97881   0.53884   0.85162   0.00000  Uiso   1.00
H221   H     0.99049   0.93256   0.47652   0.00000  Uiso   1.00
O222   O     0.70275   0.56621   0.55400   0.00000  Uiso   1.00
O223   O     0.95481   0.55632   0.60012   0.00000  Uiso   1.00
O224   O     0.97014   0.07287   0.41997   0.00000  Uiso   1.00
N225   N     0.72950   0.64568   0.39017   0.00000  Uiso   1.00
N226   N     0.90912   0.63862   0.71041   0.00000  Uiso   1.00
N227   N     0.92005   0.00672   0.29461   0.00000  Uiso   1.00
N228   N     0.77552   0.58196   0.50950   0.00000  Uiso   1.00
N229   N     0.95514   0.57490   0.82974   0.00000  Uiso   1.00
N230   N     0.96607   0.94299   0.41394   0.00000  Uiso   1.00
C231   C     0.65117   0.23071   0.12129   0.00000  Uiso   1.00
C232   C     0.67281   0.28034   0.22457   0.00000  Uiso   1.00
C233   C     0.71664   0.28658   0.24492   0.00000  Uiso   1.00
C234   C     0.73005   0.33502   0.34431   0.00000  Uiso   1.00
C235   C     0.76813   0.40592   0.49304   0.00000  Uiso   1.00
C236   C     0.62331   0.28229   0.03722   0.00000  Uiso   1.00
C237   C     0.62552   0.29017   0.90005   0.00000  Uiso   1.00
C238   C     0.59726   0.34026   0.84174   0.00000  Uiso   1.00
C239   C     0.55846   0.41416   0.69959   0.00000  Uiso   1.00
C240   C     0.62031   0.18085   0.19824   0.00000  Uiso   1.00
C241   C     0.61997   0.10343   0.19643   0.00000  Uiso   1.00
C242   C     0.58917   0.06810   0.27366   0.00000  Uiso   1.00
C243   C     0.54571   0.98449   0.38152   0.00000  Uiso   1.00
C244   C     0.59705   0.30564   0.26162   0.00000  Uiso   1.00
C245   C     0.64341   0.32104   0.30079   0.00000  Uiso   1.00
C246   C     0.65676   0.36949   0.40018   0.00000  Uiso   1.00
C247   C     0.70060   0.37580   0.42068   0.00000  Uiso   1.00
C248   C     0.59392   0.32300   0.11344   0.00000  Uiso   1.00
C249   C     0.56564   0.37308   0.05531   0.00000  Uiso   1.00
C250   C     0.56781   0.38104   0.91809   0.00000  Uiso   1.00
C251   C     0.59091   0.22155   0.27446   0.00000  Uiso   1.00
C252   C     0.56010   0.18634   0.35170   0.00000  Uiso   1.00
C253   C     0.55973   0.10888   0.35002   0.00000  Uiso   1.00
H254   H     0.67406   0.19902   0.06194   0.00000  Uiso   1.00
H255   H     0.73938   0.25507   0.18590   0.00000  Uiso   1.00
H256   H     0.64827   0.25866   0.84109   0.00000  Uiso   1.00
H257   H     0.64273   0.07195   0.13744   0.00000  Uiso   1.00
H258   H     0.79884   0.33519   0.35692   0.00000  Uiso   1.00
H259   H     0.60672   0.34273   0.62986   0.00000  Uiso   1.00
H260   H     0.59503   0.94901   0.25475   0.00000  Uiso   1.00
H261   H     0.57416   0.33733   0.32096   0.00000  Uiso   1.00
H262   H     0.63401   0.40098   0.45915   0.00000  Uiso   1.00
H263   H     0.54290   0.40456   0.11433   0.00000  Uiso   1.00
H264   H     0.53736   0.21785   0.41067   0.00000  Uiso   1.00
H265   H     0.71332   0.45362   0.57869   0.00000  Uiso   1.00
H266   H     0.52119   0.46116   0.85162   0.00000  Uiso   1.00
H267   H     0.50951   0.06744   0.47652   0.00000  Uiso   1.00
O268   O     0.79725   0.43379   0.55400   0.00000  Uiso   1.00
O269   O     0.54519   0.44368   0.60012   0.00000  Uiso   1.00
O270   O     0.52986   0.92713   0.41997   0.00000  Uiso   1.00
N271   N     0.77050   0.35432   0.39017   0.00000  Uiso   1.00
N272   N     0.59088   0.36138   0.71041   0.00000  Uiso   1.00
N273   N     0.57995   0.99328   0.29461   0.00000  Uiso   1.00
N274   N     0.72448   0.41804   0.50950   0.00000  Uiso   1.00
N275   N     0.54486   0.42510   0.82974   0.00000  Uiso   1.00
N276   N     0.53393   0.05701   0.41394   0.00000  Uiso   1.00
C277   C     0.15117   0.76929   0.37871   0.00000  Uiso   1.00
C278   C     0.17281   0.71966   0.27543   0.00000  Uiso   1.00
C279   C     0.21664   0.71342   0.25508   0.00000  Uiso   1.00
C280   C     0.23005   0.66498   0.15569   0.00000  Uiso   1.00
C281   C     0.26813   0.59408   0.00696   0.00000  Uiso   1.00
C282   C     0.12331   0.71771   0.46278   0.00000  Uiso   1.00
C283   C     0.12552   0.70983   0.59995   0.00000  Uiso   1.00
C284   C     0.09726   0.65974   0.65826   0.00000  Uiso   1.00
C285   C     0.05846   0.58584   0.80041   0.00000  Uiso   1.00
C286   C     0.12031   0.81915   0.30176   0.00000  Uiso   1.00
C287   C     0.11997   0.89657   0.30357   0.00000  Uiso   1.00
C288   C     0.08917   0.93190   0.22634   0.00000  Uiso   1.00
C289   C     0.04571   0.01551   0.11848   0.00000  Uiso   1.00
C290   C     0.09705   0.69436   0.23838   0.00000  Uiso   1.00
C291   C     0.14341   0.67896   0.19921   0.00000  Uiso   1.00
C292   C     0.15676   0.63051   0.09982   0.00000  Uiso   1.00
C293   C     0.20060   0.62420   0.07932   0.00000  Uiso   1.00
C294   C     0.09392   0.67700   0.38656   0.00000  Uiso   1.00
C295   C     0.06564   0.62692   0.44469   0.00000  Uiso   1.00
C296   C     0.06781   0.61896   0.58191   0.00000  Uiso   1.00
C297   C     0.09091   0.77845   0.22554   0.00000  Uiso   1.00
C298   C     0.06010   0.81366   0.14830   0.00000  Uiso   1.00
C299   C     0.05973   0.89112   0.14998   0.00000  Uiso   1.00
H300   H     0.17406   0.80098   0.43806   0.00000  Uiso   1.00
H301   H     0.23938   0.74493   0.31410   0.00000  Uiso   1.00
H302   H     0.14827   0.74134   0.65891   0.00000  Uiso   1.00
H303   H     0.14273   0.92805   0.36256   0.00000  Uiso   1.00
H304   H     0.29884   0.66481   0.14308   0.00000  Uiso   1.00
H305   H     0.10672   0.65727   0.87014   0.00000  Uiso   1.00
H306   H     0.09503   0.05099   0.24525   0.00000  Uiso   1.00
H307   H     0.07416   0.66267   0.17904   0.00000  Uiso   1.00
H308   H     0.13401   0.59902   0.04085   0.00000  Uiso   1.00
H309   H     0.04290   0.59544   0.38567   0.00000  Uiso   1.00
H310   H     0.03736   0.78215   0.08933   0.00000  Uiso   1.00
H311   H     0.21332   0.54638   0.92131   0.00000  Uiso   1.00
H312   H     0.02119   0.53884   0.64838   0.00000  Uiso   1.00
H313   H     0.00951   0.93256   0.02348   0.00000  Uiso   1.00
O314   O     0.29725   0.56621   0.94600   0.00000  Uiso   1.00
O315   O     0.04519   0.55632   0.89988   0.00000  Uiso   1.00
O316   O     0.02986   0.07287   0.08003   0.00000  Uiso   1.00
N317   N     0.27050   0.64568   0.10983   0.00000  Uiso   1.00
N318   N     0.09088   0.63862   0.78959   0.00000  Uiso   1.00
N319   N     0.07995   0.00672   0.20539   0.00000  Uiso   1.00
N320   N     0.22448   0.58196   0.99050   0.00000  Uiso   1.00
N321   N     0.04486   0.57490   0.67026   0.00000  Uiso   1.00
N322   N     0.03393   0.94299   0.08606   0.00000  Uiso   1.00
C323   C     0.34883   0.23071   0.37871   0.00000  Uiso   1.00
C324   C     0.32719   0.28034   0.27543   0.00000  Uiso   1.00
C325   C     0.28336   0.28658   0.25508   0.00000  Uiso   1.00
C326   C     0.26995   0.33502   0.15569   0.00000  Uiso   1.00
C327   C     0.23187   0.40592   0.00696   0.00000  Uiso   1.00
C328   C     0.37669   0.28229   0.46278   0.00000  Uiso   1.00
C329   C     0.37448   0.29017   0.59995   0.00000  Uiso   1.00
C330   C     0.40274   0.34026   0.65826   0.00000  Uiso   1.00
C331   C     0.44154   0.41416   0.80041   0.00000  Uiso   1.00
C332   C     0.37969   0.18085   0.30176   0.00000  Uiso   1.00
C333   C     0.38003   0.10343   0.30357   0.00000  Uiso   1.00
C334   C     0.41083   0.06810   0.22634   0.00000  Uiso   1.00
C335   C     0.45429   0.98449   0.11848   0.00000  Uiso   1.00
C336   C     0.40295   0.30564   0.23838   0.00000  Uiso   1.00
C337   C     0.35659   0.32104   0.19921   0.00000  Uiso   1.00
C338   C     0.34324   0.36949   0.09982   0.00000  Uiso   1.00
C339   C     0.29940   0.37580   0.07932   0.00000  Uiso   1.00
C340   C     0.40608   0.32300   0.38656   0.00000  Uiso   1.00
C341   C     0.43436   0.37308   0.44469   0.00000  Uiso   1.00
C342   C     0.43219   0.38104   0.58191   0.00000  Uiso   1.00
C343   C     0.40909   0.22155   0.22554   0.00000  Uiso   1.00
C344   C     0.43990   0.18634   0.14830   0.00000  Uiso   1.00
C345   C     0.44027   0.10888   0.14998   0.00000  Uiso   1.00
H346   H     0.32594   0.19902   0.43806   0.00000  Uiso   1.00
H347   H     0.26062   0.25507   0.31410   0.00000  Uiso   1.00
H348   H     0.35173   0.25866   0.65891   0.00000  Uiso   1.00
H349   H     0.35727   0.07195   0.36256   0.00000  Uiso   1.00
H350   H     0.20116   0.33519   0.14308   0.00000  Uiso   1.00
H351   H     0.39328   0.34273   0.87014   0.00000  Uiso   1.00
H352   H     0.40497   0.94901   0.24525   0.00000  Uiso   1.00
H353   H     0.42584   0.33733   0.17904   0.00000  Uiso   1.00
H354   H     0.36599   0.40098   0.04085   0.00000  Uiso   1.00
H355   H     0.45710   0.40456   0.38567   0.00000  Uiso   1.00
H356   H     0.46264   0.21785   0.08933   0.00000  Uiso   1.00
H357   H     0.28668   0.45362   0.92131   0.00000  Uiso   1.00
H358   H     0.47881   0.46116   0.64838   0.00000  Uiso   1.00
H359   H     0.49049   0.06744   0.02348   0.00000  Uiso   1.00
O360   O     0.20275   0.43379   0.94600   0.00000  Uiso   1.00
O361   O     0.45481   0.44368   0.89988   0.00000  Uiso   1.00
O362   O     0.47014   0.92713   0.08003   0.00000  Uiso   1.00
N363   N     0.22950   0.35432   0.10983   0.00000  Uiso   1.00
N364   N     0.40912   0.36138   0.78959   0.00000  Uiso   1.00
N365   N     0.42005   0.99328   0.20539   0.00000  Uiso   1.00
N366   N     0.27552   0.41804   0.99050   0.00000  Uiso   1.00
N367   N     0.45514   0.42510   0.67026   0.00000  Uiso   1.00
N368   N     0.46607   0.05701   0.08606   0.00000  Uiso   1.00
