data_job_00270
_audit_creation_date              2018-12-19
_audit_creation_method            'Materials Studio'
_symmetry_space_group_name_H-M    'P1'
_symmetry_Int_Tables_number       1
_symmetry_cell_setting            triclinic
loop_
_symmetry_equiv_pos_as_xyz
  x,y,z
_cell_length_a                    16.7762
_cell_length_b                    24.6194
_cell_length_c                    12.4428
_cell_angle_alpha                 90.0000
_cell_angle_beta                  90.0000
_cell_angle_gamma                 90.0000
loop_
_atom_site_label
_atom_site_type_symbol
_atom_site_fract_x
_atom_site_fract_y
_atom_site_fract_z
_atom_site_U_iso_or_equiv
_atom_site_adp_type
_atom_site_occupancy
C1     C     0.42724   0.06702   0.92999   0.00000  Uiso   1.00
C2     C     0.34086   0.05210   0.90585   0.00000  Uiso   1.00
C3     C     0.30818   0.00044   0.91277   0.00000  Uiso   1.00
C4     C     0.22797   0.99521   0.88732   0.00000  Uiso   1.00
C5     C     0.10081   0.96521   0.85453   0.00000  Uiso   1.00
C6     C     0.45902   0.09443   0.82878   0.00000  Uiso   1.00
C7     C     0.52570   0.07836   0.77093   0.00000  Uiso   1.00
C8     C     0.54497   0.10877   0.68061   0.00000  Uiso   1.00
C9     C     0.60130   0.14452   0.52823   0.00000  Uiso   1.00
C10    C     0.42405   0.11113   0.01592   0.00000  Uiso   1.00
C11    C     0.46135   0.10911   0.11540   0.00000  Uiso   1.00
C12    C     0.45118   0.15359   0.18263   0.00000  Uiso   1.00
C13    C     0.45322   0.21526   0.32081   0.00000  Uiso   1.00
C14    C     0.34290   0.14961   0.87249   0.00000  Uiso   1.00
C15    C     0.29505   0.09696   0.87461   0.00000  Uiso   1.00
C16    C     0.21487   0.09181   0.84915   0.00000  Uiso   1.00
C17    C     0.18207   0.04014   0.85604   0.00000  Uiso   1.00
C18    C     0.41322   0.13929   0.79755   0.00000  Uiso   1.00
C19    C     0.43239   0.16973   0.70731   0.00000  Uiso   1.00
C20    C     0.49908   0.15371   0.64932   0.00000  Uiso   1.00
C21    C     0.37824   0.15599   0.98469   0.00000  Uiso   1.00
C22    C     0.36803   0.20048   0.05178   0.00000  Uiso   1.00
C23    C     0.40529   0.19852   0.15134   0.00000  Uiso   1.00
H24    H     0.46291   0.03210   0.95430   0.00000  Uiso   1.00
H25    H     0.34365   0.96573   0.93693   0.00000  Uiso   1.00
H26    H     0.56115   0.04365   0.79512   0.00000  Uiso   1.00
H27    H     0.49679   0.07439   0.13954   0.00000  Uiso   1.00
H28    H     0.19123   0.91193   0.90387   0.00000  Uiso   1.00
H29    H     0.64985   0.07623   0.60487   0.00000  Uiso   1.00
H30    H     0.51415   0.14106   0.33114   0.00000  Uiso   1.00
H31    H     0.30724   0.18453   0.84817   0.00000  Uiso   1.00
H32    H     0.17943   0.12653   0.82498   0.00000  Uiso   1.00
H33    H     0.39693   0.20444   0.68316   0.00000  Uiso   1.00
H34    H     0.33257   0.23518   0.02758   0.00000  Uiso   1.00
H35    H     0.05795   0.04243   0.81300   0.00000  Uiso   1.00
H36    H     0.51657   0.20674   0.51400   0.00000  Uiso   1.00
H37    H     0.38086   0.27156   0.24027   0.00000  Uiso   1.00
O38    O     0.04333   0.93627   0.84506   0.00000  Uiso   1.00
O39    O     0.64503   0.15184   0.45280   0.00000  Uiso   1.00
O40    O     0.46699   0.23688   0.40565   0.00000  Uiso   1.00
N41    N     0.17740   0.95060   0.88569   0.00000  Uiso   1.00
N42    N     0.60617   0.10422   0.60613   0.00000  Uiso   1.00
N43    N     0.47932   0.16482   0.28512   0.00000  Uiso   1.00
N44    N     0.10568   0.02083   0.83679   0.00000  Uiso   1.00
N45    N     0.53445   0.17444   0.55723   0.00000  Uiso   1.00
N46    N     0.40760   0.23505   0.23623   0.00000  Uiso   1.00
C47    C     0.42724   0.56702   0.42999   0.00000  Uiso   1.00
C48    C     0.34086   0.55210   0.40585   0.00000  Uiso   1.00
C49    C     0.30818   0.50044   0.41277   0.00000  Uiso   1.00
C50    C     0.22797   0.49521   0.38732   0.00000  Uiso   1.00
C51    C     0.10081   0.46521   0.35453   0.00000  Uiso   1.00
C52    C     0.45902   0.59443   0.32878   0.00000  Uiso   1.00
C53    C     0.52570   0.57836   0.27093   0.00000  Uiso   1.00
C54    C     0.54497   0.60877   0.18061   0.00000  Uiso   1.00
C55    C     0.60130   0.64452   0.02823   0.00000  Uiso   1.00
C56    C     0.42405   0.61113   0.51592   0.00000  Uiso   1.00
C57    C     0.46135   0.60911   0.61540   0.00000  Uiso   1.00
C58    C     0.45118   0.65359   0.68263   0.00000  Uiso   1.00
C59    C     0.45322   0.71526   0.82081   0.00000  Uiso   1.00
C60    C     0.34290   0.64961   0.37249   0.00000  Uiso   1.00
C61    C     0.29505   0.59696   0.37461   0.00000  Uiso   1.00
C62    C     0.21487   0.59181   0.34915   0.00000  Uiso   1.00
C63    C     0.18207   0.54014   0.35604   0.00000  Uiso   1.00
C64    C     0.41322   0.63929   0.29755   0.00000  Uiso   1.00
C65    C     0.43239   0.66973   0.20731   0.00000  Uiso   1.00
C66    C     0.49908   0.65371   0.14932   0.00000  Uiso   1.00
C67    C     0.37824   0.65599   0.48469   0.00000  Uiso   1.00
C68    C     0.36803   0.70048   0.55178   0.00000  Uiso   1.00
C69    C     0.40529   0.69852   0.65134   0.00000  Uiso   1.00
H70    H     0.46291   0.53210   0.45430   0.00000  Uiso   1.00
H71    H     0.34365   0.46573   0.43693   0.00000  Uiso   1.00
H72    H     0.56115   0.54365   0.29512   0.00000  Uiso   1.00
H73    H     0.49679   0.57439   0.63954   0.00000  Uiso   1.00
H74    H     0.19123   0.41193   0.40387   0.00000  Uiso   1.00
H75    H     0.64985   0.57623   0.10487   0.00000  Uiso   1.00
H76    H     0.51415   0.64106   0.83114   0.00000  Uiso   1.00
H77    H     0.30724   0.68453   0.34817   0.00000  Uiso   1.00
H78    H     0.17943   0.62653   0.32498   0.00000  Uiso   1.00
H79    H     0.39693   0.70444   0.18316   0.00000  Uiso   1.00
H80    H     0.33257   0.73518   0.52758   0.00000  Uiso   1.00
H81    H     0.05795   0.54243   0.31300   0.00000  Uiso   1.00
H82    H     0.51657   0.70674   0.01400   0.00000  Uiso   1.00
H83    H     0.38086   0.77156   0.74027   0.00000  Uiso   1.00
O84    O     0.04333   0.43627   0.34506   0.00000  Uiso   1.00
O85    O     0.64503   0.65184   0.95280   0.00000  Uiso   1.00
O86    O     0.46699   0.73688   0.90565   0.00000  Uiso   1.00
N87    N     0.17740   0.45060   0.38569   0.00000  Uiso   1.00
N88    N     0.60617   0.60422   0.10613   0.00000  Uiso   1.00
N89    N     0.47932   0.66482   0.78512   0.00000  Uiso   1.00
N90    N     0.10568   0.52083   0.33679   0.00000  Uiso   1.00
N91    N     0.53445   0.67444   0.05723   0.00000  Uiso   1.00
N92    N     0.40760   0.73505   0.73623   0.00000  Uiso   1.00
C93    C     0.57276   0.93298   0.92999   0.00000  Uiso   1.00
C94    C     0.65914   0.94790   0.90585   0.00000  Uiso   1.00
C95    C     0.69182   0.99956   0.91277   0.00000  Uiso   1.00
C96    C     0.77203   0.00479   0.88732   0.00000  Uiso   1.00
C97    C     0.89919   0.03479   0.85453   0.00000  Uiso   1.00
C98    C     0.54098   0.90557   0.82878   0.00000  Uiso   1.00
C99    C     0.47430   0.92164   0.77093   0.00000  Uiso   1.00
C100   C     0.45503   0.89123   0.68061   0.00000  Uiso   1.00
C101   C     0.39870   0.85548   0.52823   0.00000  Uiso   1.00
C102   C     0.57595   0.88887   0.01592   0.00000  Uiso   1.00
C103   C     0.53865   0.89089   0.11540   0.00000  Uiso   1.00
C104   C     0.54882   0.84641   0.18263   0.00000  Uiso   1.00
C105   C     0.54678   0.78474   0.32081   0.00000  Uiso   1.00
C106   C     0.65710   0.85039   0.87249   0.00000  Uiso   1.00
C107   C     0.70495   0.90304   0.87461   0.00000  Uiso   1.00
C108   C     0.78513   0.90819   0.84915   0.00000  Uiso   1.00
C109   C     0.81793   0.95986   0.85604   0.00000  Uiso   1.00
C110   C     0.58678   0.86071   0.79755   0.00000  Uiso   1.00
C111   C     0.56761   0.83027   0.70731   0.00000  Uiso   1.00
C112   C     0.50092   0.84629   0.64932   0.00000  Uiso   1.00
C113   C     0.62176   0.84401   0.98469   0.00000  Uiso   1.00
C114   C     0.63197   0.79952   0.05178   0.00000  Uiso   1.00
C115   C     0.59471   0.80148   0.15134   0.00000  Uiso   1.00
H116   H     0.53709   0.96790   0.95430   0.00000  Uiso   1.00
H117   H     0.65635   0.03427   0.93693   0.00000  Uiso   1.00
H118   H     0.43885   0.95635   0.79512   0.00000  Uiso   1.00
H119   H     0.50321   0.92561   0.13954   0.00000  Uiso   1.00
H120   H     0.80877   0.08807   0.90387   0.00000  Uiso   1.00
H121   H     0.35015   0.92377   0.60487   0.00000  Uiso   1.00
H122   H     0.48585   0.85894   0.33114   0.00000  Uiso   1.00
H123   H     0.69276   0.81547   0.84817   0.00000  Uiso   1.00
H124   H     0.82057   0.87347   0.82498   0.00000  Uiso   1.00
H125   H     0.60307   0.79556   0.68316   0.00000  Uiso   1.00
H126   H     0.66743   0.76482   0.02758   0.00000  Uiso   1.00
H127   H     0.94205   0.95757   0.81300   0.00000  Uiso   1.00
H128   H     0.48343   0.79326   0.51400   0.00000  Uiso   1.00
H129   H     0.61914   0.72844   0.24027   0.00000  Uiso   1.00
O130   O     0.95667   0.06373   0.84506   0.00000  Uiso   1.00
O131   O     0.35497   0.84816   0.45280   0.00000  Uiso   1.00
O132   O     0.53301   0.76312   0.40565   0.00000  Uiso   1.00
N133   N     0.82260   0.04940   0.88569   0.00000  Uiso   1.00
N134   N     0.39383   0.89578   0.60613   0.00000  Uiso   1.00
N135   N     0.52068   0.83518   0.28512   0.00000  Uiso   1.00
N136   N     0.89432   0.97917   0.83679   0.00000  Uiso   1.00
N137   N     0.46555   0.82556   0.55723   0.00000  Uiso   1.00
N138   N     0.59240   0.76495   0.23623   0.00000  Uiso   1.00
C139   C     0.57276   0.43298   0.42999   0.00000  Uiso   1.00
C140   C     0.65914   0.44790   0.40585   0.00000  Uiso   1.00
C141   C     0.69182   0.49956   0.41277   0.00000  Uiso   1.00
C142   C     0.77203   0.50479   0.38732   0.00000  Uiso   1.00
C143   C     0.89919   0.53479   0.35453   0.00000  Uiso   1.00
C144   C     0.54098   0.40557   0.32878   0.00000  Uiso   1.00
C145   C     0.47430   0.42164   0.27093   0.00000  Uiso   1.00
C146   C     0.45503   0.39123   0.18061   0.00000  Uiso   1.00
C147   C     0.39870   0.35548   0.02823   0.00000  Uiso   1.00
C148   C     0.57595   0.38887   0.51592   0.00000  Uiso   1.00
C149   C     0.53865   0.39089   0.61540   0.00000  Uiso   1.00
C150   C     0.54882   0.34641   0.68263   0.00000  Uiso   1.00
C151   C     0.54678   0.28474   0.82081   0.00000  Uiso   1.00
C152   C     0.65710   0.35039   0.37249   0.00000  Uiso   1.00
C153   C     0.70495   0.40304   0.37461   0.00000  Uiso   1.00
C154   C     0.78513   0.40819   0.34915   0.00000  Uiso   1.00
C155   C     0.81793   0.45986   0.35604   0.00000  Uiso   1.00
C156   C     0.58678   0.36071   0.29755   0.00000  Uiso   1.00
C157   C     0.56761   0.33027   0.20731   0.00000  Uiso   1.00
C158   C     0.50092   0.34629   0.14932   0.00000  Uiso   1.00
C159   C     0.62176   0.34401   0.48469   0.00000  Uiso   1.00
C160   C     0.63197   0.29952   0.55178   0.00000  Uiso   1.00
C161   C     0.59471   0.30148   0.65134   0.00000  Uiso   1.00
H162   H     0.53709   0.46790   0.45430   0.00000  Uiso   1.00
H163   H     0.65635   0.53427   0.43693   0.00000  Uiso   1.00
H164   H     0.43885   0.45635   0.29512   0.00000  Uiso   1.00
H165   H     0.50321   0.42561   0.63954   0.00000  Uiso   1.00
H166   H     0.80877   0.58807   0.40387   0.00000  Uiso   1.00
H167   H     0.35015   0.42377   0.10487   0.00000  Uiso   1.00
H168   H     0.48585   0.35894   0.83114   0.00000  Uiso   1.00
H169   H     0.69276   0.31547   0.34817   0.00000  Uiso   1.00
H170   H     0.82057   0.37347   0.32498   0.00000  Uiso   1.00
H171   H     0.60307   0.29556   0.18316   0.00000  Uiso   1.00
H172   H     0.66743   0.26482   0.52758   0.00000  Uiso   1.00
H173   H     0.94205   0.45757   0.31300   0.00000  Uiso   1.00
H174   H     0.48343   0.29326   0.01400   0.00000  Uiso   1.00
H175   H     0.61914   0.22844   0.74027   0.00000  Uiso   1.00
O176   O     0.95667   0.56373   0.34506   0.00000  Uiso   1.00
O177   O     0.35497   0.34816   0.95280   0.00000  Uiso   1.00
O178   O     0.53301   0.26312   0.90565   0.00000  Uiso   1.00
N179   N     0.82260   0.54940   0.38569   0.00000  Uiso   1.00
N180   N     0.39383   0.39578   0.10613   0.00000  Uiso   1.00
N181   N     0.52068   0.33518   0.78512   0.00000  Uiso   1.00
N182   N     0.89432   0.47917   0.33679   0.00000  Uiso   1.00
N183   N     0.46555   0.32556   0.05723   0.00000  Uiso   1.00
N184   N     0.59240   0.26495   0.73623   0.00000  Uiso   1.00
C185   C     0.92724   0.43298   0.92999   0.00000  Uiso   1.00
C186   C     0.84086   0.44790   0.90585   0.00000  Uiso   1.00
C187   C     0.80818   0.49956   0.91277   0.00000  Uiso   1.00
C188   C     0.72797   0.50479   0.88732   0.00000  Uiso   1.00
C189   C     0.60081   0.53479   0.85453   0.00000  Uiso   1.00
C190   C     0.95902   0.40557   0.82878   0.00000  Uiso   1.00
C191   C     0.02570   0.42164   0.77093   0.00000  Uiso   1.00
C192   C     0.04497   0.39123   0.68061   0.00000  Uiso   1.00
C193   C     0.10130   0.35548   0.52823   0.00000  Uiso   1.00
C194   C     0.92405   0.38887   0.01592   0.00000  Uiso   1.00
C195   C     0.96135   0.39089   0.11540   0.00000  Uiso   1.00
C196   C     0.95118   0.34641   0.18263   0.00000  Uiso   1.00
C197   C     0.95322   0.28474   0.32081   0.00000  Uiso   1.00
C198   C     0.84290   0.35039   0.87249   0.00000  Uiso   1.00
C199   C     0.79505   0.40304   0.87461   0.00000  Uiso   1.00
C200   C     0.71487   0.40819   0.84915   0.00000  Uiso   1.00
C201   C     0.68207   0.45986   0.85604   0.00000  Uiso   1.00
C202   C     0.91322   0.36071   0.79755   0.00000  Uiso   1.00
C203   C     0.93239   0.33027   0.70731   0.00000  Uiso   1.00
C204   C     0.99908   0.34629   0.64932   0.00000  Uiso   1.00
C205   C     0.87824   0.34401   0.98469   0.00000  Uiso   1.00
C206   C     0.86803   0.29952   0.05178   0.00000  Uiso   1.00
C207   C     0.90529   0.30148   0.15134   0.00000  Uiso   1.00
H208   H     0.96291   0.46790   0.95430   0.00000  Uiso   1.00
H209   H     0.84365   0.53427   0.93693   0.00000  Uiso   1.00
H210   H     0.06115   0.45635   0.79512   0.00000  Uiso   1.00
H211   H     0.99679   0.42561   0.13954   0.00000  Uiso   1.00
H212   H     0.69123   0.58807   0.90387   0.00000  Uiso   1.00
H213   H     0.14985   0.42377   0.60487   0.00000  Uiso   1.00
H214   H     0.01415   0.35894   0.33114   0.00000  Uiso   1.00
H215   H     0.80724   0.31547   0.84817   0.00000  Uiso   1.00
H216   H     0.67943   0.37347   0.82498   0.00000  Uiso   1.00
H217   H     0.89693   0.29556   0.68316   0.00000  Uiso   1.00
H218   H     0.83257   0.26482   0.02758   0.00000  Uiso   1.00
H219   H     0.55795   0.45757   0.81300   0.00000  Uiso   1.00
H220   H     0.01657   0.29326   0.51400   0.00000  Uiso   1.00
H221   H     0.88086   0.22844   0.24027   0.00000  Uiso   1.00
O222   O     0.54333   0.56373   0.84506   0.00000  Uiso   1.00
O223   O     0.14503   0.34816   0.45280   0.00000  Uiso   1.00
O224   O     0.96699   0.26312   0.40565   0.00000  Uiso   1.00
N225   N     0.67740   0.54940   0.88569   0.00000  Uiso   1.00
N226   N     0.10617   0.39578   0.60613   0.00000  Uiso   1.00
N227   N     0.97932   0.33518   0.28512   0.00000  Uiso   1.00
N228   N     0.60568   0.47917   0.83679   0.00000  Uiso   1.00
N229   N     0.03445   0.32556   0.55723   0.00000  Uiso   1.00
N230   N     0.90760   0.26495   0.23623   0.00000  Uiso   1.00
C231   C     0.92724   0.93298   0.42999   0.00000  Uiso   1.00
C232   C     0.84086   0.94790   0.40585   0.00000  Uiso   1.00
C233   C     0.80818   0.99956   0.41277   0.00000  Uiso   1.00
C234   C     0.72797   0.00479   0.38732   0.00000  Uiso   1.00
C235   C     0.60081   0.03479   0.35453   0.00000  Uiso   1.00
C236   C     0.95902   0.90557   0.32878   0.00000  Uiso   1.00
C237   C     0.02570   0.92164   0.27093   0.00000  Uiso   1.00
C238   C     0.04497   0.89123   0.18061   0.00000  Uiso   1.00
C239   C     0.10130   0.85548   0.02823   0.00000  Uiso   1.00
C240   C     0.92405   0.88887   0.51592   0.00000  Uiso   1.00
C241   C     0.96135   0.89089   0.61540   0.00000  Uiso   1.00
C242   C     0.95118   0.84641   0.68263   0.00000  Uiso   1.00
C243   C     0.95322   0.78474   0.82081   0.00000  Uiso   1.00
C244   C     0.84290   0.85039   0.37249   0.00000  Uiso   1.00
C245   C     0.79505   0.90304   0.37461   0.00000  Uiso   1.00
C246   C     0.71487   0.90819   0.34915   0.00000  Uiso   1.00
C247   C     0.68207   0.95986   0.35604   0.00000  Uiso   1.00
C248   C     0.91322   0.86071   0.29755   0.00000  Uiso   1.00
C249   C     0.93239   0.83027   0.20731   0.00000  Uiso   1.00
C250   C     0.99908   0.84629   0.14932   0.00000  Uiso   1.00
C251   C     0.87824   0.84401   0.48469   0.00000  Uiso   1.00
C252   C     0.86803   0.79952   0.55178   0.00000  Uiso   1.00
C253   C     0.90529   0.80148   0.65134   0.00000  Uiso   1.00
H254   H     0.96291   0.96790   0.45430   0.00000  Uiso   1.00
H255   H     0.84365   0.03427   0.43693   0.00000  Uiso   1.00
H256   H     0.06115   0.95635   0.29512   0.00000  Uiso   1.00
H257   H     0.99679   0.92561   0.63954   0.00000  Uiso   1.00
H258   H     0.69123   0.08807   0.40387   0.00000  Uiso   1.00
H259   H     0.14985   0.92377   0.10487   0.00000  Uiso   1.00
H260   H     0.01415   0.85894   0.83114   0.00000  Uiso   1.00
H261   H     0.80724   0.81547   0.34817   0.00000  Uiso   1.00
H262   H     0.67943   0.87347   0.32498   0.00000  Uiso   1.00
H263   H     0.89693   0.79556   0.18316   0.00000  Uiso   1.00
H264   H     0.83257   0.76482   0.52758   0.00000  Uiso   1.00
H265   H     0.55795   0.95757   0.31300   0.00000  Uiso   1.00
H266   H     0.01657   0.79326   0.01400   0.00000  Uiso   1.00
H267   H     0.88086   0.72844   0.74027   0.00000  Uiso   1.00
O268   O     0.54333   0.06373   0.34506   0.00000  Uiso   1.00
O269   O     0.14503   0.84816   0.95280   0.00000  Uiso   1.00
O270   O     0.96699   0.76312   0.90565   0.00000  Uiso   1.00
N271   N     0.67740   0.04940   0.38569   0.00000  Uiso   1.00
N272   N     0.10617   0.89578   0.10613   0.00000  Uiso   1.00
N273   N     0.97932   0.83518   0.78512   0.00000  Uiso   1.00
N274   N     0.60568   0.97917   0.33679   0.00000  Uiso   1.00
N275   N     0.03445   0.82556   0.05723   0.00000  Uiso   1.00
N276   N     0.90760   0.76495   0.73623   0.00000  Uiso   1.00
C277   C     0.07276   0.56702   0.92999   0.00000  Uiso   1.00
C278   C     0.15914   0.55210   0.90585   0.00000  Uiso   1.00
C279   C     0.19182   0.50044   0.91277   0.00000  Uiso   1.00
C280   C     0.27203   0.49521   0.88732   0.00000  Uiso   1.00
C281   C     0.39919   0.46521   0.85453   0.00000  Uiso   1.00
C282   C     0.04098   0.59443   0.82878   0.00000  Uiso   1.00
C283   C     0.97430   0.57836   0.77093   0.00000  Uiso   1.00
C284   C     0.95503   0.60877   0.68061   0.00000  Uiso   1.00
C285   C     0.89870   0.64452   0.52823   0.00000  Uiso   1.00
C286   C     0.07595   0.61113   0.01592   0.00000  Uiso   1.00
C287   C     0.03865   0.60911   0.11540   0.00000  Uiso   1.00
C288   C     0.04882   0.65359   0.18263   0.00000  Uiso   1.00
C289   C     0.04678   0.71526   0.32081   0.00000  Uiso   1.00
C290   C     0.15710   0.64961   0.87249   0.00000  Uiso   1.00
C291   C     0.20495   0.59696   0.87461   0.00000  Uiso   1.00
C292   C     0.28513   0.59181   0.84915   0.00000  Uiso   1.00
C293   C     0.31793   0.54014   0.85604   0.00000  Uiso   1.00
C294   C     0.08678   0.63929   0.79755   0.00000  Uiso   1.00
C295   C     0.06761   0.66973   0.70731   0.00000  Uiso   1.00
C296   C     0.00092   0.65371   0.64932   0.00000  Uiso   1.00
C297   C     0.12176   0.65599   0.98469   0.00000  Uiso   1.00
C298   C     0.13197   0.70048   0.05178   0.00000  Uiso   1.00
C299   C     0.09471   0.69852   0.15134   0.00000  Uiso   1.00
H300   H     0.03709   0.53210   0.95430   0.00000  Uiso   1.00
H301   H     0.15635   0.46573   0.93693   0.00000  Uiso   1.00
H302   H     0.93885   0.54365   0.79512   0.00000  Uiso   1.00
H303   H     0.00321   0.57439   0.13954   0.00000  Uiso   1.00
H304   H     0.30877   0.41193   0.90387   0.00000  Uiso   1.00
H305   H     0.85015   0.57623   0.60487   0.00000  Uiso   1.00
H306   H     0.98585   0.64106   0.33114   0.00000  Uiso   1.00
H307   H     0.19276   0.68453   0.84817   0.00000  Uiso   1.00
H308   H     0.32057   0.62653   0.82498   0.00000  Uiso   1.00
H309   H     0.10307   0.70444   0.68316   0.00000  Uiso   1.00
H310   H     0.16743   0.73518   0.02758   0.00000  Uiso   1.00
H311   H     0.44205   0.54243   0.81300   0.00000  Uiso   1.00
H312   H     0.98343   0.70674   0.51400   0.00000  Uiso   1.00
H313   H     0.11914   0.77156   0.24027   0.00000  Uiso   1.00
O314   O     0.45667   0.43627   0.84506   0.00000  Uiso   1.00
O315   O     0.85497   0.65184   0.45280   0.00000  Uiso   1.00
O316   O     0.03301   0.73688   0.40565   0.00000  Uiso   1.00
N317   N     0.32260   0.45060   0.88569   0.00000  Uiso   1.00
N318   N     0.89383   0.60422   0.60613   0.00000  Uiso   1.00
N319   N     0.02068   0.66482   0.28512   0.00000  Uiso   1.00
N320   N     0.39432   0.52083   0.83679   0.00000  Uiso   1.00
N321   N     0.96555   0.67444   0.55723   0.00000  Uiso   1.00
N322   N     0.09240   0.73505   0.23623   0.00000  Uiso   1.00
C323   C     0.07276   0.06702   0.42999   0.00000  Uiso   1.00
C324   C     0.15914   0.05210   0.40585   0.00000  Uiso   1.00
C325   C     0.19182   0.00044   0.41277   0.00000  Uiso   1.00
C326   C     0.27203   0.99521   0.38732   0.00000  Uiso   1.00
C327   C     0.39919   0.96521   0.35453   0.00000  Uiso   1.00
C328   C     0.04098   0.09443   0.32878   0.00000  Uiso   1.00
C329   C     0.97430   0.07836   0.27093   0.00000  Uiso   1.00
C330   C     0.95503   0.10877   0.18061   0.00000  Uiso   1.00
C331   C     0.89870   0.14452   0.02823   0.00000  Uiso   1.00
C332   C     0.07595   0.11113   0.51592   0.00000  Uiso   1.00
C333   C     0.03865   0.10911   0.61540   0.00000  Uiso   1.00
C334   C     0.04882   0.15359   0.68263   0.00000  Uiso   1.00
C335   C     0.04678   0.21526   0.82081   0.00000  Uiso   1.00
C336   C     0.15710   0.14961   0.37249   0.00000  Uiso   1.00
C337   C     0.20495   0.09696   0.37461   0.00000  Uiso   1.00
C338   C     0.28513   0.09181   0.34915   0.00000  Uiso   1.00
C339   C     0.31793   0.04014   0.35604   0.00000  Uiso   1.00
C340   C     0.08678   0.13929   0.29755   0.00000  Uiso   1.00
C341   C     0.06761   0.16973   0.20731   0.00000  Uiso   1.00
C342   C     0.00092   0.15371   0.14932   0.00000  Uiso   1.00
C343   C     0.12176   0.15599   0.48469   0.00000  Uiso   1.00
C344   C     0.13197   0.20048   0.55178   0.00000  Uiso   1.00
C345   C     0.09471   0.19852   0.65134   0.00000  Uiso   1.00
H346   H     0.03709   0.03210   0.45430   0.00000  Uiso   1.00
H347   H     0.15635   0.96573   0.43693   0.00000  Uiso   1.00
H348   H     0.93885   0.04365   0.29512   0.00000  Uiso   1.00
H349   H     0.00321   0.07439   0.63954   0.00000  Uiso   1.00
H350   H     0.30877   0.91193   0.40387   0.00000  Uiso   1.00
H351   H     0.85015   0.07623   0.10487   0.00000  Uiso   1.00
H352   H     0.98585   0.14106   0.83114   0.00000  Uiso   1.00
H353   H     0.19276   0.18453   0.34817   0.00000  Uiso   1.00
H354   H     0.32057   0.12653   0.32498   0.00000  Uiso   1.00
H355   H     0.10307   0.20444   0.18316   0.00000  Uiso   1.00
H356   H     0.16743   0.23518   0.52758   0.00000  Uiso   1.00
H357   H     0.44205   0.04243   0.31300   0.00000  Uiso   1.00
H358   H     0.98343   0.20674   0.01400   0.00000  Uiso   1.00
H359   H     0.11914   0.27156   0.74027   0.00000  Uiso   1.00
O360   O     0.45667   0.93627   0.34506   0.00000  Uiso   1.00
O361   O     0.85497   0.15184   0.95280   0.00000  Uiso   1.00
O362   O     0.03301   0.23688   0.90565   0.00000  Uiso   1.00
N363   N     0.32260   0.95060   0.38569   0.00000  Uiso   1.00
N364   N     0.89383   0.10422   0.10613   0.00000  Uiso   1.00
N365   N     0.02068   0.16482   0.78512   0.00000  Uiso   1.00
N366   N     0.39432   0.02083   0.33679   0.00000  Uiso   1.00
N367   N     0.96555   0.17444   0.05723   0.00000  Uiso   1.00
N368   N     0.09240   0.23505   0.73623   0.00000  Uiso   1.00
