data_job_05033
_audit_creation_date              2018-12-19
_audit_creation_method            'Materials Studio'
_symmetry_space_group_name_H-M    'P1'
_symmetry_Int_Tables_number       1
_symmetry_cell_setting            triclinic
loop_
_symmetry_equiv_pos_as_xyz
  x,y,z
_cell_length_a                    18.9279
_cell_length_b                    16.5488
_cell_length_c                    18.7913
_cell_angle_alpha                 90.0000
_cell_angle_beta                  98.0322
_cell_angle_gamma                 90.0000
loop_
_atom_site_label
_atom_site_type_symbol
_atom_site_fract_x
_atom_site_fract_y
_atom_site_fract_z
_atom_site_U_iso_or_equiv
_atom_site_adp_type
_atom_site_occupancy
C1     C     0.22986   0.04472   0.17890   0.00000  Uiso   1.00
C2     C     0.28627   0.10268   0.15829   0.00000  Uiso   1.00
C3     C     0.32481   0.15792   0.20384   0.00000  Uiso   1.00
C4     C     0.37395   0.20551   0.17469   0.00000  Uiso   1.00
C5     C     0.45996   0.29667   0.15365   0.00000  Uiso   1.00
C6     C     0.16217   0.06181   0.12694   0.00000  Uiso   1.00
C7     C     0.09637   0.08267   0.14614   0.00000  Uiso   1.00
C8     C     0.04104   0.09584   0.09061   0.00000  Uiso   1.00
C9     C     0.93436   0.12348   0.02090   0.00000  Uiso   1.00
C10    C     0.25399   0.96028   0.16050   0.00000  Uiso   1.00
C11    C     0.26538   0.89576   0.20790   0.00000  Uiso   1.00
C12    C     0.28734   0.82344   0.18061   0.00000  Uiso   1.00
C13    C     0.32324   0.69344   0.16299   0.00000  Uiso   1.00
C14    C     0.24860   0.03100   0.04615   0.00000  Uiso   1.00
C15    C     0.29644   0.09523   0.08618   0.00000  Uiso   1.00
C16    C     0.34554   0.14274   0.05696   0.00000  Uiso   1.00
C17    C     0.38415   0.19804   0.10246   0.00000  Uiso   1.00
C18    C     0.17234   0.05436   0.05484   0.00000  Uiso   1.00
C19    C     0.11710   0.06749   0.99927   0.00000  Uiso   1.00
C20    C     0.05123   0.08837   0.01837   0.00000  Uiso   1.00
C21    C     0.26417   0.95282   0.08839   0.00000  Uiso   1.00
C22    C     0.28611   0.88058   0.06102   0.00000  Uiso   1.00
C23    C     0.29754   0.81597   0.10837   0.00000  Uiso   1.00
H24    H     0.22193   0.05053   0.23504   0.00000  Uiso   1.00
H25    H     0.31691   0.16368   0.25963   0.00000  Uiso   1.00
H26    H     0.08850   0.08843   0.20194   0.00000  Uiso   1.00
H27    H     0.25749   0.90155   0.26369   0.00000  Uiso   1.00
H28    H     0.42668   0.28586   0.25510   0.00000  Uiso   1.00
H29    H     0.94506   0.12717   0.13346   0.00000  Uiso   1.00
H30    H     0.30141   0.73310   0.26366   0.00000  Uiso   1.00
H31    H     0.25653   0.02520   0.99001   0.00000  Uiso   1.00
H32    H     0.35341   0.13696   0.00116   0.00000  Uiso   1.00
H33    H     0.12500   0.06171   0.94347   0.00000  Uiso   1.00
H34    H     0.29399   0.87483   0.00522   0.00000  Uiso   1.00
H35    H     0.45630   0.26418   0.04531   0.00000  Uiso   1.00
H36    H     0.97468   0.10548   0.92367   0.00000  Uiso   1.00
H37    H     0.33103   0.71141   0.05388   0.00000  Uiso   1.00
O38    O     0.50458   0.34902   0.16195   0.00000  Uiso   1.00
O39    O     0.87271   0.14080   0.00237   0.00000  Uiso   1.00
O40    O     0.34023   0.62380   0.17320   0.00000  Uiso   1.00
N41    N     0.42037   0.26541   0.20420   0.00000  Uiso   1.00
N42    N     0.97009   0.11705   0.09047   0.00000  Uiso   1.00
N43    N     0.30322   0.74862   0.21220   0.00000  Uiso   1.00
N44    N     0.43631   0.25374   0.09131   0.00000  Uiso   1.00
N45    N     0.98602   0.10538   0.97759   0.00000  Uiso   1.00
N46    N     0.31916   0.73696   0.09931   0.00000  Uiso   1.00
C47    C     0.72986   0.54472   0.17890   0.00000  Uiso   1.00
C48    C     0.78627   0.60268   0.15829   0.00000  Uiso   1.00
C49    C     0.82481   0.65792   0.20384   0.00000  Uiso   1.00
C50    C     0.87395   0.70551   0.17469   0.00000  Uiso   1.00
C51    C     0.95996   0.79667   0.15365   0.00000  Uiso   1.00
C52    C     0.66217   0.56181   0.12694   0.00000  Uiso   1.00
C53    C     0.59637   0.58267   0.14614   0.00000  Uiso   1.00
C54    C     0.54104   0.59584   0.09061   0.00000  Uiso   1.00
C55    C     0.43436   0.62348   0.02090   0.00000  Uiso   1.00
C56    C     0.75399   0.46028   0.16050   0.00000  Uiso   1.00
C57    C     0.76538   0.39576   0.20790   0.00000  Uiso   1.00
C58    C     0.78734   0.32344   0.18061   0.00000  Uiso   1.00
C59    C     0.82324   0.19344   0.16299   0.00000  Uiso   1.00
C60    C     0.74860   0.53100   0.04615   0.00000  Uiso   1.00
C61    C     0.79644   0.59523   0.08618   0.00000  Uiso   1.00
C62    C     0.84554   0.64274   0.05696   0.00000  Uiso   1.00
C63    C     0.88415   0.69804   0.10246   0.00000  Uiso   1.00
C64    C     0.67234   0.55436   0.05484   0.00000  Uiso   1.00
C65    C     0.61710   0.56749   0.99927   0.00000  Uiso   1.00
C66    C     0.55123   0.58837   0.01837   0.00000  Uiso   1.00
C67    C     0.76417   0.45282   0.08839   0.00000  Uiso   1.00
C68    C     0.78611   0.38058   0.06102   0.00000  Uiso   1.00
C69    C     0.79754   0.31597   0.10837   0.00000  Uiso   1.00
H70    H     0.72193   0.55053   0.23504   0.00000  Uiso   1.00
H71    H     0.81691   0.66368   0.25963   0.00000  Uiso   1.00
H72    H     0.58850   0.58843   0.20194   0.00000  Uiso   1.00
H73    H     0.75749   0.40155   0.26369   0.00000  Uiso   1.00
H74    H     0.92668   0.78586   0.25510   0.00000  Uiso   1.00
H75    H     0.44506   0.62717   0.13346   0.00000  Uiso   1.00
H76    H     0.80141   0.23310   0.26366   0.00000  Uiso   1.00
H77    H     0.75653   0.52520   0.99001   0.00000  Uiso   1.00
H78    H     0.85341   0.63696   0.00116   0.00000  Uiso   1.00
H79    H     0.62500   0.56171   0.94347   0.00000  Uiso   1.00
H80    H     0.79399   0.37483   0.00522   0.00000  Uiso   1.00
H81    H     0.95630   0.76418   0.04531   0.00000  Uiso   1.00
H82    H     0.47468   0.60548   0.92367   0.00000  Uiso   1.00
H83    H     0.83103   0.21141   0.05388   0.00000  Uiso   1.00
O84    O     0.00458   0.84902   0.16195   0.00000  Uiso   1.00
O85    O     0.37271   0.64080   0.00237   0.00000  Uiso   1.00
O86    O     0.84023   0.12380   0.17320   0.00000  Uiso   1.00
N87    N     0.92037   0.76541   0.20420   0.00000  Uiso   1.00
N88    N     0.47009   0.61705   0.09047   0.00000  Uiso   1.00
N89    N     0.80322   0.24862   0.21220   0.00000  Uiso   1.00
N90    N     0.93631   0.75374   0.09131   0.00000  Uiso   1.00
N91    N     0.48602   0.60538   0.97759   0.00000  Uiso   1.00
N92    N     0.81916   0.23696   0.09931   0.00000  Uiso   1.00
C93    C     0.77014   0.04472   0.32110   0.00000  Uiso   1.00
C94    C     0.71373   0.10268   0.34171   0.00000  Uiso   1.00
C95    C     0.67519   0.15792   0.29616   0.00000  Uiso   1.00
C96    C     0.62605   0.20551   0.32531   0.00000  Uiso   1.00
C97    C     0.54004   0.29667   0.34635   0.00000  Uiso   1.00
C98    C     0.83783   0.06181   0.37306   0.00000  Uiso   1.00
C99    C     0.90363   0.08267   0.35386   0.00000  Uiso   1.00
C100   C     0.95896   0.09584   0.40939   0.00000  Uiso   1.00
C101   C     0.06564   0.12348   0.47910   0.00000  Uiso   1.00
C102   C     0.74601   0.96028   0.33950   0.00000  Uiso   1.00
C103   C     0.73462   0.89576   0.29210   0.00000  Uiso   1.00
C104   C     0.71266   0.82344   0.31939   0.00000  Uiso   1.00
C105   C     0.67676   0.69344   0.33701   0.00000  Uiso   1.00
C106   C     0.75140   0.03100   0.45385   0.00000  Uiso   1.00
C107   C     0.70356   0.09523   0.41382   0.00000  Uiso   1.00
C108   C     0.65446   0.14274   0.44304   0.00000  Uiso   1.00
C109   C     0.61585   0.19804   0.39754   0.00000  Uiso   1.00
C110   C     0.82766   0.05436   0.44516   0.00000  Uiso   1.00
C111   C     0.88290   0.06749   0.50073   0.00000  Uiso   1.00
C112   C     0.94877   0.08837   0.48163   0.00000  Uiso   1.00
C113   C     0.73583   0.95282   0.41161   0.00000  Uiso   1.00
C114   C     0.71389   0.88058   0.43898   0.00000  Uiso   1.00
C115   C     0.70246   0.81597   0.39163   0.00000  Uiso   1.00
H116   H     0.77807   0.05053   0.26496   0.00000  Uiso   1.00
H117   H     0.68309   0.16368   0.24037   0.00000  Uiso   1.00
H118   H     0.91150   0.08843   0.29806   0.00000  Uiso   1.00
H119   H     0.74251   0.90155   0.23631   0.00000  Uiso   1.00
H120   H     0.57332   0.28586   0.24490   0.00000  Uiso   1.00
H121   H     0.05494   0.12717   0.36654   0.00000  Uiso   1.00
H122   H     0.69859   0.73310   0.23634   0.00000  Uiso   1.00
H123   H     0.74347   0.02520   0.50999   0.00000  Uiso   1.00
H124   H     0.64659   0.13696   0.49884   0.00000  Uiso   1.00
H125   H     0.87500   0.06171   0.55653   0.00000  Uiso   1.00
H126   H     0.70601   0.87483   0.49478   0.00000  Uiso   1.00
H127   H     0.54370   0.26418   0.45469   0.00000  Uiso   1.00
H128   H     0.02532   0.10548   0.57633   0.00000  Uiso   1.00
H129   H     0.66897   0.71141   0.44612   0.00000  Uiso   1.00
O130   O     0.49542   0.34902   0.33805   0.00000  Uiso   1.00
O131   O     0.12729   0.14080   0.49763   0.00000  Uiso   1.00
O132   O     0.65977   0.62380   0.32680   0.00000  Uiso   1.00
N133   N     0.57963   0.26541   0.29580   0.00000  Uiso   1.00
N134   N     0.02991   0.11705   0.40953   0.00000  Uiso   1.00
N135   N     0.69678   0.74862   0.28780   0.00000  Uiso   1.00
N136   N     0.56369   0.25374   0.40869   0.00000  Uiso   1.00
N137   N     0.01398   0.10538   0.52241   0.00000  Uiso   1.00
N138   N     0.68084   0.73696   0.40069   0.00000  Uiso   1.00
C139   C     0.27014   0.54472   0.32110   0.00000  Uiso   1.00
C140   C     0.21373   0.60268   0.34171   0.00000  Uiso   1.00
C141   C     0.17519   0.65792   0.29616   0.00000  Uiso   1.00
C142   C     0.12605   0.70551   0.32531   0.00000  Uiso   1.00
C143   C     0.04004   0.79667   0.34635   0.00000  Uiso   1.00
C144   C     0.33783   0.56181   0.37306   0.00000  Uiso   1.00
C145   C     0.40363   0.58267   0.35386   0.00000  Uiso   1.00
C146   C     0.45896   0.59584   0.40939   0.00000  Uiso   1.00
C147   C     0.56564   0.62348   0.47910   0.00000  Uiso   1.00
C148   C     0.24601   0.46028   0.33950   0.00000  Uiso   1.00
C149   C     0.23462   0.39576   0.29210   0.00000  Uiso   1.00
C150   C     0.21266   0.32344   0.31939   0.00000  Uiso   1.00
C151   C     0.17676   0.19344   0.33701   0.00000  Uiso   1.00
C152   C     0.25140   0.53100   0.45385   0.00000  Uiso   1.00
C153   C     0.20356   0.59523   0.41382   0.00000  Uiso   1.00
C154   C     0.15446   0.64274   0.44304   0.00000  Uiso   1.00
C155   C     0.11585   0.69804   0.39754   0.00000  Uiso   1.00
C156   C     0.32766   0.55436   0.44516   0.00000  Uiso   1.00
C157   C     0.38290   0.56749   0.50073   0.00000  Uiso   1.00
C158   C     0.44877   0.58837   0.48163   0.00000  Uiso   1.00
C159   C     0.23583   0.45282   0.41161   0.00000  Uiso   1.00
C160   C     0.21389   0.38058   0.43898   0.00000  Uiso   1.00
C161   C     0.20246   0.31597   0.39163   0.00000  Uiso   1.00
H162   H     0.27807   0.55053   0.26496   0.00000  Uiso   1.00
H163   H     0.18309   0.66368   0.24037   0.00000  Uiso   1.00
H164   H     0.41150   0.58843   0.29806   0.00000  Uiso   1.00
H165   H     0.24251   0.40155   0.23631   0.00000  Uiso   1.00
H166   H     0.07332   0.78586   0.24490   0.00000  Uiso   1.00
H167   H     0.55494   0.62717   0.36654   0.00000  Uiso   1.00
H168   H     0.19859   0.23310   0.23634   0.00000  Uiso   1.00
H169   H     0.24347   0.52520   0.50999   0.00000  Uiso   1.00
H170   H     0.14659   0.63696   0.49884   0.00000  Uiso   1.00
H171   H     0.37500   0.56171   0.55653   0.00000  Uiso   1.00
H172   H     0.20601   0.37483   0.49478   0.00000  Uiso   1.00
H173   H     0.04370   0.76418   0.45469   0.00000  Uiso   1.00
H174   H     0.52532   0.60548   0.57633   0.00000  Uiso   1.00
H175   H     0.16897   0.21141   0.44612   0.00000  Uiso   1.00
O176   O     0.99542   0.84902   0.33805   0.00000  Uiso   1.00
O177   O     0.62729   0.64080   0.49763   0.00000  Uiso   1.00
O178   O     0.15977   0.12380   0.32680   0.00000  Uiso   1.00
N179   N     0.07963   0.76541   0.29580   0.00000  Uiso   1.00
N180   N     0.52991   0.61705   0.40953   0.00000  Uiso   1.00
N181   N     0.19678   0.24862   0.28780   0.00000  Uiso   1.00
N182   N     0.06369   0.75374   0.40869   0.00000  Uiso   1.00
N183   N     0.51398   0.60538   0.52241   0.00000  Uiso   1.00
N184   N     0.18084   0.23696   0.40069   0.00000  Uiso   1.00
C185   C     0.77014   0.95528   0.82110   0.00000  Uiso   1.00
C186   C     0.71373   0.89732   0.84171   0.00000  Uiso   1.00
C187   C     0.67519   0.84208   0.79616   0.00000  Uiso   1.00
C188   C     0.62605   0.79449   0.82531   0.00000  Uiso   1.00
C189   C     0.54004   0.70333   0.84635   0.00000  Uiso   1.00
C190   C     0.83783   0.93819   0.87306   0.00000  Uiso   1.00
C191   C     0.90363   0.91733   0.85386   0.00000  Uiso   1.00
C192   C     0.95896   0.90416   0.90939   0.00000  Uiso   1.00
C193   C     0.06564   0.87652   0.97910   0.00000  Uiso   1.00
C194   C     0.74601   0.03972   0.83950   0.00000  Uiso   1.00
C195   C     0.73462   0.10424   0.79210   0.00000  Uiso   1.00
C196   C     0.71266   0.17656   0.81939   0.00000  Uiso   1.00
C197   C     0.67676   0.30656   0.83701   0.00000  Uiso   1.00
C198   C     0.75140   0.96900   0.95385   0.00000  Uiso   1.00
C199   C     0.70356   0.90477   0.91382   0.00000  Uiso   1.00
C200   C     0.65446   0.85726   0.94304   0.00000  Uiso   1.00
C201   C     0.61585   0.80196   0.89754   0.00000  Uiso   1.00
C202   C     0.82766   0.94564   0.94516   0.00000  Uiso   1.00
C203   C     0.88290   0.93251   0.00073   0.00000  Uiso   1.00
C204   C     0.94877   0.91163   0.98163   0.00000  Uiso   1.00
C205   C     0.73583   0.04718   0.91161   0.00000  Uiso   1.00
C206   C     0.71389   0.11942   0.93898   0.00000  Uiso   1.00
C207   C     0.70246   0.18403   0.89163   0.00000  Uiso   1.00
H208   H     0.77807   0.94947   0.76496   0.00000  Uiso   1.00
H209   H     0.68309   0.83632   0.74037   0.00000  Uiso   1.00
H210   H     0.91150   0.91157   0.79806   0.00000  Uiso   1.00
H211   H     0.74251   0.09845   0.73631   0.00000  Uiso   1.00
H212   H     0.57332   0.71414   0.74490   0.00000  Uiso   1.00
H213   H     0.05494   0.87283   0.86654   0.00000  Uiso   1.00
H214   H     0.69859   0.26690   0.73634   0.00000  Uiso   1.00
H215   H     0.74347   0.97480   0.00999   0.00000  Uiso   1.00
H216   H     0.64659   0.86304   0.99884   0.00000  Uiso   1.00
H217   H     0.87500   0.93829   0.05653   0.00000  Uiso   1.00
H218   H     0.70601   0.12517   0.99478   0.00000  Uiso   1.00
H219   H     0.54370   0.73582   0.95469   0.00000  Uiso   1.00
H220   H     0.02532   0.89452   0.07633   0.00000  Uiso   1.00
H221   H     0.66897   0.28859   0.94612   0.00000  Uiso   1.00
O222   O     0.49542   0.65098   0.83805   0.00000  Uiso   1.00
O223   O     0.12729   0.85920   0.99763   0.00000  Uiso   1.00
O224   O     0.65977   0.37620   0.82680   0.00000  Uiso   1.00
N225   N     0.57963   0.73459   0.79580   0.00000  Uiso   1.00
N226   N     0.02991   0.88295   0.90953   0.00000  Uiso   1.00
N227   N     0.69678   0.25138   0.78780   0.00000  Uiso   1.00
N228   N     0.56369   0.74626   0.90869   0.00000  Uiso   1.00
N229   N     0.01398   0.89462   0.02241   0.00000  Uiso   1.00
N230   N     0.68084   0.26304   0.90069   0.00000  Uiso   1.00
C231   C     0.27014   0.45528   0.82110   0.00000  Uiso   1.00
C232   C     0.21373   0.39732   0.84171   0.00000  Uiso   1.00
C233   C     0.17519   0.34208   0.79616   0.00000  Uiso   1.00
C234   C     0.12605   0.29449   0.82531   0.00000  Uiso   1.00
C235   C     0.04004   0.20333   0.84635   0.00000  Uiso   1.00
C236   C     0.33783   0.43819   0.87306   0.00000  Uiso   1.00
C237   C     0.40363   0.41733   0.85386   0.00000  Uiso   1.00
C238   C     0.45896   0.40416   0.90939   0.00000  Uiso   1.00
C239   C     0.56564   0.37652   0.97910   0.00000  Uiso   1.00
C240   C     0.24601   0.53972   0.83950   0.00000  Uiso   1.00
C241   C     0.23462   0.60424   0.79210   0.00000  Uiso   1.00
C242   C     0.21266   0.67656   0.81939   0.00000  Uiso   1.00
C243   C     0.17676   0.80656   0.83701   0.00000  Uiso   1.00
C244   C     0.25140   0.46900   0.95385   0.00000  Uiso   1.00
C245   C     0.20356   0.40477   0.91382   0.00000  Uiso   1.00
C246   C     0.15446   0.35726   0.94304   0.00000  Uiso   1.00
C247   C     0.11585   0.30196   0.89754   0.00000  Uiso   1.00
C248   C     0.32766   0.44564   0.94516   0.00000  Uiso   1.00
C249   C     0.38290   0.43251   0.00073   0.00000  Uiso   1.00
C250   C     0.44877   0.41163   0.98163   0.00000  Uiso   1.00
C251   C     0.23583   0.54718   0.91161   0.00000  Uiso   1.00
C252   C     0.21389   0.61942   0.93898   0.00000  Uiso   1.00
C253   C     0.20246   0.68403   0.89163   0.00000  Uiso   1.00
H254   H     0.27807   0.44947   0.76496   0.00000  Uiso   1.00
H255   H     0.18309   0.33632   0.74037   0.00000  Uiso   1.00
H256   H     0.41150   0.41157   0.79806   0.00000  Uiso   1.00
H257   H     0.24251   0.59845   0.73631   0.00000  Uiso   1.00
H258   H     0.07332   0.21414   0.74490   0.00000  Uiso   1.00
H259   H     0.55494   0.37283   0.86654   0.00000  Uiso   1.00
H260   H     0.19859   0.76690   0.73634   0.00000  Uiso   1.00
H261   H     0.24347   0.47480   0.00999   0.00000  Uiso   1.00
H262   H     0.14659   0.36304   0.99884   0.00000  Uiso   1.00
H263   H     0.37500   0.43829   0.05653   0.00000  Uiso   1.00
H264   H     0.20601   0.62517   0.99478   0.00000  Uiso   1.00
H265   H     0.04370   0.23582   0.95469   0.00000  Uiso   1.00
H266   H     0.52532   0.39452   0.07633   0.00000  Uiso   1.00
H267   H     0.16897   0.78859   0.94612   0.00000  Uiso   1.00
O268   O     0.99542   0.15098   0.83805   0.00000  Uiso   1.00
O269   O     0.62729   0.35920   0.99763   0.00000  Uiso   1.00
O270   O     0.15977   0.87620   0.82680   0.00000  Uiso   1.00
N271   N     0.07963   0.23459   0.79580   0.00000  Uiso   1.00
N272   N     0.52991   0.38295   0.90953   0.00000  Uiso   1.00
N273   N     0.19678   0.75138   0.78780   0.00000  Uiso   1.00
N274   N     0.06369   0.24626   0.90869   0.00000  Uiso   1.00
N275   N     0.51398   0.39462   0.02241   0.00000  Uiso   1.00
N276   N     0.18084   0.76304   0.90069   0.00000  Uiso   1.00
C277   C     0.22986   0.95528   0.67890   0.00000  Uiso   1.00
C278   C     0.28627   0.89732   0.65829   0.00000  Uiso   1.00
C279   C     0.32481   0.84208   0.70384   0.00000  Uiso   1.00
C280   C     0.37395   0.79449   0.67469   0.00000  Uiso   1.00
C281   C     0.45996   0.70333   0.65365   0.00000  Uiso   1.00
C282   C     0.16217   0.93819   0.62694   0.00000  Uiso   1.00
C283   C     0.09637   0.91733   0.64614   0.00000  Uiso   1.00
C284   C     0.04104   0.90416   0.59061   0.00000  Uiso   1.00
C285   C     0.93436   0.87652   0.52090   0.00000  Uiso   1.00
C286   C     0.25399   0.03972   0.66050   0.00000  Uiso   1.00
C287   C     0.26538   0.10424   0.70790   0.00000  Uiso   1.00
C288   C     0.28734   0.17656   0.68061   0.00000  Uiso   1.00
C289   C     0.32324   0.30656   0.66299   0.00000  Uiso   1.00
C290   C     0.24860   0.96900   0.54615   0.00000  Uiso   1.00
C291   C     0.29644   0.90477   0.58618   0.00000  Uiso   1.00
C292   C     0.34554   0.85726   0.55696   0.00000  Uiso   1.00
C293   C     0.38415   0.80196   0.60246   0.00000  Uiso   1.00
C294   C     0.17234   0.94564   0.55484   0.00000  Uiso   1.00
C295   C     0.11710   0.93251   0.49927   0.00000  Uiso   1.00
C296   C     0.05123   0.91163   0.51837   0.00000  Uiso   1.00
C297   C     0.26417   0.04718   0.58839   0.00000  Uiso   1.00
C298   C     0.28611   0.11942   0.56102   0.00000  Uiso   1.00
C299   C     0.29754   0.18403   0.60837   0.00000  Uiso   1.00
H300   H     0.22193   0.94947   0.73504   0.00000  Uiso   1.00
H301   H     0.31691   0.83632   0.75963   0.00000  Uiso   1.00
H302   H     0.08850   0.91157   0.70194   0.00000  Uiso   1.00
H303   H     0.25749   0.09845   0.76369   0.00000  Uiso   1.00
H304   H     0.42668   0.71414   0.75510   0.00000  Uiso   1.00
H305   H     0.94506   0.87283   0.63346   0.00000  Uiso   1.00
H306   H     0.30141   0.26690   0.76366   0.00000  Uiso   1.00
H307   H     0.25653   0.97480   0.49001   0.00000  Uiso   1.00
H308   H     0.35341   0.86304   0.50116   0.00000  Uiso   1.00
H309   H     0.12500   0.93829   0.44347   0.00000  Uiso   1.00
H310   H     0.29399   0.12517   0.50522   0.00000  Uiso   1.00
H311   H     0.45630   0.73582   0.54531   0.00000  Uiso   1.00
H312   H     0.97468   0.89452   0.42367   0.00000  Uiso   1.00
H313   H     0.33103   0.28859   0.55388   0.00000  Uiso   1.00
O314   O     0.50458   0.65098   0.66195   0.00000  Uiso   1.00
O315   O     0.87271   0.85920   0.50237   0.00000  Uiso   1.00
O316   O     0.34023   0.37620   0.67320   0.00000  Uiso   1.00
N317   N     0.42037   0.73459   0.70420   0.00000  Uiso   1.00
N318   N     0.97009   0.88295   0.59047   0.00000  Uiso   1.00
N319   N     0.30322   0.25138   0.71220   0.00000  Uiso   1.00
N320   N     0.43631   0.74626   0.59131   0.00000  Uiso   1.00
N321   N     0.98602   0.89462   0.47759   0.00000  Uiso   1.00
N322   N     0.31916   0.26304   0.59931   0.00000  Uiso   1.00
C323   C     0.72986   0.45528   0.67890   0.00000  Uiso   1.00
C324   C     0.78627   0.39732   0.65829   0.00000  Uiso   1.00
C325   C     0.82481   0.34208   0.70384   0.00000  Uiso   1.00
C326   C     0.87395   0.29449   0.67469   0.00000  Uiso   1.00
C327   C     0.95996   0.20333   0.65365   0.00000  Uiso   1.00
C328   C     0.66217   0.43819   0.62694   0.00000  Uiso   1.00
C329   C     0.59637   0.41733   0.64614   0.00000  Uiso   1.00
C330   C     0.54104   0.40416   0.59061   0.00000  Uiso   1.00
C331   C     0.43436   0.37652   0.52090   0.00000  Uiso   1.00
C332   C     0.75399   0.53972   0.66050   0.00000  Uiso   1.00
C333   C     0.76538   0.60424   0.70790   0.00000  Uiso   1.00
C334   C     0.78734   0.67656   0.68061   0.00000  Uiso   1.00
C335   C     0.82324   0.80656   0.66299   0.00000  Uiso   1.00
C336   C     0.74860   0.46900   0.54615   0.00000  Uiso   1.00
C337   C     0.79644   0.40477   0.58618   0.00000  Uiso   1.00
C338   C     0.84554   0.35726   0.55696   0.00000  Uiso   1.00
C339   C     0.88415   0.30196   0.60246   0.00000  Uiso   1.00
C340   C     0.67234   0.44564   0.55484   0.00000  Uiso   1.00
C341   C     0.61710   0.43251   0.49927   0.00000  Uiso   1.00
C342   C     0.55123   0.41163   0.51837   0.00000  Uiso   1.00
C343   C     0.76417   0.54718   0.58839   0.00000  Uiso   1.00
C344   C     0.78611   0.61942   0.56102   0.00000  Uiso   1.00
C345   C     0.79754   0.68403   0.60837   0.00000  Uiso   1.00
H346   H     0.72193   0.44947   0.73504   0.00000  Uiso   1.00
H347   H     0.81691   0.33632   0.75963   0.00000  Uiso   1.00
H348   H     0.58850   0.41157   0.70194   0.00000  Uiso   1.00
H349   H     0.75749   0.59845   0.76369   0.00000  Uiso   1.00
H350   H     0.92668   0.21414   0.75510   0.00000  Uiso   1.00
H351   H     0.44506   0.37283   0.63346   0.00000  Uiso   1.00
H352   H     0.80141   0.76690   0.76366   0.00000  Uiso   1.00
H353   H     0.75653   0.47480   0.49001   0.00000  Uiso   1.00
H354   H     0.85341   0.36304   0.50116   0.00000  Uiso   1.00
H355   H     0.62500   0.43829   0.44347   0.00000  Uiso   1.00
H356   H     0.79399   0.62517   0.50522   0.00000  Uiso   1.00
H357   H     0.95630   0.23582   0.54531   0.00000  Uiso   1.00
H358   H     0.47468   0.39452   0.42367   0.00000  Uiso   1.00
H359   H     0.83103   0.78859   0.55388   0.00000  Uiso   1.00
O360   O     0.00458   0.15098   0.66195   0.00000  Uiso   1.00
O361   O     0.37271   0.35920   0.50237   0.00000  Uiso   1.00
O362   O     0.84023   0.87620   0.67320   0.00000  Uiso   1.00
N363   N     0.92037   0.23459   0.70420   0.00000  Uiso   1.00
N364   N     0.47009   0.38295   0.59047   0.00000  Uiso   1.00
N365   N     0.80322   0.75138   0.71220   0.00000  Uiso   1.00
N366   N     0.93631   0.24626   0.59131   0.00000  Uiso   1.00
N367   N     0.48602   0.39462   0.47759   0.00000  Uiso   1.00
N368   N     0.81916   0.76304   0.59931   0.00000  Uiso   1.00
