data_job_00927
_audit_creation_date              2018-12-19
_audit_creation_method            'Materials Studio'
_symmetry_space_group_name_H-M    'P1'
_symmetry_Int_Tables_number       1
_symmetry_cell_setting            triclinic
loop_
_symmetry_equiv_pos_as_xyz
  x,y,z
_cell_length_a                    25.8894
_cell_length_b                    27.1805
_cell_length_c                    10.4588
_cell_angle_alpha                 90.0000
_cell_angle_beta                  111.2601
_cell_angle_gamma                 90.0000
loop_
_atom_site_label
_atom_site_type_symbol
_atom_site_fract_x
_atom_site_fract_y
_atom_site_fract_z
_atom_site_U_iso_or_equiv
_atom_site_adp_type
_atom_site_occupancy
C1     C     0.74006   0.60599   0.01904   0.00000  Uiso   1.00
C2     C     0.74973   0.61532   0.88568   0.00000  Uiso   1.00
C3     C     0.74232   0.65988   0.81656   0.00000  Uiso   1.00
C4     C     0.75336   0.66084   0.69621   0.00000  Uiso   1.00
C5     C     0.76564   0.68172   0.49661   0.00000  Uiso   1.00
C6     C     0.69844   0.56387   0.98927   0.00000  Uiso   1.00
C7     C     0.64791   0.56517   0.00726   0.00000  Uiso   1.00
C8     C     0.61579   0.52282   0.97413   0.00000  Uiso   1.00
C9     C     0.54846   0.46382   0.93545   0.00000  Uiso   1.00
C10    C     0.79447   0.58566   0.11993   0.00000  Uiso   1.00
C11    C     0.82468   0.60528   0.24780   0.00000  Uiso   1.00
C12    C     0.87339   0.58127   0.32469   0.00000  Uiso   1.00
C13    C     0.95516   0.55609   0.48888   0.00000  Uiso   1.00
C14    C     0.77284   0.52846   0.92824   0.00000  Uiso   1.00
C15    C     0.76753   0.57321   0.83636   0.00000  Uiso   1.00
C16    C     0.77859   0.57410   0.71610   0.00000  Uiso   1.00
C17    C     0.77120   0.61866   0.64681   0.00000  Uiso   1.00
C18    C     0.71624   0.52176   0.93995   0.00000  Uiso   1.00
C19    C     0.68419   0.47940   0.90680   0.00000  Uiso   1.00
C20    C     0.63363   0.48064   0.92472   0.00000  Uiso   1.00
C21    C     0.81228   0.54355   0.07061   0.00000  Uiso   1.00
C22    C     0.86095   0.51950   0.14733   0.00000  Uiso   1.00
C23    C     0.89123   0.53908   0.27529   0.00000  Uiso   1.00
H24    H     0.72619   0.63878   0.05744   0.00000  Uiso   1.00
H25    H     0.72853   0.69246   0.85475   0.00000  Uiso   1.00
H26    H     0.63415   0.59777   0.04544   0.00000  Uiso   1.00
H27    H     0.81088   0.63786   0.28593   0.00000  Uiso   1.00
H28    H     0.73896   0.73340   0.60827   0.00000  Uiso   1.00
H29    H     0.53995   0.53373   0.01038   0.00000  Uiso   1.00
H30    H     0.91264   0.61828   0.51751   0.00000  Uiso   1.00
H31    H     0.78671   0.49568   0.88984   0.00000  Uiso   1.00
H32    H     0.79237   0.54151   0.67795   0.00000  Uiso   1.00
H33    H     0.69798   0.44682   0.86864   0.00000  Uiso   1.00
H34    H     0.87472   0.48691   0.10913   0.00000  Uiso   1.00
H35    H     0.79077   0.61088   0.46476   0.00000  Uiso   1.00
H36    H     0.59177   0.41121   0.86689   0.00000  Uiso   1.00
H37    H     0.96445   0.49577   0.37401   0.00000  Uiso   1.00
O38    O     0.76748   0.70487   0.40013   0.00000  Uiso   1.00
O39    O     0.50640   0.44291   0.92772   0.00000  Uiso   1.00
O40    O     0.99535   0.55384   0.59306   0.00000  Uiso   1.00
N41    N     0.75039   0.69828   0.60359   0.00000  Uiso   1.00
N42    N     0.56432   0.51160   0.97952   0.00000  Uiso   1.00
N43    N     0.91274   0.59065   0.45366   0.00000  Uiso   1.00
N44    N     0.77827   0.63235   0.52637   0.00000  Uiso   1.00
N45    N     0.59221   0.44568   0.90230   0.00000  Uiso   1.00
N46    N     0.94063   0.52472   0.37645   0.00000  Uiso   1.00
C47    C     0.24006   0.10599   0.01904   0.00000  Uiso   1.00
C48    C     0.24973   0.11532   0.88568   0.00000  Uiso   1.00
C49    C     0.24232   0.15988   0.81656   0.00000  Uiso   1.00
C50    C     0.25336   0.16084   0.69621   0.00000  Uiso   1.00
C51    C     0.26564   0.18172   0.49661   0.00000  Uiso   1.00
C52    C     0.19844   0.06387   0.98927   0.00000  Uiso   1.00
C53    C     0.14791   0.06517   0.00726   0.00000  Uiso   1.00
C54    C     0.11579   0.02282   0.97413   0.00000  Uiso   1.00
C55    C     0.04846   0.96382   0.93545   0.00000  Uiso   1.00
C56    C     0.29447   0.08566   0.11993   0.00000  Uiso   1.00
C57    C     0.32468   0.10528   0.24780   0.00000  Uiso   1.00
C58    C     0.37339   0.08127   0.32469   0.00000  Uiso   1.00
C59    C     0.45516   0.05609   0.48888   0.00000  Uiso   1.00
C60    C     0.27284   0.02846   0.92824   0.00000  Uiso   1.00
C61    C     0.26753   0.07321   0.83636   0.00000  Uiso   1.00
C62    C     0.27859   0.07410   0.71610   0.00000  Uiso   1.00
C63    C     0.27120   0.11866   0.64681   0.00000  Uiso   1.00
C64    C     0.21624   0.02176   0.93995   0.00000  Uiso   1.00
C65    C     0.18419   0.97940   0.90680   0.00000  Uiso   1.00
C66    C     0.13363   0.98064   0.92472   0.00000  Uiso   1.00
C67    C     0.31228   0.04355   0.07061   0.00000  Uiso   1.00
C68    C     0.36095   0.01950   0.14733   0.00000  Uiso   1.00
C69    C     0.39123   0.03908   0.27529   0.00000  Uiso   1.00
H70    H     0.22619   0.13878   0.05744   0.00000  Uiso   1.00
H71    H     0.22853   0.19246   0.85475   0.00000  Uiso   1.00
H72    H     0.13415   0.09777   0.04544   0.00000  Uiso   1.00
H73    H     0.31088   0.13786   0.28593   0.00000  Uiso   1.00
H74    H     0.23896   0.23340   0.60827   0.00000  Uiso   1.00
H75    H     0.03995   0.03373   0.01038   0.00000  Uiso   1.00
H76    H     0.41264   0.11828   0.51751   0.00000  Uiso   1.00
H77    H     0.28671   0.99568   0.88984   0.00000  Uiso   1.00
H78    H     0.29237   0.04151   0.67795   0.00000  Uiso   1.00
H79    H     0.19798   0.94682   0.86864   0.00000  Uiso   1.00
H80    H     0.37472   0.98691   0.10913   0.00000  Uiso   1.00
H81    H     0.29077   0.11088   0.46476   0.00000  Uiso   1.00
H82    H     0.09177   0.91121   0.86689   0.00000  Uiso   1.00
H83    H     0.46445   0.99577   0.37401   0.00000  Uiso   1.00
O84    O     0.26748   0.20487   0.40013   0.00000  Uiso   1.00
O85    O     0.00640   0.94291   0.92772   0.00000  Uiso   1.00
O86    O     0.49535   0.05384   0.59306   0.00000  Uiso   1.00
N87    N     0.25039   0.19828   0.60359   0.00000  Uiso   1.00
N88    N     0.06432   0.01160   0.97952   0.00000  Uiso   1.00
N89    N     0.41274   0.09065   0.45366   0.00000  Uiso   1.00
N90    N     0.27827   0.13235   0.52637   0.00000  Uiso   1.00
N91    N     0.09221   0.94568   0.90230   0.00000  Uiso   1.00
N92    N     0.44063   0.02472   0.37645   0.00000  Uiso   1.00
C93    C     0.25994   0.60599   0.48096   0.00000  Uiso   1.00
C94    C     0.25027   0.61532   0.61432   0.00000  Uiso   1.00
C95    C     0.25768   0.65988   0.68344   0.00000  Uiso   1.00
C96    C     0.24664   0.66084   0.80379   0.00000  Uiso   1.00
C97    C     0.23436   0.68172   0.00339   0.00000  Uiso   1.00
C98    C     0.30156   0.56387   0.51073   0.00000  Uiso   1.00
C99    C     0.35209   0.56517   0.49274   0.00000  Uiso   1.00
C100   C     0.38421   0.52282   0.52587   0.00000  Uiso   1.00
C101   C     0.45154   0.46382   0.56455   0.00000  Uiso   1.00
C102   C     0.20553   0.58566   0.38007   0.00000  Uiso   1.00
C103   C     0.17532   0.60528   0.25220   0.00000  Uiso   1.00
C104   C     0.12661   0.58127   0.17531   0.00000  Uiso   1.00
C105   C     0.04484   0.55609   0.01112   0.00000  Uiso   1.00
C106   C     0.22716   0.52846   0.57176   0.00000  Uiso   1.00
C107   C     0.23247   0.57321   0.66364   0.00000  Uiso   1.00
C108   C     0.22141   0.57410   0.78390   0.00000  Uiso   1.00
C109   C     0.22880   0.61866   0.85319   0.00000  Uiso   1.00
C110   C     0.28376   0.52176   0.56005   0.00000  Uiso   1.00
C111   C     0.31581   0.47940   0.59320   0.00000  Uiso   1.00
C112   C     0.36637   0.48064   0.57528   0.00000  Uiso   1.00
C113   C     0.18772   0.54355   0.42939   0.00000  Uiso   1.00
C114   C     0.13905   0.51950   0.35267   0.00000  Uiso   1.00
C115   C     0.10877   0.53908   0.22471   0.00000  Uiso   1.00
H116   H     0.27381   0.63878   0.44256   0.00000  Uiso   1.00
H117   H     0.27147   0.69246   0.64525   0.00000  Uiso   1.00
H118   H     0.36585   0.59777   0.45456   0.00000  Uiso   1.00
H119   H     0.18912   0.63786   0.21407   0.00000  Uiso   1.00
H120   H     0.26104   0.73340   0.89173   0.00000  Uiso   1.00
H121   H     0.46005   0.53373   0.48962   0.00000  Uiso   1.00
H122   H     0.08736   0.61828   0.98249   0.00000  Uiso   1.00
H123   H     0.21329   0.49568   0.61016   0.00000  Uiso   1.00
H124   H     0.20763   0.54151   0.82205   0.00000  Uiso   1.00
H125   H     0.30202   0.44682   0.63136   0.00000  Uiso   1.00
H126   H     0.12528   0.48691   0.39087   0.00000  Uiso   1.00
H127   H     0.20923   0.61088   0.03524   0.00000  Uiso   1.00
H128   H     0.40823   0.41121   0.63311   0.00000  Uiso   1.00
H129   H     0.03555   0.49577   0.12599   0.00000  Uiso   1.00
O130   O     0.23252   0.70487   0.09987   0.00000  Uiso   1.00
O131   O     0.49360   0.44291   0.57228   0.00000  Uiso   1.00
O132   O     0.00465   0.55384   0.90694   0.00000  Uiso   1.00
N133   N     0.24961   0.69828   0.89641   0.00000  Uiso   1.00
N134   N     0.43568   0.51160   0.52048   0.00000  Uiso   1.00
N135   N     0.08726   0.59065   0.04634   0.00000  Uiso   1.00
N136   N     0.22173   0.63235   0.97363   0.00000  Uiso   1.00
N137   N     0.40779   0.44568   0.59770   0.00000  Uiso   1.00
N138   N     0.05937   0.52472   0.12355   0.00000  Uiso   1.00
C139   C     0.75994   0.10599   0.48096   0.00000  Uiso   1.00
C140   C     0.75027   0.11532   0.61432   0.00000  Uiso   1.00
C141   C     0.75768   0.15988   0.68344   0.00000  Uiso   1.00
C142   C     0.74664   0.16084   0.80379   0.00000  Uiso   1.00
C143   C     0.73436   0.18172   0.00339   0.00000  Uiso   1.00
C144   C     0.80156   0.06387   0.51073   0.00000  Uiso   1.00
C145   C     0.85209   0.06517   0.49274   0.00000  Uiso   1.00
C146   C     0.88421   0.02282   0.52587   0.00000  Uiso   1.00
C147   C     0.95154   0.96382   0.56455   0.00000  Uiso   1.00
C148   C     0.70553   0.08566   0.38007   0.00000  Uiso   1.00
C149   C     0.67532   0.10528   0.25220   0.00000  Uiso   1.00
C150   C     0.62661   0.08127   0.17531   0.00000  Uiso   1.00
C151   C     0.54484   0.05609   0.01112   0.00000  Uiso   1.00
C152   C     0.72716   0.02846   0.57176   0.00000  Uiso   1.00
C153   C     0.73247   0.07321   0.66364   0.00000  Uiso   1.00
C154   C     0.72141   0.07410   0.78390   0.00000  Uiso   1.00
C155   C     0.72880   0.11866   0.85319   0.00000  Uiso   1.00
C156   C     0.78376   0.02176   0.56005   0.00000  Uiso   1.00
C157   C     0.81581   0.97940   0.59320   0.00000  Uiso   1.00
C158   C     0.86637   0.98064   0.57528   0.00000  Uiso   1.00
C159   C     0.68772   0.04355   0.42939   0.00000  Uiso   1.00
C160   C     0.63905   0.01950   0.35267   0.00000  Uiso   1.00
C161   C     0.60877   0.03908   0.22471   0.00000  Uiso   1.00
H162   H     0.77381   0.13878   0.44256   0.00000  Uiso   1.00
H163   H     0.77147   0.19246   0.64525   0.00000  Uiso   1.00
H164   H     0.86585   0.09777   0.45456   0.00000  Uiso   1.00
H165   H     0.68912   0.13786   0.21407   0.00000  Uiso   1.00
H166   H     0.76104   0.23340   0.89173   0.00000  Uiso   1.00
H167   H     0.96005   0.03373   0.48962   0.00000  Uiso   1.00
H168   H     0.58736   0.11828   0.98249   0.00000  Uiso   1.00
H169   H     0.71329   0.99568   0.61016   0.00000  Uiso   1.00
H170   H     0.70763   0.04151   0.82205   0.00000  Uiso   1.00
H171   H     0.80202   0.94682   0.63136   0.00000  Uiso   1.00
H172   H     0.62528   0.98691   0.39087   0.00000  Uiso   1.00
H173   H     0.70923   0.11088   0.03524   0.00000  Uiso   1.00
H174   H     0.90823   0.91121   0.63311   0.00000  Uiso   1.00
H175   H     0.53555   0.99577   0.12599   0.00000  Uiso   1.00
O176   O     0.73252   0.20487   0.09987   0.00000  Uiso   1.00
O177   O     0.99360   0.94291   0.57228   0.00000  Uiso   1.00
O178   O     0.50465   0.05384   0.90694   0.00000  Uiso   1.00
N179   N     0.74961   0.19828   0.89641   0.00000  Uiso   1.00
N180   N     0.93568   0.01160   0.52048   0.00000  Uiso   1.00
N181   N     0.58726   0.09065   0.04634   0.00000  Uiso   1.00
N182   N     0.72173   0.13235   0.97363   0.00000  Uiso   1.00
N183   N     0.90779   0.94568   0.59770   0.00000  Uiso   1.00
N184   N     0.55937   0.02472   0.12355   0.00000  Uiso   1.00
C185   C     0.25994   0.39401   0.98096   0.00000  Uiso   1.00
C186   C     0.25027   0.38468   0.11432   0.00000  Uiso   1.00
C187   C     0.25768   0.34012   0.18344   0.00000  Uiso   1.00
C188   C     0.24664   0.33916   0.30379   0.00000  Uiso   1.00
C189   C     0.23436   0.31828   0.50339   0.00000  Uiso   1.00
C190   C     0.30156   0.43613   0.01073   0.00000  Uiso   1.00
C191   C     0.35209   0.43483   0.99274   0.00000  Uiso   1.00
C192   C     0.38421   0.47718   0.02587   0.00000  Uiso   1.00
C193   C     0.45154   0.53618   0.06455   0.00000  Uiso   1.00
C194   C     0.20553   0.41434   0.88007   0.00000  Uiso   1.00
C195   C     0.17532   0.39472   0.75220   0.00000  Uiso   1.00
C196   C     0.12661   0.41873   0.67531   0.00000  Uiso   1.00
C197   C     0.04484   0.44391   0.51112   0.00000  Uiso   1.00
C198   C     0.22716   0.47154   0.07176   0.00000  Uiso   1.00
C199   C     0.23247   0.42679   0.16364   0.00000  Uiso   1.00
C200   C     0.22141   0.42590   0.28390   0.00000  Uiso   1.00
C201   C     0.22880   0.38134   0.35319   0.00000  Uiso   1.00
C202   C     0.28376   0.47824   0.06005   0.00000  Uiso   1.00
C203   C     0.31581   0.52060   0.09320   0.00000  Uiso   1.00
C204   C     0.36637   0.51936   0.07528   0.00000  Uiso   1.00
C205   C     0.18772   0.45645   0.92939   0.00000  Uiso   1.00
C206   C     0.13905   0.48050   0.85267   0.00000  Uiso   1.00
C207   C     0.10877   0.46092   0.72471   0.00000  Uiso   1.00
H208   H     0.27381   0.36122   0.94256   0.00000  Uiso   1.00
H209   H     0.27147   0.30754   0.14525   0.00000  Uiso   1.00
H210   H     0.36585   0.40223   0.95456   0.00000  Uiso   1.00
H211   H     0.18912   0.36214   0.71407   0.00000  Uiso   1.00
H212   H     0.26104   0.26660   0.39173   0.00000  Uiso   1.00
H213   H     0.46005   0.46627   0.98962   0.00000  Uiso   1.00
H214   H     0.08736   0.38172   0.48249   0.00000  Uiso   1.00
H215   H     0.21329   0.50432   0.11016   0.00000  Uiso   1.00
H216   H     0.20763   0.45849   0.32205   0.00000  Uiso   1.00
H217   H     0.30202   0.55318   0.13136   0.00000  Uiso   1.00
H218   H     0.12528   0.51309   0.89087   0.00000  Uiso   1.00
H219   H     0.20923   0.38912   0.53524   0.00000  Uiso   1.00
H220   H     0.40823   0.58879   0.13311   0.00000  Uiso   1.00
H221   H     0.03555   0.50423   0.62599   0.00000  Uiso   1.00
O222   O     0.23252   0.29513   0.59987   0.00000  Uiso   1.00
O223   O     0.49360   0.55709   0.07228   0.00000  Uiso   1.00
O224   O     0.00465   0.44616   0.40694   0.00000  Uiso   1.00
N225   N     0.24961   0.30172   0.39641   0.00000  Uiso   1.00
N226   N     0.43568   0.48840   0.02048   0.00000  Uiso   1.00
N227   N     0.08726   0.40935   0.54634   0.00000  Uiso   1.00
N228   N     0.22173   0.36765   0.47363   0.00000  Uiso   1.00
N229   N     0.40779   0.55432   0.09770   0.00000  Uiso   1.00
N230   N     0.05937   0.47528   0.62355   0.00000  Uiso   1.00
C231   C     0.75994   0.89401   0.98096   0.00000  Uiso   1.00
C232   C     0.75027   0.88468   0.11432   0.00000  Uiso   1.00
C233   C     0.75768   0.84012   0.18344   0.00000  Uiso   1.00
C234   C     0.74664   0.83916   0.30379   0.00000  Uiso   1.00
C235   C     0.73436   0.81828   0.50339   0.00000  Uiso   1.00
C236   C     0.80156   0.93613   0.01073   0.00000  Uiso   1.00
C237   C     0.85209   0.93483   0.99274   0.00000  Uiso   1.00
C238   C     0.88421   0.97718   0.02587   0.00000  Uiso   1.00
C239   C     0.95154   0.03618   0.06455   0.00000  Uiso   1.00
C240   C     0.70553   0.91434   0.88007   0.00000  Uiso   1.00
C241   C     0.67532   0.89472   0.75220   0.00000  Uiso   1.00
C242   C     0.62661   0.91873   0.67531   0.00000  Uiso   1.00
C243   C     0.54484   0.94391   0.51112   0.00000  Uiso   1.00
C244   C     0.72716   0.97154   0.07176   0.00000  Uiso   1.00
C245   C     0.73247   0.92679   0.16364   0.00000  Uiso   1.00
C246   C     0.72141   0.92590   0.28390   0.00000  Uiso   1.00
C247   C     0.72880   0.88134   0.35319   0.00000  Uiso   1.00
C248   C     0.78376   0.97824   0.06005   0.00000  Uiso   1.00
C249   C     0.81581   0.02060   0.09320   0.00000  Uiso   1.00
C250   C     0.86637   0.01936   0.07528   0.00000  Uiso   1.00
C251   C     0.68772   0.95645   0.92939   0.00000  Uiso   1.00
C252   C     0.63905   0.98050   0.85267   0.00000  Uiso   1.00
C253   C     0.60877   0.96092   0.72471   0.00000  Uiso   1.00
H254   H     0.77381   0.86122   0.94256   0.00000  Uiso   1.00
H255   H     0.77147   0.80754   0.14525   0.00000  Uiso   1.00
H256   H     0.86585   0.90223   0.95456   0.00000  Uiso   1.00
H257   H     0.68912   0.86214   0.71407   0.00000  Uiso   1.00
H258   H     0.76104   0.76660   0.39173   0.00000  Uiso   1.00
H259   H     0.96005   0.96627   0.98962   0.00000  Uiso   1.00
H260   H     0.58736   0.88172   0.48249   0.00000  Uiso   1.00
H261   H     0.71329   0.00432   0.11016   0.00000  Uiso   1.00
H262   H     0.70763   0.95849   0.32205   0.00000  Uiso   1.00
H263   H     0.80202   0.05318   0.13136   0.00000  Uiso   1.00
H264   H     0.62528   0.01309   0.89087   0.00000  Uiso   1.00
H265   H     0.70923   0.88912   0.53524   0.00000  Uiso   1.00
H266   H     0.90823   0.08879   0.13311   0.00000  Uiso   1.00
H267   H     0.53555   0.00423   0.62599   0.00000  Uiso   1.00
O268   O     0.73252   0.79513   0.59987   0.00000  Uiso   1.00
O269   O     0.99360   0.05709   0.07228   0.00000  Uiso   1.00
O270   O     0.50465   0.94616   0.40694   0.00000  Uiso   1.00
N271   N     0.74961   0.80172   0.39641   0.00000  Uiso   1.00
N272   N     0.93568   0.98840   0.02048   0.00000  Uiso   1.00
N273   N     0.58726   0.90935   0.54634   0.00000  Uiso   1.00
N274   N     0.72173   0.86765   0.47363   0.00000  Uiso   1.00
N275   N     0.90779   0.05432   0.09770   0.00000  Uiso   1.00
N276   N     0.55937   0.97528   0.62355   0.00000  Uiso   1.00
C277   C     0.74006   0.39401   0.51904   0.00000  Uiso   1.00
C278   C     0.74973   0.38468   0.38568   0.00000  Uiso   1.00
C279   C     0.74232   0.34012   0.31656   0.00000  Uiso   1.00
C280   C     0.75336   0.33916   0.19621   0.00000  Uiso   1.00
C281   C     0.76564   0.31828   0.99661   0.00000  Uiso   1.00
C282   C     0.69844   0.43613   0.48927   0.00000  Uiso   1.00
C283   C     0.64791   0.43483   0.50726   0.00000  Uiso   1.00
C284   C     0.61579   0.47718   0.47413   0.00000  Uiso   1.00
C285   C     0.54846   0.53618   0.43545   0.00000  Uiso   1.00
C286   C     0.79447   0.41434   0.61993   0.00000  Uiso   1.00
C287   C     0.82468   0.39472   0.74780   0.00000  Uiso   1.00
C288   C     0.87339   0.41873   0.82469   0.00000  Uiso   1.00
C289   C     0.95516   0.44391   0.98888   0.00000  Uiso   1.00
C290   C     0.77284   0.47154   0.42824   0.00000  Uiso   1.00
C291   C     0.76753   0.42679   0.33636   0.00000  Uiso   1.00
C292   C     0.77859   0.42590   0.21610   0.00000  Uiso   1.00
C293   C     0.77120   0.38134   0.14681   0.00000  Uiso   1.00
C294   C     0.71624   0.47824   0.43995   0.00000  Uiso   1.00
C295   C     0.68419   0.52060   0.40680   0.00000  Uiso   1.00
C296   C     0.63363   0.51936   0.42472   0.00000  Uiso   1.00
C297   C     0.81228   0.45645   0.57061   0.00000  Uiso   1.00
C298   C     0.86095   0.48050   0.64733   0.00000  Uiso   1.00
C299   C     0.89123   0.46092   0.77529   0.00000  Uiso   1.00
H300   H     0.72619   0.36122   0.55744   0.00000  Uiso   1.00
H301   H     0.72853   0.30754   0.35475   0.00000  Uiso   1.00
H302   H     0.63415   0.40223   0.54544   0.00000  Uiso   1.00
H303   H     0.81088   0.36214   0.78593   0.00000  Uiso   1.00
H304   H     0.73896   0.26660   0.10827   0.00000  Uiso   1.00
H305   H     0.53995   0.46627   0.51038   0.00000  Uiso   1.00
H306   H     0.91264   0.38172   0.01751   0.00000  Uiso   1.00
H307   H     0.78671   0.50432   0.38984   0.00000  Uiso   1.00
H308   H     0.79237   0.45849   0.17795   0.00000  Uiso   1.00
H309   H     0.69798   0.55318   0.36864   0.00000  Uiso   1.00
H310   H     0.87472   0.51309   0.60913   0.00000  Uiso   1.00
H311   H     0.79077   0.38912   0.96476   0.00000  Uiso   1.00
H312   H     0.59177   0.58879   0.36689   0.00000  Uiso   1.00
H313   H     0.96445   0.50423   0.87401   0.00000  Uiso   1.00
O314   O     0.76748   0.29513   0.90013   0.00000  Uiso   1.00
O315   O     0.50640   0.55709   0.42772   0.00000  Uiso   1.00
O316   O     0.99535   0.44616   0.09306   0.00000  Uiso   1.00
N317   N     0.75039   0.30172   0.10359   0.00000  Uiso   1.00
N318   N     0.56432   0.48840   0.47952   0.00000  Uiso   1.00
N319   N     0.91274   0.40935   0.95366   0.00000  Uiso   1.00
N320   N     0.77827   0.36765   0.02637   0.00000  Uiso   1.00
N321   N     0.59221   0.55432   0.40230   0.00000  Uiso   1.00
N322   N     0.94063   0.47528   0.87645   0.00000  Uiso   1.00
C323   C     0.24006   0.89401   0.51904   0.00000  Uiso   1.00
C324   C     0.24973   0.88468   0.38568   0.00000  Uiso   1.00
C325   C     0.24232   0.84012   0.31656   0.00000  Uiso   1.00
C326   C     0.25336   0.83916   0.19621   0.00000  Uiso   1.00
C327   C     0.26564   0.81828   0.99661   0.00000  Uiso   1.00
C328   C     0.19844   0.93613   0.48927   0.00000  Uiso   1.00
C329   C     0.14791   0.93483   0.50726   0.00000  Uiso   1.00
C330   C     0.11579   0.97718   0.47413   0.00000  Uiso   1.00
C331   C     0.04846   0.03618   0.43545   0.00000  Uiso   1.00
C332   C     0.29447   0.91434   0.61993   0.00000  Uiso   1.00
C333   C     0.32468   0.89472   0.74780   0.00000  Uiso   1.00
C334   C     0.37339   0.91873   0.82469   0.00000  Uiso   1.00
C335   C     0.45516   0.94391   0.98888   0.00000  Uiso   1.00
C336   C     0.27284   0.97154   0.42824   0.00000  Uiso   1.00
C337   C     0.26753   0.92679   0.33636   0.00000  Uiso   1.00
C338   C     0.27859   0.92590   0.21610   0.00000  Uiso   1.00
C339   C     0.27120   0.88134   0.14681   0.00000  Uiso   1.00
C340   C     0.21624   0.97824   0.43995   0.00000  Uiso   1.00
C341   C     0.18419   0.02060   0.40680   0.00000  Uiso   1.00
C342   C     0.13363   0.01936   0.42472   0.00000  Uiso   1.00
C343   C     0.31228   0.95645   0.57061   0.00000  Uiso   1.00
C344   C     0.36095   0.98050   0.64733   0.00000  Uiso   1.00
C345   C     0.39123   0.96092   0.77529   0.00000  Uiso   1.00
H346   H     0.22619   0.86122   0.55744   0.00000  Uiso   1.00
H347   H     0.22853   0.80754   0.35475   0.00000  Uiso   1.00
H348   H     0.13415   0.90223   0.54544   0.00000  Uiso   1.00
H349   H     0.31088   0.86214   0.78593   0.00000  Uiso   1.00
H350   H     0.23896   0.76660   0.10827   0.00000  Uiso   1.00
H351   H     0.03995   0.96627   0.51038   0.00000  Uiso   1.00
H352   H     0.41264   0.88172   0.01751   0.00000  Uiso   1.00
H353   H     0.28671   0.00432   0.38984   0.00000  Uiso   1.00
H354   H     0.29237   0.95849   0.17795   0.00000  Uiso   1.00
H355   H     0.19798   0.05318   0.36864   0.00000  Uiso   1.00
H356   H     0.37472   0.01309   0.60913   0.00000  Uiso   1.00
H357   H     0.29077   0.88912   0.96476   0.00000  Uiso   1.00
H358   H     0.09177   0.08879   0.36689   0.00000  Uiso   1.00
H359   H     0.46445   0.00423   0.87401   0.00000  Uiso   1.00
O360   O     0.26748   0.79513   0.90013   0.00000  Uiso   1.00
O361   O     0.00640   0.05709   0.42772   0.00000  Uiso   1.00
O362   O     0.49535   0.94616   0.09306   0.00000  Uiso   1.00
N363   N     0.25039   0.80172   0.10359   0.00000  Uiso   1.00
N364   N     0.06432   0.98840   0.47952   0.00000  Uiso   1.00
N365   N     0.41274   0.90935   0.95366   0.00000  Uiso   1.00
N366   N     0.27827   0.86765   0.02637   0.00000  Uiso   1.00
N367   N     0.09221   0.05432   0.40230   0.00000  Uiso   1.00
N368   N     0.44063   0.97528   0.87645   0.00000  Uiso   1.00
