data_job_01264
_audit_creation_date              2018-12-19
_audit_creation_method            'Materials Studio'
_symmetry_space_group_name_H-M    'P1'
_symmetry_Int_Tables_number       1
_symmetry_cell_setting            triclinic
loop_
_symmetry_equiv_pos_as_xyz
  x,y,z
_cell_length_a                    17.7591
_cell_length_b                    20.2606
_cell_length_c                    12.6260
_cell_angle_alpha                 90.0000
_cell_angle_beta                  90.0000
_cell_angle_gamma                 90.0000
loop_
_atom_site_label
_atom_site_type_symbol
_atom_site_fract_x
_atom_site_fract_y
_atom_site_fract_z
_atom_site_U_iso_or_equiv
_atom_site_adp_type
_atom_site_occupancy
C1     C     0.76172   0.22735   0.03785   0.00000  Uiso   1.00
C2     C     0.77568   0.17422   0.12111   0.00000  Uiso   1.00
C3     C     0.73777   0.16807   0.21671   0.00000  Uiso   1.00
C4     C     0.75884   0.11612   0.28201   0.00000  Uiso   1.00
C5     C     0.77188   0.04036   0.41578   0.00000  Uiso   1.00
C6     C     0.83732   0.26130   0.02017   0.00000  Uiso   1.00
C7     C     0.85123   0.32837   0.03089   0.00000  Uiso   1.00
C8     C     0.92419   0.34973   0.01121   0.00000  Uiso   1.00
C9     C     0.03291   0.40917   0.98819   0.00000  Uiso   1.00
C10    C     0.74402   0.19081   0.93525   0.00000  Uiso   1.00
C11    C     0.67948   0.19862   0.87455   0.00000  Uiso   1.00
C12    C     0.67389   0.16064   0.78336   0.00000  Uiso   1.00
C13    C     0.63774   0.11062   0.62849   0.00000  Uiso   1.00
C14    C     0.86657   0.14602   0.98382   0.00000  Uiso   1.00
C15    C     0.83263   0.13004   0.09176   0.00000  Uiso   1.00
C16    C     0.85376   0.07808   0.15693   0.00000  Uiso   1.00
C17    C     0.81588   0.07186   0.25261   0.00000  Uiso   1.00
C18    C     0.89427   0.21712   0.99083   0.00000  Uiso   1.00
C19    C     0.96722   0.23839   0.97111   0.00000  Uiso   1.00
C20    C     0.98124   0.30547   0.98181   0.00000  Uiso   1.00
C21    C     0.80096   0.14663   0.90590   0.00000  Uiso   1.00
C22    C     0.79548   0.10863   0.81478   0.00000  Uiso   1.00
C23    C     0.73094   0.11638   0.75396   0.00000  Uiso   1.00
H24    H     0.71739   0.26175   0.06070   0.00000  Uiso   1.00
H25    H     0.69371   0.20228   0.23940   0.00000  Uiso   1.00
H26    H     0.80715   0.36255   0.05360   0.00000  Uiso   1.00
H27    H     0.63543   0.23281   0.89729   0.00000  Uiso   1.00
H28    H     0.69258   0.11687   0.42459   0.00000  Uiso   1.00
H29    H     0.93177   0.45482   0.03279   0.00000  Uiso   1.00
H30    H     0.56966   0.18125   0.70318   0.00000  Uiso   1.00
H31    H     0.91090   0.11162   0.96097   0.00000  Uiso   1.00
H32    H     0.89783   0.04391   0.13420   0.00000  Uiso   1.00
H33    H     0.01128   0.20418   0.94840   0.00000  Uiso   1.00
H34    H     0.83955   0.07445   0.79209   0.00000  Uiso   1.00
H35    H     0.85826   0.98833   0.33921   0.00000  Uiso   1.00
H36    H     0.09745   0.32629   0.94740   0.00000  Uiso   1.00
H37    H     0.73534   0.05271   0.61780   0.00000  Uiso   1.00
O38    O     0.76334   0.01078   0.49767   0.00000  Uiso   1.00
O39    O     0.07715   0.45416   0.98362   0.00000  Uiso   1.00
O40    O     0.60207   0.09524   0.55119   0.00000  Uiso   1.00
N41    N     0.73335   0.09590   0.38072   0.00000  Uiso   1.00
N42    N     0.95699   0.41187   0.01442   0.00000  Uiso   1.00
N43    N     0.61845   0.15611   0.70625   0.00000  Uiso   1.00
N44    N     0.82250   0.02674   0.33477   0.00000  Uiso   1.00
N45    N     0.04614   0.34270   0.96847   0.00000  Uiso   1.00
N46    N     0.70760   0.08695   0.66030   0.00000  Uiso   1.00
C47    C     0.73828   0.77265   0.53785   0.00000  Uiso   1.00
C48    C     0.72432   0.82578   0.62111   0.00000  Uiso   1.00
C49    C     0.76223   0.83193   0.71671   0.00000  Uiso   1.00
C50    C     0.74116   0.88388   0.78201   0.00000  Uiso   1.00
C51    C     0.72812   0.95964   0.91578   0.00000  Uiso   1.00
C52    C     0.66268   0.73870   0.52017   0.00000  Uiso   1.00
C53    C     0.64877   0.67163   0.53089   0.00000  Uiso   1.00
C54    C     0.57581   0.65027   0.51121   0.00000  Uiso   1.00
C55    C     0.46709   0.59083   0.48819   0.00000  Uiso   1.00
C56    C     0.75598   0.80919   0.43525   0.00000  Uiso   1.00
C57    C     0.82052   0.80138   0.37455   0.00000  Uiso   1.00
C58    C     0.82611   0.83936   0.28336   0.00000  Uiso   1.00
C59    C     0.86226   0.88938   0.12849   0.00000  Uiso   1.00
C60    C     0.63343   0.85398   0.48382   0.00000  Uiso   1.00
C61    C     0.66737   0.86996   0.59176   0.00000  Uiso   1.00
C62    C     0.64624   0.92192   0.65693   0.00000  Uiso   1.00
C63    C     0.68412   0.92814   0.75261   0.00000  Uiso   1.00
C64    C     0.60573   0.78288   0.49083   0.00000  Uiso   1.00
C65    C     0.53278   0.76161   0.47111   0.00000  Uiso   1.00
C66    C     0.51876   0.69453   0.48181   0.00000  Uiso   1.00
C67    C     0.69904   0.85337   0.40590   0.00000  Uiso   1.00
C68    C     0.70452   0.89137   0.31478   0.00000  Uiso   1.00
C69    C     0.76906   0.88362   0.25396   0.00000  Uiso   1.00
H70    H     0.78261   0.73825   0.56070   0.00000  Uiso   1.00
H71    H     0.80629   0.79772   0.73940   0.00000  Uiso   1.00
H72    H     0.69285   0.63745   0.55360   0.00000  Uiso   1.00
H73    H     0.86457   0.76719   0.39729   0.00000  Uiso   1.00
H74    H     0.80742   0.88313   0.92459   0.00000  Uiso   1.00
H75    H     0.56823   0.54518   0.53279   0.00000  Uiso   1.00
H76    H     0.93034   0.81875   0.20318   0.00000  Uiso   1.00
H77    H     0.58910   0.88838   0.46097   0.00000  Uiso   1.00
H78    H     0.60217   0.95609   0.63420   0.00000  Uiso   1.00
H79    H     0.48872   0.79582   0.44840   0.00000  Uiso   1.00
H80    H     0.66045   0.92555   0.29209   0.00000  Uiso   1.00
H81    H     0.64174   0.01167   0.83921   0.00000  Uiso   1.00
H82    H     0.40255   0.67371   0.44740   0.00000  Uiso   1.00
H83    H     0.76466   0.94729   0.11780   0.00000  Uiso   1.00
O84    O     0.73666   0.98922   0.99767   0.00000  Uiso   1.00
O85    O     0.42285   0.54584   0.48362   0.00000  Uiso   1.00
O86    O     0.89793   0.90476   0.05119   0.00000  Uiso   1.00
N87    N     0.76665   0.90410   0.88072   0.00000  Uiso   1.00
N88    N     0.54301   0.58813   0.51442   0.00000  Uiso   1.00
N89    N     0.88155   0.84389   0.20625   0.00000  Uiso   1.00
N90    N     0.67750   0.97326   0.83477   0.00000  Uiso   1.00
N91    N     0.45386   0.65730   0.46847   0.00000  Uiso   1.00
N92    N     0.79240   0.91305   0.16030   0.00000  Uiso   1.00
C93    C     0.23828   0.72735   0.46215   0.00000  Uiso   1.00
C94    C     0.22432   0.67422   0.37889   0.00000  Uiso   1.00
C95    C     0.26223   0.66807   0.28329   0.00000  Uiso   1.00
C96    C     0.24116   0.61612   0.21799   0.00000  Uiso   1.00
C97    C     0.22812   0.54036   0.08422   0.00000  Uiso   1.00
C98    C     0.16268   0.76130   0.47983   0.00000  Uiso   1.00
C99    C     0.14877   0.82837   0.46911   0.00000  Uiso   1.00
C100   C     0.07581   0.84973   0.48879   0.00000  Uiso   1.00
C101   C     0.96709   0.90917   0.51181   0.00000  Uiso   1.00
C102   C     0.25598   0.69081   0.56475   0.00000  Uiso   1.00
C103   C     0.32052   0.69862   0.62545   0.00000  Uiso   1.00
C104   C     0.32611   0.66064   0.71664   0.00000  Uiso   1.00
C105   C     0.36226   0.61062   0.87151   0.00000  Uiso   1.00
C106   C     0.13343   0.64602   0.51618   0.00000  Uiso   1.00
C107   C     0.16737   0.63004   0.40824   0.00000  Uiso   1.00
C108   C     0.14624   0.57808   0.34307   0.00000  Uiso   1.00
C109   C     0.18412   0.57186   0.24739   0.00000  Uiso   1.00
C110   C     0.10573   0.71712   0.50917   0.00000  Uiso   1.00
C111   C     0.03278   0.73839   0.52889   0.00000  Uiso   1.00
C112   C     0.01876   0.80547   0.51819   0.00000  Uiso   1.00
C113   C     0.19904   0.64663   0.59410   0.00000  Uiso   1.00
C114   C     0.20452   0.60863   0.68522   0.00000  Uiso   1.00
C115   C     0.26906   0.61638   0.74604   0.00000  Uiso   1.00
H116   H     0.28261   0.76175   0.43930   0.00000  Uiso   1.00
H117   H     0.30629   0.70228   0.26060   0.00000  Uiso   1.00
H118   H     0.19285   0.86255   0.44640   0.00000  Uiso   1.00
H119   H     0.36457   0.73281   0.60271   0.00000  Uiso   1.00
H120   H     0.30742   0.61687   0.07541   0.00000  Uiso   1.00
H121   H     0.06823   0.95482   0.46721   0.00000  Uiso   1.00
H122   H     0.43034   0.68125   0.79682   0.00000  Uiso   1.00
H123   H     0.08910   0.61162   0.53903   0.00000  Uiso   1.00
H124   H     0.10217   0.54391   0.36580   0.00000  Uiso   1.00
H125   H     0.98872   0.70418   0.55160   0.00000  Uiso   1.00
H126   H     0.16045   0.57445   0.70791   0.00000  Uiso   1.00
H127   H     0.14174   0.48833   0.16079   0.00000  Uiso   1.00
H128   H     0.90255   0.82629   0.55260   0.00000  Uiso   1.00
H129   H     0.26466   0.55271   0.88220   0.00000  Uiso   1.00
O130   O     0.23666   0.51078   0.00233   0.00000  Uiso   1.00
O131   O     0.92285   0.95416   0.51638   0.00000  Uiso   1.00
O132   O     0.39793   0.59524   0.94881   0.00000  Uiso   1.00
N133   N     0.26665   0.59590   0.11928   0.00000  Uiso   1.00
N134   N     0.04301   0.91187   0.48558   0.00000  Uiso   1.00
N135   N     0.38155   0.65611   0.79375   0.00000  Uiso   1.00
N136   N     0.17750   0.52674   0.16523   0.00000  Uiso   1.00
N137   N     0.95386   0.84270   0.53153   0.00000  Uiso   1.00
N138   N     0.29240   0.58695   0.83970   0.00000  Uiso   1.00
C139   C     0.26172   0.27265   0.96215   0.00000  Uiso   1.00
C140   C     0.27568   0.32578   0.87889   0.00000  Uiso   1.00
C141   C     0.23777   0.33193   0.78329   0.00000  Uiso   1.00
C142   C     0.25884   0.38388   0.71799   0.00000  Uiso   1.00
C143   C     0.27188   0.45964   0.58422   0.00000  Uiso   1.00
C144   C     0.33732   0.23870   0.97983   0.00000  Uiso   1.00
C145   C     0.35123   0.17163   0.96911   0.00000  Uiso   1.00
C146   C     0.42419   0.15027   0.98879   0.00000  Uiso   1.00
C147   C     0.53291   0.09083   0.01181   0.00000  Uiso   1.00
C148   C     0.24402   0.30919   0.06475   0.00000  Uiso   1.00
C149   C     0.17948   0.30138   0.12545   0.00000  Uiso   1.00
C150   C     0.17389   0.33936   0.21664   0.00000  Uiso   1.00
C151   C     0.13774   0.38938   0.37151   0.00000  Uiso   1.00
C152   C     0.36657   0.35398   0.01618   0.00000  Uiso   1.00
C153   C     0.33263   0.36996   0.90824   0.00000  Uiso   1.00
C154   C     0.35376   0.42192   0.84307   0.00000  Uiso   1.00
C155   C     0.31588   0.42814   0.74739   0.00000  Uiso   1.00
C156   C     0.39427   0.28288   0.00917   0.00000  Uiso   1.00
C157   C     0.46722   0.26161   0.02889   0.00000  Uiso   1.00
C158   C     0.48124   0.19453   0.01819   0.00000  Uiso   1.00
C159   C     0.30096   0.35337   0.09410   0.00000  Uiso   1.00
C160   C     0.29548   0.39137   0.18522   0.00000  Uiso   1.00
C161   C     0.23094   0.38362   0.24604   0.00000  Uiso   1.00
H162   H     0.21739   0.23825   0.93930   0.00000  Uiso   1.00
H163   H     0.19371   0.29772   0.76060   0.00000  Uiso   1.00
H164   H     0.30715   0.13745   0.94640   0.00000  Uiso   1.00
H165   H     0.13543   0.26719   0.10271   0.00000  Uiso   1.00
H166   H     0.19258   0.38313   0.57541   0.00000  Uiso   1.00
H167   H     0.43177   0.04518   0.96721   0.00000  Uiso   1.00
H168   H     0.06966   0.31875   0.29682   0.00000  Uiso   1.00
H169   H     0.41090   0.38838   0.03903   0.00000  Uiso   1.00
H170   H     0.39783   0.45609   0.86580   0.00000  Uiso   1.00
H171   H     0.51128   0.29582   0.05160   0.00000  Uiso   1.00
H172   H     0.33955   0.42555   0.20791   0.00000  Uiso   1.00
H173   H     0.35826   0.51167   0.66079   0.00000  Uiso   1.00
H174   H     0.59745   0.17371   0.05260   0.00000  Uiso   1.00
H175   H     0.23534   0.44729   0.38220   0.00000  Uiso   1.00
O176   O     0.26334   0.48922   0.50233   0.00000  Uiso   1.00
O177   O     0.57715   0.04584   0.01638   0.00000  Uiso   1.00
O178   O     0.10207   0.40476   0.44881   0.00000  Uiso   1.00
N179   N     0.23335   0.40410   0.61928   0.00000  Uiso   1.00
N180   N     0.45699   0.08813   0.98558   0.00000  Uiso   1.00
N181   N     0.11845   0.34389   0.29375   0.00000  Uiso   1.00
N182   N     0.32250   0.47326   0.66523   0.00000  Uiso   1.00
N183   N     0.54614   0.15730   0.03153   0.00000  Uiso   1.00
N184   N     0.20760   0.41305   0.33970   0.00000  Uiso   1.00
C185   C     0.23828   0.77265   0.96215   0.00000  Uiso   1.00
C186   C     0.22432   0.82578   0.87889   0.00000  Uiso   1.00
C187   C     0.26223   0.83193   0.78329   0.00000  Uiso   1.00
C188   C     0.24116   0.88388   0.71799   0.00000  Uiso   1.00
C189   C     0.22812   0.95964   0.58422   0.00000  Uiso   1.00
C190   C     0.16268   0.73870   0.97983   0.00000  Uiso   1.00
C191   C     0.14877   0.67163   0.96911   0.00000  Uiso   1.00
C192   C     0.07581   0.65027   0.98879   0.00000  Uiso   1.00
C193   C     0.96709   0.59083   0.01181   0.00000  Uiso   1.00
C194   C     0.25598   0.80919   0.06475   0.00000  Uiso   1.00
C195   C     0.32052   0.80138   0.12545   0.00000  Uiso   1.00
C196   C     0.32611   0.83936   0.21664   0.00000  Uiso   1.00
C197   C     0.36226   0.88938   0.37151   0.00000  Uiso   1.00
C198   C     0.13343   0.85398   0.01618   0.00000  Uiso   1.00
C199   C     0.16737   0.86996   0.90824   0.00000  Uiso   1.00
C200   C     0.14624   0.92192   0.84307   0.00000  Uiso   1.00
C201   C     0.18412   0.92814   0.74739   0.00000  Uiso   1.00
C202   C     0.10573   0.78288   0.00917   0.00000  Uiso   1.00
C203   C     0.03278   0.76161   0.02889   0.00000  Uiso   1.00
C204   C     0.01876   0.69453   0.01819   0.00000  Uiso   1.00
C205   C     0.19904   0.85337   0.09410   0.00000  Uiso   1.00
C206   C     0.20452   0.89137   0.18522   0.00000  Uiso   1.00
C207   C     0.26906   0.88362   0.24604   0.00000  Uiso   1.00
H208   H     0.28261   0.73825   0.93930   0.00000  Uiso   1.00
H209   H     0.30629   0.79772   0.76060   0.00000  Uiso   1.00
H210   H     0.19285   0.63745   0.94640   0.00000  Uiso   1.00
H211   H     0.36457   0.76719   0.10271   0.00000  Uiso   1.00
H212   H     0.30742   0.88313   0.57541   0.00000  Uiso   1.00
H213   H     0.06823   0.54518   0.96721   0.00000  Uiso   1.00
H214   H     0.43034   0.81875   0.29682   0.00000  Uiso   1.00
H215   H     0.08910   0.88838   0.03903   0.00000  Uiso   1.00
H216   H     0.10217   0.95609   0.86580   0.00000  Uiso   1.00
H217   H     0.98872   0.79582   0.05160   0.00000  Uiso   1.00
H218   H     0.16045   0.92555   0.20791   0.00000  Uiso   1.00
H219   H     0.14174   0.01167   0.66079   0.00000  Uiso   1.00
H220   H     0.90255   0.67371   0.05260   0.00000  Uiso   1.00
H221   H     0.26466   0.94729   0.38220   0.00000  Uiso   1.00
O222   O     0.23666   0.98922   0.50233   0.00000  Uiso   1.00
O223   O     0.92285   0.54584   0.01638   0.00000  Uiso   1.00
O224   O     0.39793   0.90476   0.44881   0.00000  Uiso   1.00
N225   N     0.26665   0.90410   0.61928   0.00000  Uiso   1.00
N226   N     0.04301   0.58813   0.98558   0.00000  Uiso   1.00
N227   N     0.38155   0.84389   0.29375   0.00000  Uiso   1.00
N228   N     0.17750   0.97326   0.66523   0.00000  Uiso   1.00
N229   N     0.95386   0.65730   0.03153   0.00000  Uiso   1.00
N230   N     0.29240   0.91305   0.33970   0.00000  Uiso   1.00
C231   C     0.26172   0.22735   0.46215   0.00000  Uiso   1.00
C232   C     0.27568   0.17422   0.37889   0.00000  Uiso   1.00
C233   C     0.23777   0.16807   0.28329   0.00000  Uiso   1.00
C234   C     0.25884   0.11612   0.21799   0.00000  Uiso   1.00
C235   C     0.27188   0.04036   0.08422   0.00000  Uiso   1.00
C236   C     0.33732   0.26130   0.47983   0.00000  Uiso   1.00
C237   C     0.35123   0.32837   0.46911   0.00000  Uiso   1.00
C238   C     0.42419   0.34973   0.48879   0.00000  Uiso   1.00
C239   C     0.53291   0.40917   0.51181   0.00000  Uiso   1.00
C240   C     0.24402   0.19081   0.56475   0.00000  Uiso   1.00
C241   C     0.17948   0.19862   0.62545   0.00000  Uiso   1.00
C242   C     0.17389   0.16064   0.71664   0.00000  Uiso   1.00
C243   C     0.13774   0.11062   0.87151   0.00000  Uiso   1.00
C244   C     0.36657   0.14602   0.51618   0.00000  Uiso   1.00
C245   C     0.33263   0.13004   0.40824   0.00000  Uiso   1.00
C246   C     0.35376   0.07808   0.34307   0.00000  Uiso   1.00
C247   C     0.31588   0.07186   0.24739   0.00000  Uiso   1.00
C248   C     0.39427   0.21712   0.50917   0.00000  Uiso   1.00
C249   C     0.46722   0.23839   0.52889   0.00000  Uiso   1.00
C250   C     0.48124   0.30547   0.51819   0.00000  Uiso   1.00
C251   C     0.30096   0.14663   0.59410   0.00000  Uiso   1.00
C252   C     0.29548   0.10863   0.68522   0.00000  Uiso   1.00
C253   C     0.23094   0.11638   0.74604   0.00000  Uiso   1.00
H254   H     0.21739   0.26175   0.43930   0.00000  Uiso   1.00
H255   H     0.19371   0.20228   0.26060   0.00000  Uiso   1.00
H256   H     0.30715   0.36255   0.44640   0.00000  Uiso   1.00
H257   H     0.13543   0.23281   0.60271   0.00000  Uiso   1.00
H258   H     0.19258   0.11687   0.07541   0.00000  Uiso   1.00
H259   H     0.43177   0.45482   0.46721   0.00000  Uiso   1.00
H260   H     0.06966   0.18125   0.79682   0.00000  Uiso   1.00
H261   H     0.41090   0.11162   0.53903   0.00000  Uiso   1.00
H262   H     0.39783   0.04391   0.36580   0.00000  Uiso   1.00
H263   H     0.51128   0.20418   0.55160   0.00000  Uiso   1.00
H264   H     0.33955   0.07445   0.70791   0.00000  Uiso   1.00
H265   H     0.35826   0.98833   0.16079   0.00000  Uiso   1.00
H266   H     0.59745   0.32629   0.55260   0.00000  Uiso   1.00
H267   H     0.23534   0.05271   0.88220   0.00000  Uiso   1.00
O268   O     0.26334   0.01078   0.00233   0.00000  Uiso   1.00
O269   O     0.57715   0.45416   0.51638   0.00000  Uiso   1.00
O270   O     0.10207   0.09524   0.94881   0.00000  Uiso   1.00
N271   N     0.23335   0.09590   0.11928   0.00000  Uiso   1.00
N272   N     0.45699   0.41187   0.48558   0.00000  Uiso   1.00
N273   N     0.11845   0.15611   0.79375   0.00000  Uiso   1.00
N274   N     0.32250   0.02674   0.16523   0.00000  Uiso   1.00
N275   N     0.54614   0.34270   0.53153   0.00000  Uiso   1.00
N276   N     0.20760   0.08695   0.83970   0.00000  Uiso   1.00
C277   C     0.76172   0.27265   0.53785   0.00000  Uiso   1.00
C278   C     0.77568   0.32578   0.62111   0.00000  Uiso   1.00
C279   C     0.73777   0.33193   0.71671   0.00000  Uiso   1.00
C280   C     0.75884   0.38388   0.78201   0.00000  Uiso   1.00
C281   C     0.77188   0.45964   0.91578   0.00000  Uiso   1.00
C282   C     0.83732   0.23870   0.52017   0.00000  Uiso   1.00
C283   C     0.85123   0.17163   0.53089   0.00000  Uiso   1.00
C284   C     0.92419   0.15027   0.51121   0.00000  Uiso   1.00
C285   C     0.03291   0.09083   0.48819   0.00000  Uiso   1.00
C286   C     0.74402   0.30919   0.43525   0.00000  Uiso   1.00
C287   C     0.67948   0.30138   0.37455   0.00000  Uiso   1.00
C288   C     0.67389   0.33936   0.28336   0.00000  Uiso   1.00
C289   C     0.63774   0.38938   0.12849   0.00000  Uiso   1.00
C290   C     0.86657   0.35398   0.48382   0.00000  Uiso   1.00
C291   C     0.83263   0.36996   0.59176   0.00000  Uiso   1.00
C292   C     0.85376   0.42192   0.65693   0.00000  Uiso   1.00
C293   C     0.81588   0.42814   0.75261   0.00000  Uiso   1.00
C294   C     0.89427   0.28288   0.49083   0.00000  Uiso   1.00
C295   C     0.96722   0.26161   0.47111   0.00000  Uiso   1.00
C296   C     0.98124   0.19453   0.48181   0.00000  Uiso   1.00
C297   C     0.80096   0.35337   0.40590   0.00000  Uiso   1.00
C298   C     0.79548   0.39137   0.31478   0.00000  Uiso   1.00
C299   C     0.73094   0.38362   0.25396   0.00000  Uiso   1.00
H300   H     0.71739   0.23825   0.56070   0.00000  Uiso   1.00
H301   H     0.69371   0.29772   0.73940   0.00000  Uiso   1.00
H302   H     0.80715   0.13745   0.55360   0.00000  Uiso   1.00
H303   H     0.63543   0.26719   0.39729   0.00000  Uiso   1.00
H304   H     0.69258   0.38313   0.92459   0.00000  Uiso   1.00
H305   H     0.93177   0.04518   0.53279   0.00000  Uiso   1.00
H306   H     0.56966   0.31875   0.20318   0.00000  Uiso   1.00
H307   H     0.91090   0.38838   0.46097   0.00000  Uiso   1.00
H308   H     0.89783   0.45609   0.63420   0.00000  Uiso   1.00
H309   H     0.01128   0.29582   0.44840   0.00000  Uiso   1.00
H310   H     0.83955   0.42555   0.29209   0.00000  Uiso   1.00
H311   H     0.85826   0.51167   0.83921   0.00000  Uiso   1.00
H312   H     0.09745   0.17371   0.44740   0.00000  Uiso   1.00
H313   H     0.73534   0.44729   0.11780   0.00000  Uiso   1.00
O314   O     0.76334   0.48922   0.99767   0.00000  Uiso   1.00
O315   O     0.07715   0.04584   0.48362   0.00000  Uiso   1.00
O316   O     0.60207   0.40476   0.05119   0.00000  Uiso   1.00
N317   N     0.73335   0.40410   0.88072   0.00000  Uiso   1.00
N318   N     0.95699   0.08813   0.51442   0.00000  Uiso   1.00
N319   N     0.61845   0.34389   0.20625   0.00000  Uiso   1.00
N320   N     0.82250   0.47326   0.83477   0.00000  Uiso   1.00
N321   N     0.04614   0.15730   0.46847   0.00000  Uiso   1.00
N322   N     0.70760   0.41305   0.16030   0.00000  Uiso   1.00
C323   C     0.73828   0.72735   0.03785   0.00000  Uiso   1.00
C324   C     0.72432   0.67422   0.12111   0.00000  Uiso   1.00
C325   C     0.76223   0.66807   0.21671   0.00000  Uiso   1.00
C326   C     0.74116   0.61612   0.28201   0.00000  Uiso   1.00
C327   C     0.72812   0.54036   0.41578   0.00000  Uiso   1.00
C328   C     0.66268   0.76130   0.02017   0.00000  Uiso   1.00
C329   C     0.64877   0.82837   0.03089   0.00000  Uiso   1.00
C330   C     0.57581   0.84973   0.01121   0.00000  Uiso   1.00
C331   C     0.46709   0.90917   0.98819   0.00000  Uiso   1.00
C332   C     0.75598   0.69081   0.93525   0.00000  Uiso   1.00
C333   C     0.82052   0.69862   0.87455   0.00000  Uiso   1.00
C334   C     0.82611   0.66064   0.78336   0.00000  Uiso   1.00
C335   C     0.86226   0.61062   0.62849   0.00000  Uiso   1.00
C336   C     0.63343   0.64602   0.98382   0.00000  Uiso   1.00
C337   C     0.66737   0.63004   0.09176   0.00000  Uiso   1.00
C338   C     0.64624   0.57808   0.15693   0.00000  Uiso   1.00
C339   C     0.68412   0.57186   0.25261   0.00000  Uiso   1.00
C340   C     0.60573   0.71712   0.99083   0.00000  Uiso   1.00
C341   C     0.53278   0.73839   0.97111   0.00000  Uiso   1.00
C342   C     0.51876   0.80547   0.98181   0.00000  Uiso   1.00
C343   C     0.69904   0.64663   0.90590   0.00000  Uiso   1.00
C344   C     0.70452   0.60863   0.81478   0.00000  Uiso   1.00
C345   C     0.76906   0.61638   0.75396   0.00000  Uiso   1.00
H346   H     0.78261   0.76175   0.06070   0.00000  Uiso   1.00
H347   H     0.80629   0.70228   0.23940   0.00000  Uiso   1.00
H348   H     0.69285   0.86255   0.05360   0.00000  Uiso   1.00
H349   H     0.86457   0.73281   0.89729   0.00000  Uiso   1.00
H350   H     0.80742   0.61687   0.42459   0.00000  Uiso   1.00
H351   H     0.56823   0.95482   0.03279   0.00000  Uiso   1.00
H352   H     0.93034   0.68125   0.70318   0.00000  Uiso   1.00
H353   H     0.58910   0.61162   0.96097   0.00000  Uiso   1.00
H354   H     0.60217   0.54391   0.13420   0.00000  Uiso   1.00
H355   H     0.48872   0.70418   0.94840   0.00000  Uiso   1.00
H356   H     0.66045   0.57445   0.79209   0.00000  Uiso   1.00
H357   H     0.64174   0.48833   0.33921   0.00000  Uiso   1.00
H358   H     0.40255   0.82629   0.94740   0.00000  Uiso   1.00
H359   H     0.76466   0.55271   0.61780   0.00000  Uiso   1.00
O360   O     0.73666   0.51078   0.49767   0.00000  Uiso   1.00
O361   O     0.42285   0.95416   0.98362   0.00000  Uiso   1.00
O362   O     0.89793   0.59524   0.55119   0.00000  Uiso   1.00
N363   N     0.76665   0.59590   0.38072   0.00000  Uiso   1.00
N364   N     0.54301   0.91187   0.01442   0.00000  Uiso   1.00
N365   N     0.88155   0.65611   0.70625   0.00000  Uiso   1.00
N366   N     0.67750   0.52674   0.33477   0.00000  Uiso   1.00
N367   N     0.45386   0.84270   0.96847   0.00000  Uiso   1.00
N368   N     0.79240   0.58695   0.66030   0.00000  Uiso   1.00
