data_job_02837
_audit_creation_date              2018-12-19
_audit_creation_method            'Materials Studio'
_symmetry_space_group_name_H-M    'P1'
_symmetry_Int_Tables_number       1
_symmetry_cell_setting            triclinic
loop_
_symmetry_equiv_pos_as_xyz
  x,y,z
_cell_length_a                    9.7300
_cell_length_b                    26.5242
_cell_length_c                    12.4106
_cell_angle_alpha                 90.0000
_cell_angle_beta                  90.0000
_cell_angle_gamma                 90.0000
loop_
_atom_site_label
_atom_site_type_symbol
_atom_site_fract_x
_atom_site_fract_y
_atom_site_fract_z
_atom_site_U_iso_or_equiv
_atom_site_adp_type
_atom_site_occupancy
C1     C     0.98987   0.78945   0.97292   0.00000  Uiso   1.00
C2     C     0.88665   0.83145   0.95076   0.00000  Uiso   1.00
C3     C     0.74487   0.82737   0.95928   0.00000  Uiso   1.00
C4     C     0.66828   0.87011   0.93551   0.00000  Uiso   1.00
C5     C     0.49840   0.92845   0.90578   0.00000  Uiso   1.00
C6     C     0.07482   0.78396   0.87033   0.00000  Uiso   1.00
C7     C     0.09127   0.73994   0.81125   0.00000  Uiso   1.00
C8     C     0.17309   0.74270   0.71978   0.00000  Uiso   1.00
C9     C     0.29544   0.72729   0.56524   0.00000  Uiso   1.00
C10    C     0.08771   0.80993   0.05835   0.00000  Uiso   1.00
C11    C     0.11502   0.78775   0.15734   0.00000  Uiso   1.00
C12    C     0.20772   0.81238   0.22417   0.00000  Uiso   1.00
C13    C     0.35007   0.83730   0.36155   0.00000  Uiso   1.00
C14    C     0.10596   0.87261   0.91555   0.00000  Uiso   1.00
C15    C     0.94971   0.87662   0.91959   0.00000  Uiso   1.00
C16    C     0.87331   0.91938   0.89581   0.00000  Uiso   1.00
C17    C     0.73144   0.91536   0.90430   0.00000  Uiso   1.00
C18    C     0.13787   0.82912   0.83917   0.00000  Uiso   1.00
C19    C     0.21970   0.83195   0.74778   0.00000  Uiso   1.00
C20    C     0.23626   0.78795   0.68856   0.00000  Uiso   1.00
C21    C     0.15076   0.85510   0.02719   0.00000  Uiso   1.00
C22    C     0.24345   0.87976   0.09387   0.00000  Uiso   1.00
C23    C     0.27089   0.85763   0.19295   0.00000  Uiso   1.00
H24    H     0.94079   0.75429   0.99718   0.00000  Uiso   1.00
H25    H     0.69612   0.79241   0.98339   0.00000  Uiso   1.00
H26    H     0.04247   0.70500   0.83539   0.00000  Uiso   1.00
H27    H     0.06621   0.75280   0.18143   0.00000  Uiso   1.00
H28    H     0.45265   0.85459   0.95432   0.00000  Uiso   1.00
H29    H     0.18300   0.67027   0.64228   0.00000  Uiso   1.00
H30    H     0.23306   0.77107   0.37197   0.00000  Uiso   1.00
H31    H     0.15505   0.90777   0.89129   0.00000  Uiso   1.00
H32    H     0.92213   0.95432   0.87169   0.00000  Uiso   1.00
H33    H     0.26848   0.86691   0.72369   0.00000  Uiso   1.00
H34    H     0.29222   0.91471   0.06973   0.00000  Uiso   1.00
H35    H     0.63609   0.98600   0.86366   0.00000  Uiso   1.00
H36    H     0.36645   0.80168   0.55161   0.00000  Uiso   1.00
H37    H     0.41650   0.90249   0.28131   0.00000  Uiso   1.00
O38    O     0.38728   0.94814   0.89797   0.00000  Uiso   1.00
O39    O     0.34549   0.70632   0.48860   0.00000  Uiso   1.00
O40    O     0.41115   0.83857   0.44594   0.00000  Uiso   1.00
N41    N     0.52779   0.87913   0.93570   0.00000  Uiso   1.00
N42    N     0.21061   0.70680   0.64394   0.00000  Uiso   1.00
N43    N     0.25743   0.80104   0.32613   0.00000  Uiso   1.00
N44    N     0.62650   0.94985   0.88691   0.00000  Uiso   1.00
N45    N     0.30931   0.77752   0.59516   0.00000  Uiso   1.00
N46    N     0.35614   0.87176   0.27735   0.00000  Uiso   1.00
C47    C     0.01013   0.21055   0.97292   0.00000  Uiso   1.00
C48    C     0.11335   0.16855   0.95076   0.00000  Uiso   1.00
C49    C     0.25513   0.17263   0.95928   0.00000  Uiso   1.00
C50    C     0.33172   0.12989   0.93551   0.00000  Uiso   1.00
C51    C     0.50160   0.07155   0.90578   0.00000  Uiso   1.00
C52    C     0.92518   0.21604   0.87033   0.00000  Uiso   1.00
C53    C     0.90873   0.26006   0.81125   0.00000  Uiso   1.00
C54    C     0.82691   0.25730   0.71978   0.00000  Uiso   1.00
C55    C     0.70456   0.27271   0.56524   0.00000  Uiso   1.00
C56    C     0.91229   0.19007   0.05835   0.00000  Uiso   1.00
C57    C     0.88498   0.21225   0.15734   0.00000  Uiso   1.00
C58    C     0.79228   0.18762   0.22417   0.00000  Uiso   1.00
C59    C     0.64993   0.16270   0.36155   0.00000  Uiso   1.00
C60    C     0.89404   0.12739   0.91555   0.00000  Uiso   1.00
C61    C     0.05029   0.12338   0.91959   0.00000  Uiso   1.00
C62    C     0.12669   0.08062   0.89581   0.00000  Uiso   1.00
C63    C     0.26856   0.08464   0.90430   0.00000  Uiso   1.00
C64    C     0.86213   0.17088   0.83917   0.00000  Uiso   1.00
C65    C     0.78030   0.16805   0.74778   0.00000  Uiso   1.00
C66    C     0.76374   0.21205   0.68856   0.00000  Uiso   1.00
C67    C     0.84924   0.14490   0.02719   0.00000  Uiso   1.00
C68    C     0.75655   0.12024   0.09387   0.00000  Uiso   1.00
C69    C     0.72911   0.14237   0.19295   0.00000  Uiso   1.00
H70    H     0.05921   0.24571   0.99718   0.00000  Uiso   1.00
H71    H     0.30388   0.20759   0.98339   0.00000  Uiso   1.00
H72    H     0.95753   0.29500   0.83539   0.00000  Uiso   1.00
H73    H     0.93379   0.24720   0.18143   0.00000  Uiso   1.00
H74    H     0.54735   0.14541   0.95432   0.00000  Uiso   1.00
H75    H     0.81700   0.32973   0.64228   0.00000  Uiso   1.00
H76    H     0.76694   0.22893   0.37197   0.00000  Uiso   1.00
H77    H     0.84495   0.09223   0.89129   0.00000  Uiso   1.00
H78    H     0.07787   0.04568   0.87169   0.00000  Uiso   1.00
H79    H     0.73152   0.13309   0.72369   0.00000  Uiso   1.00
H80    H     0.70778   0.08529   0.06973   0.00000  Uiso   1.00
H81    H     0.36391   0.01400   0.86366   0.00000  Uiso   1.00
H82    H     0.63355   0.19832   0.55161   0.00000  Uiso   1.00
H83    H     0.58350   0.09751   0.28131   0.00000  Uiso   1.00
O84    O     0.61272   0.05186   0.89797   0.00000  Uiso   1.00
O85    O     0.65451   0.29368   0.48860   0.00000  Uiso   1.00
O86    O     0.58885   0.16143   0.44594   0.00000  Uiso   1.00
N87    N     0.47221   0.12087   0.93570   0.00000  Uiso   1.00
N88    N     0.78939   0.29320   0.64394   0.00000  Uiso   1.00
N89    N     0.74257   0.19896   0.32613   0.00000  Uiso   1.00
N90    N     0.37350   0.05015   0.88691   0.00000  Uiso   1.00
N91    N     0.69069   0.22248   0.59516   0.00000  Uiso   1.00
N92    N     0.64386   0.12824   0.27735   0.00000  Uiso   1.00
C93    C     0.51013   0.28945   0.02708   0.00000  Uiso   1.00
C94    C     0.61335   0.33145   0.04924   0.00000  Uiso   1.00
C95    C     0.75513   0.32737   0.04072   0.00000  Uiso   1.00
C96    C     0.83172   0.37011   0.06449   0.00000  Uiso   1.00
C97    C     0.00160   0.42845   0.09422   0.00000  Uiso   1.00
C98    C     0.42518   0.28396   0.12967   0.00000  Uiso   1.00
C99    C     0.40873   0.23994   0.18875   0.00000  Uiso   1.00
C100   C     0.32691   0.24270   0.28022   0.00000  Uiso   1.00
C101   C     0.20456   0.22729   0.43476   0.00000  Uiso   1.00
C102   C     0.41229   0.30993   0.94165   0.00000  Uiso   1.00
C103   C     0.38498   0.28775   0.84266   0.00000  Uiso   1.00
C104   C     0.29228   0.31238   0.77583   0.00000  Uiso   1.00
C105   C     0.14993   0.33730   0.63845   0.00000  Uiso   1.00
C106   C     0.39404   0.37261   0.08445   0.00000  Uiso   1.00
C107   C     0.55029   0.37662   0.08041   0.00000  Uiso   1.00
C108   C     0.62669   0.41938   0.10419   0.00000  Uiso   1.00
C109   C     0.76856   0.41536   0.09570   0.00000  Uiso   1.00
C110   C     0.36213   0.32912   0.16083   0.00000  Uiso   1.00
C111   C     0.28030   0.33195   0.25222   0.00000  Uiso   1.00
C112   C     0.26374   0.28795   0.31144   0.00000  Uiso   1.00
C113   C     0.34924   0.35510   0.97281   0.00000  Uiso   1.00
C114   C     0.25655   0.37976   0.90613   0.00000  Uiso   1.00
C115   C     0.22911   0.35763   0.80705   0.00000  Uiso   1.00
H116   H     0.55921   0.25429   0.00282   0.00000  Uiso   1.00
H117   H     0.80388   0.29241   0.01661   0.00000  Uiso   1.00
H118   H     0.45753   0.20500   0.16461   0.00000  Uiso   1.00
H119   H     0.43379   0.25280   0.81857   0.00000  Uiso   1.00
H120   H     0.04735   0.35459   0.04568   0.00000  Uiso   1.00
H121   H     0.31700   0.17027   0.35772   0.00000  Uiso   1.00
H122   H     0.26694   0.27107   0.62803   0.00000  Uiso   1.00
H123   H     0.34495   0.40777   0.10871   0.00000  Uiso   1.00
H124   H     0.57787   0.45432   0.12831   0.00000  Uiso   1.00
H125   H     0.23152   0.36691   0.27631   0.00000  Uiso   1.00
H126   H     0.20778   0.41471   0.93027   0.00000  Uiso   1.00
H127   H     0.86391   0.48600   0.13634   0.00000  Uiso   1.00
H128   H     0.13355   0.30168   0.44839   0.00000  Uiso   1.00
H129   H     0.08350   0.40249   0.71869   0.00000  Uiso   1.00
O130   O     0.11272   0.44814   0.10203   0.00000  Uiso   1.00
O131   O     0.15451   0.20632   0.51140   0.00000  Uiso   1.00
O132   O     0.08885   0.33857   0.55406   0.00000  Uiso   1.00
N133   N     0.97221   0.37913   0.06430   0.00000  Uiso   1.00
N134   N     0.28939   0.20680   0.35606   0.00000  Uiso   1.00
N135   N     0.24257   0.30104   0.67387   0.00000  Uiso   1.00
N136   N     0.87350   0.44985   0.11309   0.00000  Uiso   1.00
N137   N     0.19069   0.27752   0.40484   0.00000  Uiso   1.00
N138   N     0.14386   0.37176   0.72265   0.00000  Uiso   1.00
C139   C     0.48987   0.71055   0.02708   0.00000  Uiso   1.00
C140   C     0.38665   0.66855   0.04924   0.00000  Uiso   1.00
C141   C     0.24487   0.67263   0.04072   0.00000  Uiso   1.00
C142   C     0.16828   0.62989   0.06449   0.00000  Uiso   1.00
C143   C     0.99840   0.57155   0.09422   0.00000  Uiso   1.00
C144   C     0.57482   0.71604   0.12967   0.00000  Uiso   1.00
C145   C     0.59127   0.76006   0.18875   0.00000  Uiso   1.00
C146   C     0.67309   0.75730   0.28022   0.00000  Uiso   1.00
C147   C     0.79544   0.77271   0.43476   0.00000  Uiso   1.00
C148   C     0.58771   0.69007   0.94165   0.00000  Uiso   1.00
C149   C     0.61502   0.71225   0.84266   0.00000  Uiso   1.00
C150   C     0.70772   0.68762   0.77583   0.00000  Uiso   1.00
C151   C     0.85007   0.66270   0.63845   0.00000  Uiso   1.00
C152   C     0.60596   0.62739   0.08445   0.00000  Uiso   1.00
C153   C     0.44971   0.62338   0.08041   0.00000  Uiso   1.00
C154   C     0.37331   0.58062   0.10419   0.00000  Uiso   1.00
C155   C     0.23144   0.58464   0.09570   0.00000  Uiso   1.00
C156   C     0.63787   0.67088   0.16083   0.00000  Uiso   1.00
C157   C     0.71970   0.66805   0.25222   0.00000  Uiso   1.00
C158   C     0.73626   0.71205   0.31144   0.00000  Uiso   1.00
C159   C     0.65076   0.64490   0.97281   0.00000  Uiso   1.00
C160   C     0.74345   0.62024   0.90613   0.00000  Uiso   1.00
C161   C     0.77089   0.64237   0.80705   0.00000  Uiso   1.00
H162   H     0.44079   0.74571   0.00282   0.00000  Uiso   1.00
H163   H     0.19612   0.70759   0.01661   0.00000  Uiso   1.00
H164   H     0.54247   0.79500   0.16461   0.00000  Uiso   1.00
H165   H     0.56621   0.74720   0.81857   0.00000  Uiso   1.00
H166   H     0.95265   0.64541   0.04568   0.00000  Uiso   1.00
H167   H     0.68300   0.82973   0.35772   0.00000  Uiso   1.00
H168   H     0.73306   0.72893   0.62803   0.00000  Uiso   1.00
H169   H     0.65505   0.59223   0.10871   0.00000  Uiso   1.00
H170   H     0.42213   0.54568   0.12831   0.00000  Uiso   1.00
H171   H     0.76848   0.63309   0.27631   0.00000  Uiso   1.00
H172   H     0.79222   0.58529   0.93027   0.00000  Uiso   1.00
H173   H     0.13609   0.51400   0.13634   0.00000  Uiso   1.00
H174   H     0.86645   0.69832   0.44839   0.00000  Uiso   1.00
H175   H     0.91650   0.59751   0.71869   0.00000  Uiso   1.00
O176   O     0.88728   0.55186   0.10203   0.00000  Uiso   1.00
O177   O     0.84549   0.79368   0.51140   0.00000  Uiso   1.00
O178   O     0.91115   0.66143   0.55406   0.00000  Uiso   1.00
N179   N     0.02779   0.62087   0.06430   0.00000  Uiso   1.00
N180   N     0.71061   0.79320   0.35606   0.00000  Uiso   1.00
N181   N     0.75743   0.69896   0.67387   0.00000  Uiso   1.00
N182   N     0.12650   0.55015   0.11309   0.00000  Uiso   1.00
N183   N     0.80931   0.72248   0.40484   0.00000  Uiso   1.00
N184   N     0.85614   0.62824   0.72265   0.00000  Uiso   1.00
