data_job_05839
_audit_creation_date              2018-12-19
_audit_creation_method            'Materials Studio'
_symmetry_space_group_name_H-M    'P1'
_symmetry_Int_Tables_number       1
_symmetry_cell_setting            triclinic
loop_
_symmetry_equiv_pos_as_xyz
  x,y,z
_cell_length_a                    18.0710
_cell_length_b                    9.7702
_cell_length_c                    19.4941
_cell_angle_alpha                 90.0000
_cell_angle_beta                  64.0324
_cell_angle_gamma                 90.0000
loop_
_atom_site_label
_atom_site_type_symbol
_atom_site_fract_x
_atom_site_fract_y
_atom_site_fract_z
_atom_site_U_iso_or_equiv
_atom_site_adp_type
_atom_site_occupancy
C1     C     0.18819   0.71208   0.95180   0.00000  Uiso   1.00
C2     C     0.16917   0.75679   0.88627   0.00000  Uiso   1.00
C3     C     0.10808   0.84825   0.89170   0.00000  Uiso   1.00
C4     C     0.10052   0.87578   0.82518   0.00000  Uiso   1.00
C5     C     0.06310   0.95455   0.73399   0.00000  Uiso   1.00
C6     C     0.18180   0.55636   0.95474   0.00000  Uiso   1.00
C7     C     0.13135   0.47930   0.01775   0.00000  Uiso   1.00
C8     C     0.13443   0.33810   0.00887   0.00000  Uiso   1.00
C9     C     0.11667   0.10569   0.02400   0.00000  Uiso   1.00
C10    C     0.27881   0.74512   0.92682   0.00000  Uiso   1.00
C11    C     0.30993   0.82674   0.96637   0.00000  Uiso   1.00
C12    C     0.39469   0.84444   0.93399   0.00000  Uiso   1.00
C13    C     0.52756   0.90511   0.90578   0.00000  Uiso   1.00
C14    C     0.28338   0.59833   0.82401   0.00000  Uiso   1.00
C15    C     0.22088   0.69500   0.81685   0.00000  Uiso   1.00
C16    C     0.21341   0.72240   0.75031   0.00000  Uiso   1.00
C17    C     0.15232   0.81389   0.75564   0.00000  Uiso   1.00
C18    C     0.23351   0.49457   0.88533   0.00000  Uiso   1.00
C19    C     0.23667   0.35345   0.87636   0.00000  Uiso   1.00
C20    C     0.18623   0.27620   0.93933   0.00000  Uiso   1.00
C21    C     0.33053   0.68334   0.85741   0.00000  Uiso   1.00
C22    C     0.41526   0.70090   0.82497   0.00000  Uiso   1.00
C23    C     0.44650   0.78254   0.86446   0.00000  Uiso   1.00
H24    H     0.14793   0.76017   0.00584   0.00000  Uiso   1.00
H25    H     0.06807   0.89603   0.94543   0.00000  Uiso   1.00
H26    H     0.09134   0.52714   0.07145   0.00000  Uiso   1.00
H27    H     0.26990   0.87453   0.02008   0.00000  Uiso   1.00
H28    H     0.00233   0.01938   0.84784   0.00000  Uiso   1.00
H29    H     0.05141   0.24155   0.11359   0.00000  Uiso   1.00
H30    H     0.42793   0.97409   0.00525   0.00000  Uiso   1.00
H31    H     0.32364   0.55022   0.76996   0.00000  Uiso   1.00
H32    H     0.25343   0.67457   0.69660   0.00000  Uiso   1.00
H33    H     0.27670   0.30568   0.82263   0.00000  Uiso   1.00
H34    H     0.45525   0.65307   0.77126   0.00000  Uiso   1.00
H35    H     0.15276   0.83963   0.64589   0.00000  Uiso   1.00
H36    H     0.20185   0.06179   0.91164   0.00000  Uiso   1.00
H37    H     0.57837   0.79434   0.80330   0.00000  Uiso   1.00
O38    O     0.02817   0.01506   0.70287   0.00000  Uiso   1.00
O39    O     0.09258   0.99457   0.05152   0.00000  Uiso   1.00
O40    O     0.58656   0.95566   0.90939   0.00000  Uiso   1.00
N41    N     0.04738   0.96003   0.81038   0.00000  Uiso   1.00
N42    N     0.09326   0.23280   0.05883   0.00000  Uiso   1.00
N43    N     0.44528   0.91764   0.95756   0.00000  Uiso   1.00
N44    N     0.12833   0.86331   0.70171   0.00000  Uiso   1.00
N45    N     0.17421   0.13608   0.95016   0.00000  Uiso   1.00
N46    N     0.52623   0.82092   0.84889   0.00000  Uiso   1.00
C47    C     0.81181   0.21208   0.54820   0.00000  Uiso   1.00
C48    C     0.83083   0.25679   0.61373   0.00000  Uiso   1.00
C49    C     0.89192   0.34825   0.60830   0.00000  Uiso   1.00
C50    C     0.89948   0.37578   0.67482   0.00000  Uiso   1.00
C51    C     0.93690   0.45455   0.76601   0.00000  Uiso   1.00
C52    C     0.81820   0.05636   0.54526   0.00000  Uiso   1.00
C53    C     0.86865   0.97930   0.48225   0.00000  Uiso   1.00
C54    C     0.86557   0.83810   0.49113   0.00000  Uiso   1.00
C55    C     0.88333   0.60569   0.47600   0.00000  Uiso   1.00
C56    C     0.72119   0.24512   0.57318   0.00000  Uiso   1.00
C57    C     0.69007   0.32674   0.53363   0.00000  Uiso   1.00
C58    C     0.60531   0.34444   0.56601   0.00000  Uiso   1.00
C59    C     0.47244   0.40511   0.59422   0.00000  Uiso   1.00
C60    C     0.71662   0.09833   0.67599   0.00000  Uiso   1.00
C61    C     0.77912   0.19500   0.68315   0.00000  Uiso   1.00
C62    C     0.78659   0.22240   0.74969   0.00000  Uiso   1.00
C63    C     0.84768   0.31389   0.74436   0.00000  Uiso   1.00
C64    C     0.76649   0.99457   0.61467   0.00000  Uiso   1.00
C65    C     0.76333   0.85345   0.62364   0.00000  Uiso   1.00
C66    C     0.81377   0.77620   0.56067   0.00000  Uiso   1.00
C67    C     0.66947   0.18334   0.64259   0.00000  Uiso   1.00
C68    C     0.58474   0.20090   0.67503   0.00000  Uiso   1.00
C69    C     0.55350   0.28254   0.63554   0.00000  Uiso   1.00
H70    H     0.85207   0.26017   0.49416   0.00000  Uiso   1.00
H71    H     0.93193   0.39603   0.55457   0.00000  Uiso   1.00
H72    H     0.90866   0.02714   0.42855   0.00000  Uiso   1.00
H73    H     0.73010   0.37453   0.47992   0.00000  Uiso   1.00
H74    H     0.99767   0.51938   0.65216   0.00000  Uiso   1.00
H75    H     0.94859   0.74155   0.38641   0.00000  Uiso   1.00
H76    H     0.57207   0.47409   0.49475   0.00000  Uiso   1.00
H77    H     0.67636   0.05022   0.73004   0.00000  Uiso   1.00
H78    H     0.74657   0.17457   0.80340   0.00000  Uiso   1.00
H79    H     0.72330   0.80568   0.67737   0.00000  Uiso   1.00
H80    H     0.54475   0.15307   0.72874   0.00000  Uiso   1.00
H81    H     0.84724   0.33963   0.85411   0.00000  Uiso   1.00
H82    H     0.79815   0.56179   0.58836   0.00000  Uiso   1.00
H83    H     0.42163   0.29434   0.69670   0.00000  Uiso   1.00
O84    O     0.97183   0.51506   0.79713   0.00000  Uiso   1.00
O85    O     0.90742   0.49457   0.44848   0.00000  Uiso   1.00
O86    O     0.41344   0.45566   0.59061   0.00000  Uiso   1.00
N87    N     0.95262   0.46003   0.68962   0.00000  Uiso   1.00
N88    N     0.90674   0.73280   0.44117   0.00000  Uiso   1.00
N89    N     0.55472   0.41764   0.54244   0.00000  Uiso   1.00
N90    N     0.87167   0.36331   0.79829   0.00000  Uiso   1.00
N91    N     0.82579   0.63608   0.54984   0.00000  Uiso   1.00
N92    N     0.47377   0.32092   0.65111   0.00000  Uiso   1.00
C93    C     0.81181   0.28792   0.04820   0.00000  Uiso   1.00
C94    C     0.83083   0.24321   0.11373   0.00000  Uiso   1.00
C95    C     0.89192   0.15175   0.10830   0.00000  Uiso   1.00
C96    C     0.89948   0.12422   0.17482   0.00000  Uiso   1.00
C97    C     0.93690   0.04545   0.26601   0.00000  Uiso   1.00
C98    C     0.81820   0.44364   0.04526   0.00000  Uiso   1.00
C99    C     0.86865   0.52070   0.98225   0.00000  Uiso   1.00
C100   C     0.86557   0.66190   0.99113   0.00000  Uiso   1.00
C101   C     0.88333   0.89431   0.97600   0.00000  Uiso   1.00
C102   C     0.72119   0.25488   0.07318   0.00000  Uiso   1.00
C103   C     0.69007   0.17326   0.03363   0.00000  Uiso   1.00
C104   C     0.60531   0.15556   0.06601   0.00000  Uiso   1.00
C105   C     0.47244   0.09489   0.09422   0.00000  Uiso   1.00
C106   C     0.71662   0.40167   0.17599   0.00000  Uiso   1.00
C107   C     0.77912   0.30500   0.18315   0.00000  Uiso   1.00
C108   C     0.78659   0.27760   0.24969   0.00000  Uiso   1.00
C109   C     0.84768   0.18611   0.24436   0.00000  Uiso   1.00
C110   C     0.76649   0.50543   0.11467   0.00000  Uiso   1.00
C111   C     0.76333   0.64655   0.12364   0.00000  Uiso   1.00
C112   C     0.81377   0.72380   0.06067   0.00000  Uiso   1.00
C113   C     0.66947   0.31666   0.14259   0.00000  Uiso   1.00
C114   C     0.58474   0.29910   0.17503   0.00000  Uiso   1.00
C115   C     0.55350   0.21746   0.13554   0.00000  Uiso   1.00
H116   H     0.85207   0.23983   0.99416   0.00000  Uiso   1.00
H117   H     0.93193   0.10397   0.05457   0.00000  Uiso   1.00
H118   H     0.90866   0.47286   0.92855   0.00000  Uiso   1.00
H119   H     0.73010   0.12547   0.97992   0.00000  Uiso   1.00
H120   H     0.99767   0.98062   0.15216   0.00000  Uiso   1.00
H121   H     0.94859   0.75845   0.88641   0.00000  Uiso   1.00
H122   H     0.57207   0.02591   0.99475   0.00000  Uiso   1.00
H123   H     0.67636   0.44978   0.23004   0.00000  Uiso   1.00
H124   H     0.74657   0.32543   0.30340   0.00000  Uiso   1.00
H125   H     0.72330   0.69432   0.17737   0.00000  Uiso   1.00
H126   H     0.54475   0.34693   0.22874   0.00000  Uiso   1.00
H127   H     0.84724   0.16037   0.35411   0.00000  Uiso   1.00
H128   H     0.79815   0.93821   0.08836   0.00000  Uiso   1.00
H129   H     0.42163   0.20566   0.19670   0.00000  Uiso   1.00
O130   O     0.97183   0.98494   0.29713   0.00000  Uiso   1.00
O131   O     0.90742   0.00543   0.94848   0.00000  Uiso   1.00
O132   O     0.41344   0.04434   0.09061   0.00000  Uiso   1.00
N133   N     0.95262   0.03997   0.18962   0.00000  Uiso   1.00
N134   N     0.90674   0.76720   0.94117   0.00000  Uiso   1.00
N135   N     0.55472   0.08236   0.04244   0.00000  Uiso   1.00
N136   N     0.87167   0.13669   0.29829   0.00000  Uiso   1.00
N137   N     0.82579   0.86392   0.04984   0.00000  Uiso   1.00
N138   N     0.47377   0.17908   0.15111   0.00000  Uiso   1.00
C139   C     0.18819   0.78792   0.45180   0.00000  Uiso   1.00
C140   C     0.16917   0.74321   0.38627   0.00000  Uiso   1.00
C141   C     0.10808   0.65175   0.39170   0.00000  Uiso   1.00
C142   C     0.10052   0.62422   0.32518   0.00000  Uiso   1.00
C143   C     0.06310   0.54545   0.23399   0.00000  Uiso   1.00
C144   C     0.18180   0.94364   0.45474   0.00000  Uiso   1.00
C145   C     0.13135   0.02070   0.51775   0.00000  Uiso   1.00
C146   C     0.13443   0.16190   0.50887   0.00000  Uiso   1.00
C147   C     0.11667   0.39431   0.52400   0.00000  Uiso   1.00
C148   C     0.27881   0.75488   0.42682   0.00000  Uiso   1.00
C149   C     0.30993   0.67326   0.46637   0.00000  Uiso   1.00
C150   C     0.39469   0.65556   0.43399   0.00000  Uiso   1.00
C151   C     0.52756   0.59489   0.40578   0.00000  Uiso   1.00
C152   C     0.28338   0.90167   0.32401   0.00000  Uiso   1.00
C153   C     0.22088   0.80500   0.31685   0.00000  Uiso   1.00
C154   C     0.21341   0.77760   0.25031   0.00000  Uiso   1.00
C155   C     0.15232   0.68611   0.25564   0.00000  Uiso   1.00
C156   C     0.23351   0.00543   0.38533   0.00000  Uiso   1.00
C157   C     0.23667   0.14655   0.37636   0.00000  Uiso   1.00
C158   C     0.18623   0.22380   0.43933   0.00000  Uiso   1.00
C159   C     0.33053   0.81666   0.35741   0.00000  Uiso   1.00
C160   C     0.41526   0.79910   0.32497   0.00000  Uiso   1.00
C161   C     0.44650   0.71746   0.36446   0.00000  Uiso   1.00
H162   H     0.14793   0.73983   0.50584   0.00000  Uiso   1.00
H163   H     0.06807   0.60397   0.44543   0.00000  Uiso   1.00
H164   H     0.09134   0.97286   0.57145   0.00000  Uiso   1.00
H165   H     0.26990   0.62547   0.52008   0.00000  Uiso   1.00
H166   H     0.00233   0.48062   0.34784   0.00000  Uiso   1.00
H167   H     0.05141   0.25845   0.61359   0.00000  Uiso   1.00
H168   H     0.42793   0.52591   0.50525   0.00000  Uiso   1.00
H169   H     0.32364   0.94978   0.26996   0.00000  Uiso   1.00
H170   H     0.25343   0.82543   0.19660   0.00000  Uiso   1.00
H171   H     0.27670   0.19432   0.32263   0.00000  Uiso   1.00
H172   H     0.45525   0.84693   0.27126   0.00000  Uiso   1.00
H173   H     0.15276   0.66037   0.14589   0.00000  Uiso   1.00
H174   H     0.20185   0.43821   0.41164   0.00000  Uiso   1.00
H175   H     0.57837   0.70566   0.30330   0.00000  Uiso   1.00
O176   O     0.02817   0.48494   0.20287   0.00000  Uiso   1.00
O177   O     0.09258   0.50543   0.55152   0.00000  Uiso   1.00
O178   O     0.58656   0.54434   0.40939   0.00000  Uiso   1.00
N179   N     0.04738   0.53997   0.31038   0.00000  Uiso   1.00
N180   N     0.09326   0.26720   0.55883   0.00000  Uiso   1.00
N181   N     0.44528   0.58236   0.45756   0.00000  Uiso   1.00
N182   N     0.12833   0.63669   0.20171   0.00000  Uiso   1.00
N183   N     0.17421   0.36392   0.45016   0.00000  Uiso   1.00
N184   N     0.52623   0.67908   0.34889   0.00000  Uiso   1.00
