data_job_06661
_audit_creation_date              2018-12-19
_audit_creation_method            'Materials Studio'
_symmetry_space_group_name_H-M    'P1'
_symmetry_Int_Tables_number       1
_symmetry_cell_setting            triclinic
loop_
_symmetry_equiv_pos_as_xyz
  x,y,z
_cell_length_a                    19.6731
_cell_length_b                    20.8670
_cell_length_c                    23.4114
_cell_angle_alpha                 67.3722
_cell_angle_beta                  94.6820
_cell_angle_gamma                 64.6968
loop_
_atom_site_label
_atom_site_type_symbol
_atom_site_fract_x
_atom_site_fract_y
_atom_site_fract_z
_atom_site_U_iso_or_equiv
_atom_site_adp_type
_atom_site_occupancy
C1     C     0.94605   0.87468   0.88386   0.00000  Uiso   1.00
C2     C     0.98180   0.84650   0.95515   0.00000  Uiso   1.00
C3     C     0.98228   0.89512   0.98207   0.00000  Uiso   1.00
C4     C     0.01794   0.85785   0.04827   0.00000  Uiso   1.00
C5     C     0.06832   0.82670   0.15319   0.00000  Uiso   1.00
C6     C     0.01219   0.82707   0.86225   0.00000  Uiso   1.00
C7     C     0.03822   0.85936   0.81106   0.00000  Uiso   1.00
C8     C     0.09945   0.80572   0.79906   0.00000  Uiso   1.00
C9     C     0.19699   0.74441   0.75973   0.00000  Uiso   1.00
C10    C     0.88696   0.84584   0.88195   0.00000  Uiso   1.00
C11    C     0.80770   0.89391   0.84731   0.00000  Uiso   1.00
C12    C     0.76350   0.85607   0.85188   0.00000  Uiso   1.00
C13    C     0.66660   0.82391   0.84313   0.00000  Uiso   1.00
C14    C     0.00851   0.72201   0.95356   0.00000  Uiso   1.00
C15    C     0.01573   0.76358   0.99301   0.00000  Uiso   1.00
C16    C     0.05139   0.72622   0.05919   0.00000  Uiso   1.00
C17    C     0.05192   0.77478   0.08620   0.00000  Uiso   1.00
C18    C     0.04612   0.74415   0.90011   0.00000  Uiso   1.00
C19    C     0.10733   0.69045   0.88818   0.00000  Uiso   1.00
C20    C     0.13344   0.72264   0.83699   0.00000  Uiso   1.00
C21    C     0.92089   0.76292   0.91981   0.00000  Uiso   1.00
C22    C     0.87681   0.72500   0.92443   0.00000  Uiso   1.00
C23    C     0.79750   0.77300   0.88980   0.00000  Uiso   1.00
H24    H     0.91963   0.93924   0.85439   0.00000  Uiso   1.00
H25    H     0.95602   0.95930   0.95275   0.00000  Uiso   1.00
H26    H     0.01194   0.92353   0.78177   0.00000  Uiso   1.00
H27    H     0.78146   0.95807   0.81802   0.00000  Uiso   1.00
H28    H     0.01135   0.94496   0.07850   0.00000  Uiso   1.00
H29    H     0.12925   0.86955   0.71796   0.00000  Uiso   1.00
H30    H     0.64324   0.94239   0.79439   0.00000  Uiso   1.00
H31    H     0.03493   0.65745   0.98304   0.00000  Uiso   1.00
H32    H     0.07764   0.66205   0.08847   0.00000  Uiso   1.00
H33    H     0.13357   0.62628   0.91748   0.00000  Uiso   1.00
H34    H     0.90309   0.66083   0.95373   0.00000  Uiso   1.00
H35    H     0.11007   0.70370   0.18865   0.00000  Uiso   1.00
H36    H     0.22797   0.62829   0.82811   0.00000  Uiso   1.00
H37    H     0.74195   0.70114   0.90454   0.00000  Uiso   1.00
O38    O     0.08675   0.83243   0.20061   0.00000  Uiso   1.00
O39    O     0.24142   0.73350   0.72758   0.00000  Uiso   1.00
O40    O     0.60378   0.82907   0.82786   0.00000  Uiso   1.00
N41    N     0.02871   0.88755   0.08996   0.00000  Uiso   1.00
N42    N     0.13895   0.81705   0.75288   0.00000  Uiso   1.00
N43    N     0.68457   0.88515   0.82432   0.00000  Uiso   1.00
N44    N     0.08183   0.75773   0.14923   0.00000  Uiso   1.00
N45    N     0.19206   0.68723   0.81215   0.00000  Uiso   1.00
N46    N     0.73768   0.75533   0.88359   0.00000  Uiso   1.00
C47    C     0.20043   0.20732   0.81535   0.00000  Uiso   1.00
C48    C     0.20084   0.17214   0.88588   0.00000  Uiso   1.00
C49    C     0.17064   0.12221   0.91320   0.00000  Uiso   1.00
C50    C     0.17670   0.09642   0.97857   0.00000  Uiso   1.00
C51    C     0.17199   0.03828   0.08250   0.00000  Uiso   1.00
C52    C     0.15862   0.29789   0.78962   0.00000  Uiso   1.00
C53    C     0.09293   0.35369   0.73599   0.00000  Uiso   1.00
C54    C     0.06346   0.43376   0.72032   0.00000  Uiso   1.00
C55    C     0.99323   0.57084   0.67476   0.00000  Uiso   1.00
C56    C     0.28599   0.18139   0.81683   0.00000  Uiso   1.00
C57    C     0.32739   0.13926   0.78606   0.00000  Uiso   1.00
C58    C     0.40516   0.12126   0.79329   0.00000  Uiso   1.00
C59    C     0.53269   0.07746   0.78998   0.00000  Uiso   1.00
C60    C     0.26490   0.25030   0.88287   0.00000  Uiso   1.00
C61    C     0.23586   0.19549   0.92255   0.00000  Uiso   1.00
C62    C     0.24198   0.16976   0.98790   0.00000  Uiso   1.00
C63    C     0.21179   0.11981   0.01531   0.00000  Uiso   1.00
C64    C     0.19364   0.32124   0.82629   0.00000  Uiso   1.00
C65    C     0.16427   0.40124   0.81069   0.00000  Uiso   1.00
C66    C     0.09854   0.45714   0.75705   0.00000  Uiso   1.00
C67    C     0.32102   0.20473   0.85350   0.00000  Uiso   1.00
C68    C     0.39873   0.18680   0.86077   0.00000  Uiso   1.00
C69    C     0.44024   0.14464   0.83002   0.00000  Uiso   1.00
H70    H     0.17316   0.18915   0.78680   0.00000  Uiso   1.00
H71    H     0.14354   0.10417   0.88480   0.00000  Uiso   1.00
H72    H     0.06585   0.33561   0.70762   0.00000  Uiso   1.00
H73    H     0.30027   0.12120   0.75769   0.00000  Uiso   1.00
H74    H     0.12611   0.02027   0.00963   0.00000  Uiso   1.00
H75    H     0.96232   0.50827   0.63600   0.00000  Uiso   1.00
H76    H     0.45665   0.05616   0.74158   0.00000  Uiso   1.00
H77    H     0.29217   0.26848   0.91142   0.00000  Uiso   1.00
H78    H     0.26908   0.18784   0.01627   0.00000  Uiso   1.00
H79    H     0.19139   0.41928   0.83908   0.00000  Uiso   1.00
H80    H     0.42581   0.20488   0.88915   0.00000  Uiso   1.00
H81    H     0.22800   0.08818   0.11633   0.00000  Uiso   1.00
H82    H     0.06421   0.57619   0.74270   0.00000  Uiso   1.00
H83    H     0.55854   0.12407   0.84828   0.00000  Uiso   1.00
O84    O     0.15970   0.99977   0.12969   0.00000  Uiso   1.00
O85    O     0.94481   0.64001   0.63951   0.00000  Uiso   1.00
O86    O     0.59336   0.04684   0.77803   0.00000  Uiso   1.00
N87    N     0.15328   0.04730   0.02035   0.00000  Uiso   1.00
N88    N     0.00013   0.50356   0.67104   0.00000  Uiso   1.00
N89    N     0.46228   0.08089   0.76974   0.00000  Uiso   1.00
N90    N     0.20811   0.08385   0.07777   0.00000  Uiso   1.00
N91    N     0.05495   0.54010   0.72846   0.00000  Uiso   1.00
N92    N     0.51711   0.11743   0.82715   0.00000  Uiso   1.00
C93    C     0.68474   0.44776   0.86610   0.00000  Uiso   1.00
C94    C     0.68378   0.38874   0.92924   0.00000  Uiso   1.00
C95    C     0.74470   0.34023   0.98678   0.00000  Uiso   1.00
C96    C     0.73233   0.29032   0.03909   0.00000  Uiso   1.00
C97    C     0.74162   0.19885   0.13789   0.00000  Uiso   1.00
C98    C     0.66749   0.42393   0.81506   0.00000  Uiso   1.00
C99    C     0.71471   0.40502   0.77660   0.00000  Uiso   1.00
C100   C     0.68862   0.38475   0.73279   0.00000  Uiso   1.00
C101   C     0.67260   0.34797   0.65430   0.00000  Uiso   1.00
C102   C     0.61365   0.52897   0.84755   0.00000  Uiso   1.00
C103   C     0.61559   0.59840   0.83639   0.00000  Uiso   1.00
C104   C     0.54416   0.66657   0.81992   0.00000  Uiso   1.00
C105   C     0.44454   0.79289   0.79188   0.00000  Uiso   1.00
C106   C     0.55443   0.44539   0.85668   0.00000  Uiso   1.00
C107   C     0.61300   0.38745   0.92412   0.00000  Uiso   1.00
C108   C     0.60053   0.33761   0.97636   0.00000  Uiso   1.00
C109   C     0.66142   0.28903   0.03397   0.00000  Uiso   1.00
C110   C     0.59671   0.42264   0.80994   0.00000  Uiso   1.00
C111   C     0.57054   0.40240   0.76618   0.00000  Uiso   1.00
C112   C     0.61771   0.38346   0.72767   0.00000  Uiso   1.00
C113   C     0.54287   0.52769   0.84244   0.00000  Uiso   1.00
C114   C     0.47142   0.59577   0.82598   0.00000  Uiso   1.00
C115   C     0.47325   0.66528   0.81480   0.00000  Uiso   1.00
H116   H     0.73984   0.44876   0.87008   0.00000  Uiso   1.00
H117   H     0.79947   0.34124   0.99071   0.00000  Uiso   1.00
H118   H     0.76948   0.40603   0.78057   0.00000  Uiso   1.00
H119   H     0.67037   0.59937   0.84036   0.00000  Uiso   1.00
H120   H     0.83438   0.22144   0.12220   0.00000  Uiso   1.00
H121   H     0.77113   0.35809   0.67907   0.00000  Uiso   1.00
H122   H     0.56214   0.76578   0.80514   0.00000  Uiso   1.00
H123   H     0.49932   0.44439   0.85270   0.00000  Uiso   1.00
H124   H     0.54575   0.33663   0.97238   0.00000  Uiso   1.00
H125   H     0.51576   0.40142   0.76223   0.00000  Uiso   1.00
H126   H     0.41666   0.59476   0.82202   0.00000  Uiso   1.00
H127   H     0.62845   0.21769   0.10732   0.00000  Uiso   1.00
H128   H     0.56520   0.35434   0.66419   0.00000  Uiso   1.00
H129   H     0.35622   0.76204   0.79027   0.00000  Uiso   1.00
O130   O     0.76631   0.14874   0.19380   0.00000  Uiso   1.00
O131   O     0.68332   0.32803   0.61243   0.00000  Uiso   1.00
O132   O     0.40914   0.86291   0.77783   0.00000  Uiso   1.00
N133   N     0.77953   0.23536   0.10227   0.00000  Uiso   1.00
N134   N     0.72041   0.36310   0.68799   0.00000  Uiso   1.00
N135   N     0.52502   0.74427   0.80584   0.00000  Uiso   1.00
N136   N     0.66873   0.23335   0.09427   0.00000  Uiso   1.00
N137   N     0.60960   0.36109   0.67998   0.00000  Uiso   1.00
N138   N     0.41421   0.74226   0.79783   0.00000  Uiso   1.00
C139   C     0.67498   0.92869   0.38190   0.00000  Uiso   1.00
C140   C     0.68166   0.88367   0.45299   0.00000  Uiso   1.00
C141   C     0.69075   0.90665   0.50009   0.00000  Uiso   1.00
C142   C     0.69571   0.85735   0.56231   0.00000  Uiso   1.00
C143   C     0.70666   0.79808   0.67048   0.00000  Uiso   1.00
C144   C     0.59789   0.94539   0.34312   0.00000  Uiso   1.00
C145   C     0.53655   0.02026   0.29784   0.00000  Uiso   1.00
C146   C     0.47100   0.02292   0.26757   0.00000  Uiso   1.00
C147   C     0.35192   0.05947   0.20513   0.00000  Uiso   1.00
C148   C     0.74034   0.86901   0.36791   0.00000  Uiso   1.00
C149   C     0.79876   0.87966   0.34346   0.00000  Uiso   1.00
C150   C     0.85313   0.81802   0.33404   0.00000  Uiso   1.00
C151   C     0.95522   0.73597   0.31010   0.00000  Uiso   1.00
C152   C     0.66764   0.80027   0.40864   0.00000  Uiso   1.00
C153   C     0.67767   0.81392   0.46751   0.00000  Uiso   1.00
C154   C     0.68263   0.76457   0.52968   0.00000  Uiso   1.00
C155   C     0.69172   0.78748   0.57687   0.00000  Uiso   1.00
C156   C     0.59390   0.87564   0.35764   0.00000  Uiso   1.00
C157   C     0.52843   0.87819   0.32743   0.00000  Uiso   1.00
C158   C     0.46700   0.95305   0.28212   0.00000  Uiso   1.00
C159   C     0.73635   0.79925   0.38244   0.00000  Uiso   1.00
C160   C     0.79064   0.73759   0.37305   0.00000  Uiso   1.00
C161   C     0.84913   0.74814   0.34859   0.00000  Uiso   1.00
H162   H     0.67808   0.98299   0.37058   0.00000  Uiso   1.00
H163   H     0.69382   0.96063   0.48883   0.00000  Uiso   1.00
H164   H     0.53966   0.07423   0.28660   0.00000  Uiso   1.00
H165   H     0.80182   0.93365   0.33222   0.00000  Uiso   1.00
H166   H     0.70949   0.90510   0.62632   0.00000  Uiso   1.00
H167   H     0.38444   0.14462   0.19990   0.00000  Uiso   1.00
H168   H     0.93727   0.84818   0.29609   0.00000  Uiso   1.00
H169   H     0.66453   0.74597   0.41995   0.00000  Uiso   1.00
H170   H     0.67954   0.71060   0.54091   0.00000  Uiso   1.00
H171   H     0.52537   0.82420   0.33868   0.00000  Uiso   1.00
H172   H     0.78754   0.68362   0.38430   0.00000  Uiso   1.00
H173   H     0.69790   0.70217   0.66860   0.00000  Uiso   1.00
H174   H     0.37284   0.94169   0.24217   0.00000  Uiso   1.00
H175   H     0.92567   0.64525   0.33837   0.00000  Uiso   1.00
O176   O     0.71378   0.78466   0.72613   0.00000  Uiso   1.00
O177   O     0.28733   0.09890   0.16668   0.00000  Uiso   1.00
O178   O     0.01263   0.70997   0.29288   0.00000  Uiso   1.00
N179   N     0.70472   0.86219   0.61968   0.00000  Uiso   1.00
N180   N     0.40080   0.08613   0.22100   0.00000  Uiso   1.00
N181   N     0.91765   0.80899   0.31092   0.00000  Uiso   1.00
N182   N     0.69848   0.75299   0.64242   0.00000  Uiso   1.00
N183   N     0.39456   0.97693   0.24375   0.00000  Uiso   1.00
N184   N     0.91141   0.69979   0.33367   0.00000  Uiso   1.00
C185   C     0.13001   0.17261   0.32987   0.00000  Uiso   1.00
C186   C     0.13994   0.16920   0.39644   0.00000  Uiso   1.00
C187   C     0.21035   0.14298   0.43925   0.00000  Uiso   1.00
C188   C     0.20707   0.14450   0.49776   0.00000  Uiso   1.00
C189   C     0.23331   0.13517   0.59882   0.00000  Uiso   1.00
C190   C     0.06945   0.25919   0.28186   0.00000  Uiso   1.00
C191   C     0.08059   0.30862   0.22833   0.00000  Uiso   1.00
C192   C     0.01797   0.38589   0.19038   0.00000  Uiso   1.00
C193   C     0.93476   0.51624   0.11354   0.00000  Uiso   1.00
C194   C     0.09085   0.12326   0.33034   0.00000  Uiso   1.00
C195   C     0.11998   0.05841   0.31755   0.00000  Uiso   1.00
C196   C     0.07536   0.02124   0.32040   0.00000  Uiso   1.00
C197   C     0.02538   0.94054   0.31882   0.00000  Uiso   1.00
C198   C     0.99899   0.22193   0.35766   0.00000  Uiso   1.00
C199   C     0.06877   0.19599   0.41153   0.00000  Uiso   1.00
C200   C     0.06539   0.19755   0.47000   0.00000  Uiso   1.00
C201   C     0.13578   0.17133   0.51288   0.00000  Uiso   1.00
C202   C     0.99829   0.28598   0.29696   0.00000  Uiso   1.00
C203   C     0.93564   0.36319   0.25908   0.00000  Uiso   1.00
C204   C     0.94668   0.41273   0.20550   0.00000  Uiso   1.00
C205   C     0.01969   0.15004   0.34543   0.00000  Uiso   1.00
C206   C     0.97502   0.11297   0.34830   0.00000  Uiso   1.00
C207   C     0.00407   0.04808   0.33552   0.00000  Uiso   1.00
H208   H     0.18541   0.15176   0.31811   0.00000  Uiso   1.00
H209   H     0.26541   0.12226   0.42755   0.00000  Uiso   1.00
H210   H     0.13567   0.28788   0.21666   0.00000  Uiso   1.00
H211   H     0.17505   0.03770   0.30587   0.00000  Uiso   1.00
H212   H     0.32270   0.10140   0.55552   0.00000  Uiso   1.00
H213   H     0.04914   0.45059   0.11084   0.00000  Uiso   1.00
H214   H     0.13217   0.92304   0.29895   0.00000  Uiso   1.00
H215   H     0.94358   0.24279   0.36941   0.00000  Uiso   1.00
H216   H     0.01031   0.21828   0.48166   0.00000  Uiso   1.00
H217   H     0.88057   0.38389   0.27077   0.00000  Uiso   1.00
H218   H     0.91995   0.13372   0.35998   0.00000  Uiso   1.00
H219   H     0.11566   0.17933   0.59944   0.00000  Uiso   1.00
H220   H     0.84209   0.52853   0.15476   0.00000  Uiso   1.00
H221   H     0.92513   0.00098   0.34287   0.00000  Uiso   1.00
O222   O     0.26743   0.12263   0.65039   0.00000  Uiso   1.00
O223   O     0.90852   0.58075   0.06698   0.00000  Uiso   1.00
O224   O     0.01747   0.88862   0.31378   0.00000  Uiso   1.00
N225   N     0.26482   0.12309   0.55046   0.00000  Uiso   1.00
N226   N     0.00906   0.44957   0.13471   0.00000  Uiso   1.00
N227   N     0.08668   0.95637   0.31057   0.00000  Uiso   1.00
N228   N     0.15341   0.16502   0.57409   0.00000  Uiso   1.00
N229   N     0.89765   0.49150   0.15835   0.00000  Uiso   1.00
N230   N     0.97527   0.99830   0.33420   0.00000  Uiso   1.00
C231   C     0.36388   0.45839   0.29674   0.00000  Uiso   1.00
C232   C     0.39072   0.38457   0.36146   0.00000  Uiso   1.00
C233   C     0.35324   0.33988   0.37925   0.00000  Uiso   1.00
C234   C     0.38710   0.27447   0.44059   0.00000  Uiso   1.00
C235   C     0.41832   0.16285   0.53468   0.00000  Uiso   1.00
C236   C     0.43323   0.44015   0.26885   0.00000  Uiso   1.00
C237   C     0.43148   0.44220   0.20876   0.00000  Uiso   1.00
C238   C     0.50112   0.42359   0.19215   0.00000  Uiso   1.00
C239   C     0.59832   0.39832   0.14243   0.00000  Uiso   1.00
C240   C     0.35458   0.52530   0.31290   0.00000  Uiso   1.00
C241   C     0.28672   0.59896   0.28985   0.00000  Uiso   1.00
C242   C     0.29016   0.65204   0.31031   0.00000  Uiso   1.00
C243   C     0.26525   0.75897   0.32900   0.00000  Uiso   1.00
C244   C     0.49067   0.42169   0.37406   0.00000  Uiso   1.00
C245   C     0.45959   0.36464   0.40345   0.00000  Uiso   1.00
C246   C     0.49351   0.29928   0.46479   0.00000  Uiso   1.00
C247   C     0.45609   0.25450   0.48266   0.00000  Uiso   1.00
C248   C     0.50209   0.42022   0.31084   0.00000  Uiso   1.00
C249   C     0.57175   0.40160   0.29431   0.00000  Uiso   1.00
C250   C     0.57011   0.40362   0.23422   0.00000  Uiso   1.00
C251   C     0.42345   0.50537   0.35490   0.00000  Uiso   1.00
C252   C     0.42699   0.55835   0.37539   0.00000  Uiso   1.00
C253   C     0.35915   0.63207   0.35238   0.00000  Uiso   1.00
H254   H     0.31027   0.47391   0.26404   0.00000  Uiso   1.00
H255   H     0.29995   0.35532   0.34673   0.00000  Uiso   1.00
H256   H     0.37818   0.45764   0.17627   0.00000  Uiso   1.00
H257   H     0.23344   0.61436   0.25735   0.00000  Uiso   1.00
H258   H     0.31889   0.21504   0.45691   0.00000  Uiso   1.00
H259   H     0.48384   0.43080   0.09749   0.00000  Uiso   1.00
H260   H     0.17863   0.76128   0.26845   0.00000  Uiso   1.00
H261   H     0.54428   0.40618   0.40675   0.00000  Uiso   1.00
H262   H     0.54680   0.28387   0.49728   0.00000  Uiso   1.00
H263   H     0.62503   0.38618   0.32682   0.00000  Uiso   1.00
H264   H     0.48029   0.54290   0.40789   0.00000  Uiso   1.00
H265   H     0.51925   0.15704   0.57910   0.00000  Uiso   1.00
H266   H     0.68419   0.37281   0.21967   0.00000  Uiso   1.00
H267   H     0.37898   0.70328   0.39063   0.00000  Uiso   1.00
O268   O     0.41652   0.10679   0.57497   0.00000  Uiso   1.00
O269   O     0.63291   0.38988   0.10341   0.00000  Uiso   1.00
O270   O     0.23248   0.82345   0.32771   0.00000  Uiso   1.00
N271   N     0.36569   0.21818   0.47325   0.00000  Uiso   1.00
N272   N     0.51991   0.41990   0.13721   0.00000  Uiso   1.00
N273   N     0.23457   0.72888   0.29703   0.00000  Uiso   1.00
N274   N     0.47350   0.18698   0.53900   0.00000  Uiso   1.00
N275   N     0.62772   0.38869   0.20296   0.00000  Uiso   1.00
N276   N     0.34238   0.69767   0.36278   0.00000  Uiso   1.00
C277   C     0.04206   0.30100   0.02057   0.00000  Uiso   1.00
C278   C     0.99772   0.33864   0.94937   0.00000  Uiso   1.00
C279   C     0.00640   0.29855   0.91261   0.00000  Uiso   1.00
C280   C     0.96044   0.34369   0.84835   0.00000  Uiso   1.00
C281   C     0.89957   0.38963   0.74184   0.00000  Uiso   1.00
C282   C     0.97934   0.32005   0.05511   0.00000  Uiso   1.00
C283   C     0.97259   0.26432   0.10724   0.00000  Uiso   1.00
C284   C     0.91116   0.29381   0.13199   0.00000  Uiso   1.00
C285   C     0.82181   0.31087   0.18967   0.00000  Uiso   1.00
C286   C     0.08260   0.34809   0.02382   0.00000  Uiso   1.00
C287   C     0.16267   0.31595   0.04966   0.00000  Uiso   1.00
C288   C     0.18818   0.36905   0.04808   0.00000  Uiso   1.00
C289   C     0.25915   0.42965   0.05718   0.00000  Uiso   1.00
C290   C     0.94499   0.45246   0.97183   0.00000  Uiso   1.00
C291   C     0.94499   0.42091   0.92290   0.00000  Uiso   1.00
C292   C     0.89900   0.46613   0.85868   0.00000  Uiso   1.00
C293   C     0.90762   0.42611   0.82182   0.00000  Uiso   1.00
C294   C     0.92662   0.40231   0.02864   0.00000  Uiso   1.00
C295   C     0.86519   0.43189   0.05332   0.00000  Uiso   1.00
C296   C     0.85834   0.37622   0.10547   0.00000  Uiso   1.00
C297   C     0.02988   0.43036   0.99734   0.00000  Uiso   1.00
C298   C     0.05527   0.48352   0.99573   0.00000  Uiso   1.00
C299   C     0.13536   0.45146   0.02156   0.00000  Uiso   1.00
H300   H     0.08311   0.23695   0.04118   0.00000  Uiso   1.00
H301   H     0.04720   0.23489   0.93312   0.00000  Uiso   1.00
H302   H     0.01340   0.20066   0.12773   0.00000  Uiso   1.00
H303   H     0.20345   0.25228   0.07015   0.00000  Uiso   1.00
H304   H     0.98413   0.26887   0.80164   0.00000  Uiso   1.00
H305   H     0.91287   0.19671   0.21199   0.00000  Uiso   1.00
H306   H     0.31362   0.30556   0.09058   0.00000  Uiso   1.00
H307   H     0.90394   0.51651   0.95121   0.00000  Uiso   1.00
H308   H     0.85820   0.52979   0.83821   0.00000  Uiso   1.00
H309   H     0.82440   0.49556   0.03282   0.00000  Uiso   1.00
H310   H     0.01445   0.54718   0.97524   0.00000  Uiso   1.00
H311   H     0.83072   0.50822   0.72460   0.00000  Uiso   1.00
H312   H     0.75947   0.43606   0.13497   0.00000  Uiso   1.00
H313   H     0.16022   0.54491   0.01355   0.00000  Uiso   1.00
O314   O     0.88055   0.39224   0.69041   0.00000  Uiso   1.00
O315   O     0.78708   0.29755   0.22879   0.00000  Uiso   1.00
O316   O     0.31286   0.44036   0.06950   0.00000  Uiso   1.00
N317   N     0.95431   0.32339   0.79901   0.00000  Uiso   1.00
N318   N     0.88768   0.25591   0.18267   0.00000  Uiso   1.00
N319   N     0.26235   0.35767   0.06917   0.00000  Uiso   1.00
N320   N     0.87177   0.45218   0.75756   0.00000  Uiso   1.00
N321   N     0.80514   0.38471   0.14122   0.00000  Uiso   1.00
N322   N     0.17981   0.48647   0.02772   0.00000  Uiso   1.00
C323   C     0.78394   0.00659   0.07605   0.00000  Uiso   1.00
C324   C     0.79248   0.04949   0.01002   0.00000  Uiso   1.00
C325   C     0.83520   0.08916   0.99740   0.00000  Uiso   1.00
C326   C     0.83574   0.12459   0.93377   0.00000  Uiso   1.00
C327   C     0.85523   0.19179   0.83873   0.00000  Uiso   1.00
C328   C     0.81216   0.92075   0.08840   0.00000  Uiso   1.00
C329   C     0.87142   0.85218   0.14168   0.00000  Uiso   1.00
C330   C     0.88852   0.77923   0.14403   0.00000  Uiso   1.00
C331   C     0.93853   0.64657   0.17070   0.00000  Uiso   1.00
C332   C     0.69577   0.04431   0.06767   0.00000  Uiso   1.00
C333   C     0.65717   0.07960   0.10354   0.00000  Uiso   1.00
C334   C     0.57628   0.11066   0.08845   0.00000  Uiso   1.00
C335   C     0.44557   0.16984   0.08294   0.00000  Uiso   1.00
C336   C     0.70891   0.99899   0.98548   0.00000  Uiso   1.00
C337   C     0.75173   0.04536   0.96083   0.00000  Uiso   1.00
C338   C     0.75219   0.08074   0.89720   0.00000  Uiso   1.00
C339   C     0.79491   0.12045   0.88449   0.00000  Uiso   1.00
C340   C     0.77141   0.91662   0.03921   0.00000  Uiso   1.00
C341   C     0.78842   0.84376   0.04148   0.00000  Uiso   1.00
C342   C     0.84770   0.77509   0.09476   0.00000  Uiso   1.00
C343   C     0.65502   0.04018   0.01848   0.00000  Uiso   1.00
C344   C     0.57417   0.07119   0.00333   0.00000  Uiso   1.00
C345   C     0.53545   0.10652   0.03917   0.00000  Uiso   1.00
H346   H     0.81566   0.00980   0.11435   0.00000  Uiso   1.00
H347   H     0.86674   0.09233   0.03548   0.00000  Uiso   1.00
H348   H     0.90294   0.85539   0.17975   0.00000  Uiso   1.00
H349   H     0.68873   0.08278   0.14160   0.00000  Uiso   1.00
H350   H     0.90541   0.18199   0.92636   0.00000  Uiso   1.00
H351   H     0.98174   0.68238   0.23055   0.00000  Uiso   1.00
H352   H     0.53002   0.16188   0.15013   0.00000  Uiso   1.00
H353   H     0.67718   0.99577   0.94718   0.00000  Uiso   1.00
H354   H     0.72065   0.07753   0.85914   0.00000  Uiso   1.00
H355   H     0.75687   0.84059   0.00341   0.00000  Uiso   1.00
H356   H     0.54265   0.06798   0.96526   0.00000  Uiso   1.00
H357   H     0.78685   0.16997   0.78323   0.00000  Uiso   1.00
H358   H     0.86318   0.67037   0.08743   0.00000  Uiso   1.00
H359   H     0.41146   0.14986   0.00700   0.00000  Uiso   1.00
O360   O     0.87725   0.23000   0.79990   0.00000  Uiso   1.00
O361   O     0.97738   0.57454   0.19900   0.00000  Uiso   1.00
O362   O     0.38474   0.20363   0.09348   0.00000  Uiso   1.00
N363   N     0.87153   0.16795   0.90475   0.00000  Uiso   1.00
N364   N     0.94290   0.70085   0.18915   0.00000  Uiso   1.00
N365   N     0.52059   0.14912   0.11397   0.00000  Uiso   1.00
N366   N     0.80773   0.16149   0.82774   0.00000  Uiso   1.00
N367   N     0.87911   0.69439   0.11214   0.00000  Uiso   1.00
N368   N     0.45679   0.14266   0.03696   0.00000  Uiso   1.00
C369   C     0.22562   0.83028   0.97049   0.00000  Uiso   1.00
C370   C     0.21135   0.89963   0.90669   0.00000  Uiso   1.00
C371   C     0.13852   0.95954   0.86210   0.00000  Uiso   1.00
C372   C     0.13790   0.01764   0.80669   0.00000  Uiso   1.00
C373   C     0.10513   0.12563   0.70922   0.00000  Uiso   1.00
C374   C     0.27133   0.83489   0.02321   0.00000  Uiso   1.00
C375   C     0.24893   0.84034   0.07661   0.00000  Uiso   1.00
C376   C     0.29882   0.84393   0.11929   0.00000  Uiso   1.00
C377   C     0.35920   0.85134   0.20274   0.00000  Uiso   1.00
C378   C     0.28220   0.75403   0.96848   0.00000  Uiso   1.00
C379   C     0.26895   0.69148   0.97587   0.00000  Uiso   1.00
C380   C     0.32799   0.62697   0.97248   0.00000  Uiso   1.00
C381   C     0.40524   0.50884   0.97095   0.00000  Uiso   1.00
C382   C     0.35405   0.82694   0.95137   0.00000  Uiso   1.00
C383   C     0.28111   0.89782   0.89630   0.00000  Uiso   1.00
C384   C     0.28061   0.95585   0.84094   0.00000  Uiso   1.00
C385   C     0.20779   0.01582   0.79628   0.00000  Uiso   1.00
C386   C     0.34109   0.83308   0.01283   0.00000  Uiso   1.00
C387   C     0.39103   0.83665   0.05544   0.00000  Uiso   1.00
C388   C     0.36871   0.84211   0.10888   0.00000  Uiso   1.00
C389   C     0.35196   0.75221   0.95809   0.00000  Uiso   1.00
C390   C     0.41104   0.68779   0.95470   0.00000  Uiso   1.00
C391   C     0.39788   0.62516   0.96208   0.00000  Uiso   1.00
H392   H     0.17131   0.83169   0.97859   0.00000  Uiso   1.00
H393   H     0.08454   0.96092   0.87016   0.00000  Uiso   1.00
H394   H     0.19495   0.84174   0.08463   0.00000  Uiso   1.00
H395   H     0.21496   0.69290   0.98390   0.00000  Uiso   1.00
H396   H     0.01910   0.10342   0.74539   0.00000  Uiso   1.00
H397   H     0.25191   0.85208   0.19762   0.00000  Uiso   1.00
H398   H     0.29410   0.53823   0.98522   0.00000  Uiso   1.00
H399   H     0.40837   0.82553   0.94328   0.00000  Uiso   1.00
H400   H     0.33460   0.95443   0.83292   0.00000  Uiso   1.00
H401   H     0.44501   0.83524   0.04739   0.00000  Uiso   1.00
H402   H     0.46501   0.68641   0.94666   0.00000  Uiso   1.00
H403   H     0.22206   0.09815   0.71516   0.00000  Uiso   1.00
H404   H     0.45487   0.84681   0.16740   0.00000  Uiso   1.00
H405   H     0.49706   0.53296   0.95499   0.00000  Uiso   1.00
O406   O     0.06778   0.18570   0.65832   0.00000  Uiso   1.00
O407   O     0.37322   0.85594   0.25164   0.00000  Uiso   1.00
O408   O     0.42857   0.44418   0.97297   0.00000  Uiso   1.00
N409   N     0.07699   0.08448   0.75341   0.00000  Uiso   1.00
N410   N     0.29465   0.84951   0.17622   0.00000  Uiso   1.00
N411   N     0.33410   0.55607   0.97766   0.00000  Uiso   1.00
N412   N     0.18620   0.08164   0.73715   0.00000  Uiso   1.00
N413   N     0.40386   0.84667   0.15995   0.00000  Uiso   1.00
N414   N     0.44331   0.55324   0.96139   0.00000  Uiso   1.00
C415   C     0.15766   0.37249   0.49000   0.00000  Uiso   1.00
C416   C     0.15342   0.41151   0.41877   0.00000  Uiso   1.00
C417   C     0.15387   0.37923   0.37679   0.00000  Uiso   1.00
C418   C     0.14956   0.42427   0.31346   0.00000  Uiso   1.00
C419   C     0.14372   0.47349   0.20599   0.00000  Uiso   1.00
C420   C     0.22842   0.36740   0.52759   0.00000  Uiso   1.00
C421   C     0.29193   0.29804   0.57710   0.00000  Uiso   1.00
C422   C     0.35075   0.30596   0.60538   0.00000  Uiso   1.00
C423   C     0.46133   0.28670   0.66687   0.00000  Uiso   1.00
C424   C     0.08535   0.43272   0.49776   0.00000  Uiso   1.00
C425   C     0.02857   0.41826   0.52220   0.00000  Uiso   1.00
C426   C     0.96695   0.48117   0.52539   0.00000  Uiso   1.00
C427   C     0.85538   0.56332   0.54056   0.00000  Uiso   1.00
C428   C     0.14922   0.50989   0.45221   0.00000  Uiso   1.00
C429   C     0.14884   0.48614   0.39825   0.00000  Uiso   1.00
C430   C     0.14453   0.53124   0.33497   0.00000  Uiso   1.00
C431   C     0.14497   0.49904   0.29290   0.00000  Uiso   1.00
C432   C     0.22384   0.44203   0.50706   0.00000  Uiso   1.00
C433   C     0.28259   0.45005   0.53528   0.00000  Uiso   1.00
C434   C     0.34616   0.38072   0.58482   0.00000  Uiso   1.00
C435   C     0.08076   0.50735   0.47723   0.00000  Uiso   1.00
C436   C     0.01923   0.57028   0.48038   0.00000  Uiso   1.00
C437   C     0.96236   0.55593   0.50482   0.00000  Uiso   1.00
H438   H     0.16123   0.31439   0.50599   0.00000  Uiso   1.00
H439   H     0.15742   0.32147   0.39269   0.00000  Uiso   1.00
H440   H     0.29545   0.24030   0.59298   0.00000  Uiso   1.00
H441   H     0.03213   0.36050   0.53808   0.00000  Uiso   1.00
H442   H     0.15121   0.36222   0.25803   0.00000  Uiso   1.00
H443   H     0.44224   0.19106   0.68036   0.00000  Uiso   1.00
H444   H     0.88698   0.44454   0.56461   0.00000  Uiso   1.00
H445   H     0.14565   0.56799   0.43623   0.00000  Uiso   1.00
H446   H     0.14098   0.58899   0.31910   0.00000  Uiso   1.00
H447   H     0.27902   0.50782   0.51938   0.00000  Uiso   1.00
H448   H     0.01570   0.62802   0.46449   0.00000  Uiso   1.00
H449   H     0.13787   0.57935   0.19830   0.00000  Uiso   1.00
H450   H     0.42890   0.40819   0.62063   0.00000  Uiso   1.00
H451   H     0.87364   0.66167   0.50488   0.00000  Uiso   1.00
O452   O     0.14178   0.48001   0.15238   0.00000  Uiso   1.00
O453   O     0.52359   0.25546   0.70646   0.00000  Uiso   1.00
O454   O     0.79510   0.58802   0.55460   0.00000  Uiso   1.00
N455   N     0.14869   0.41045   0.26005   0.00000  Uiso   1.00
N456   N     0.42080   0.25042   0.65489   0.00000  Uiso   1.00
N457   N     0.90169   0.48740   0.54669   0.00000  Uiso   1.00
N458   N     0.14151   0.52728   0.22791   0.00000  Uiso   1.00
N459   N     0.41362   0.36726   0.62275   0.00000  Uiso   1.00
N460   N     0.89451   0.60424   0.51455   0.00000  Uiso   1.00
C461   C     0.75752   0.09160   0.52661   0.00000  Uiso   1.00
C462   C     0.73102   0.10872   0.45677   0.00000  Uiso   1.00
C463   C     0.65616   0.13146   0.42377   0.00000  Uiso   1.00
C464   C     0.64370   0.14429   0.36015   0.00000  Uiso   1.00
C465   C     0.59339   0.17230   0.25619   0.00000  Uiso   1.00
C466   C     0.82804   0.00685   0.56157   0.00000  Uiso   1.00
C467   C     0.83475   0.94395   0.61669   0.00000  Uiso   1.00
C468   C     0.90397   0.87104   0.64129   0.00000  Uiso   1.00
C469   C     0.00430   0.74091   0.70007   0.00000  Uiso   1.00
C470   C     0.78959   0.14712   0.52429   0.00000  Uiso   1.00
C471   C     0.76399   0.20215   0.54809   0.00000  Uiso   1.00
C472   C     0.80086   0.24732   0.54132   0.00000  Uiso   1.00
C473   C     0.84150   0.33497   0.54222   0.00000  Uiso   1.00
C474   C     0.86854   0.07395   0.47231   0.00000  Uiso   1.00
C475   C     0.79132   0.09913   0.42728   0.00000  Uiso   1.00
C476   C     0.77898   0.11193   0.36369   0.00000  Uiso   1.00
C477   C     0.70411   0.13469   0.33060   0.00000  Uiso   1.00
C478   C     0.88834   0.99726   0.53208   0.00000  Uiso   1.00
C479   C     0.95757   0.92443   0.55661   0.00000  Uiso   1.00
C480   C     0.96438   0.86143   0.61175   0.00000  Uiso   1.00
C481   C     0.84989   0.13754   0.49480   0.00000  Uiso   1.00
C482   C     0.88681   0.18262   0.48800   0.00000  Uiso   1.00
C483   C     0.86127   0.23771   0.51178   0.00000  Uiso   1.00
H484   H     0.71058   0.09906   0.54958   0.00000  Uiso   1.00
H485   H     0.60951   0.13887   0.44661   0.00000  Uiso   1.00
H486   H     0.78808   0.95139   0.63951   0.00000  Uiso   1.00
H487   H     0.71733   0.20955   0.57091   0.00000  Uiso   1.00
H488   H     0.52405   0.17875   0.31945   0.00000  Uiso   1.00
H489   H     0.90058   0.78346   0.72619   0.00000  Uiso   1.00
H490   H     0.75140   0.32783   0.58155   0.00000  Uiso   1.00
H491   H     0.91549   0.06648   0.44935   0.00000  Uiso   1.00
H492   H     0.82565   0.10451   0.34087   0.00000  Uiso   1.00
H493   H     0.00422   0.91703   0.53377   0.00000  Uiso   1.00
H494   H     0.93347   0.17519   0.46517   0.00000  Uiso   1.00
H495   H     0.69948   0.15086   0.23363   0.00000  Uiso   1.00
H496   H     0.07601   0.75556   0.64038   0.00000  Uiso   1.00
H497   H     0.92683   0.29994   0.49573   0.00000  Uiso   1.00
O498   O     0.54898   0.19038   0.20700   0.00000  Uiso   1.00
O499   O     0.04298   0.67178   0.74064   0.00000  Uiso   1.00
O500   O     0.84725   0.38598   0.55086   0.00000  Uiso   1.00
N501   N     0.57766   0.16698   0.31414   0.00000  Uiso   1.00
N502   N     0.92969   0.79740   0.69441   0.00000  Uiso   1.00
N503   N     0.79023   0.30633   0.55919   0.00000  Uiso   1.00
N504   N     0.67206   0.15197   0.26796   0.00000  Uiso   1.00
N505   N     0.02409   0.78240   0.64823   0.00000  Uiso   1.00
N506   N     0.88463   0.29132   0.51301   0.00000  Uiso   1.00
C507   C     0.36822   0.84791   0.60299   0.00000  Uiso   1.00
C508   C     0.38233   0.90413   0.54701   0.00000  Uiso   1.00
C509   C     0.44022   0.92455   0.55227   0.00000  Uiso   1.00
C510   C     0.44345   0.97692   0.49533   0.00000  Uiso   1.00
C511   C     0.47336   0.05956   0.41754   0.00000  Uiso   1.00
C512   C     0.28269   0.89583   0.60005   0.00000  Uiso   1.00
C513   C     0.25682   0.90926   0.64990   0.00000  Uiso   1.00
C514   C     0.17618   0.95464   0.63760   0.00000  Uiso   1.00
C515   C     0.05141   0.02434   0.64216   0.00000  Uiso   1.00
C516   C     0.37302   0.78265   0.58623   0.00000  Uiso   1.00
C517   C     0.42308   0.70090   0.62446   0.00000  Uiso   1.00
C518   C     0.41849   0.65098   0.60054   0.00000  Uiso   1.00
C519   C     0.43397   0.54495   0.58364   0.00000  Uiso   1.00
C520   C     0.27102   0.90463   0.49254   0.00000  Uiso   1.00
C521   C     0.32953   0.93494   0.48702   0.00000  Uiso   1.00
C522   C     0.33268   0.98729   0.43006   0.00000  Uiso   1.00
C523   C     0.39057   0.00778   0.43523   0.00000  Uiso   1.00
C524   C     0.22990   0.92664   0.54005   0.00000  Uiso   1.00
C525   C     0.14928   0.97200   0.52769   0.00000  Uiso   1.00
C526   C     0.12329   0.98550   0.57750   0.00000  Uiso   1.00
C527   C     0.32023   0.81345   0.52623   0.00000  Uiso   1.00
C528   C     0.31555   0.76365   0.50225   0.00000  Uiso   1.00
C529   C     0.36560   0.68184   0.54043   0.00000  Uiso   1.00
H530   H     0.40932   0.82393   0.64970   0.00000  Uiso   1.00
H531   H     0.48106   0.90070   0.59871   0.00000  Uiso   1.00
H532   H     0.29769   0.88540   0.69632   0.00000  Uiso   1.00
H533   H     0.46393   0.67709   0.67088   0.00000  Uiso   1.00
H534   H     0.53730   0.99942   0.51571   0.00000  Uiso   1.00
H535   H     0.15065   0.96714   0.72154   0.00000  Uiso   1.00
H536   H     0.50120   0.52786   0.66791   0.00000  Uiso   1.00
H537   H     0.22992   0.92861   0.44583   0.00000  Uiso   1.00
H538   H     0.29182   0.01112   0.38364   0.00000  Uiso   1.00
H539   H     0.10845   0.99583   0.48125   0.00000  Uiso   1.00
H540   H     0.27469   0.78751   0.45582   0.00000  Uiso   1.00
H541   H     0.38370   0.08904   0.34115   0.00000  Uiso   1.00
H542   H     0.99705   0.05677   0.54699   0.00000  Uiso   1.00
H543   H     0.34761   0.61748   0.49335   0.00000  Uiso   1.00
O544   O     0.50444   0.09664   0.39121   0.00000  Uiso   1.00
O545   O     0.99717   0.05428   0.66125   0.00000  Uiso   1.00
O546   O     0.45709   0.47796   0.59089   0.00000  Uiso   1.00
N547   N     0.49266   0.00917   0.48316   0.00000  Uiso   1.00
N548   N     0.13117   0.97901   0.67560   0.00000  Uiso   1.00
N549   N     0.45890   0.56832   0.62546   0.00000  Uiso   1.00
N550   N     0.41001   0.05740   0.38923   0.00000  Uiso   1.00
N551   N     0.04852   0.02724   0.58167   0.00000  Uiso   1.00
N552   N     0.37625   0.61654   0.53154   0.00000  Uiso   1.00
