data_job_05100
_audit_creation_date              2018-12-19
_audit_creation_method            'Materials Studio'
_symmetry_space_group_name_H-M    'P1'
_symmetry_Int_Tables_number       1
_symmetry_cell_setting            triclinic
loop_
_symmetry_equiv_pos_as_xyz
  x,y,z
_cell_length_a                    44.4162
_cell_length_b                    11.7439
_cell_length_c                    13.8131
_cell_angle_alpha                 90.0000
_cell_angle_beta                  98.1675
_cell_angle_gamma                 90.0000
loop_
_atom_site_label
_atom_site_type_symbol
_atom_site_fract_x
_atom_site_fract_y
_atom_site_fract_z
_atom_site_U_iso_or_equiv
_atom_site_adp_type
_atom_site_occupancy
C1     C     0.64915   0.86927   0.61445   0.00000  Uiso   1.00
C2     C     0.67133   0.96785   0.63807   0.00000  Uiso   1.00
C3     C     0.68862   0.01795   0.57351   0.00000  Uiso   1.00
C4     C     0.70753   0.10711   0.60921   0.00000  Uiso   1.00
C5     C     0.74172   0.25449   0.63114   0.00000  Uiso   1.00
C6     C     0.61859   0.91117   0.63861   0.00000  Uiso   1.00
C7     C     0.59153   0.91360   0.57452   0.00000  Uiso   1.00
C8     C     0.56605   0.95503   0.61069   0.00000  Uiso   1.00
C9     C     0.51835   0.01434   0.63349   0.00000  Uiso   1.00
C10    C     0.65949   0.77623   0.68879   0.00000  Uiso   1.00
C11    C     0.66683   0.66519   0.66689   0.00000  Uiso   1.00
C12    C     0.67578   0.59300   0.74530   0.00000  Uiso   1.00
C13    C     0.69160   0.44280   0.84601   0.00000  Uiso   1.00
C14    C     0.65200   0.93849   0.79265   0.00000  Uiso   1.00
C15    C     0.67287   0.00544   0.73486   0.00000  Uiso   1.00
C16    C     0.69177   0.09454   0.77067   0.00000  Uiso   1.00
C17    C     0.70909   0.14477   0.70618   0.00000  Uiso   1.00
C18    C     0.62013   0.94877   0.73540   0.00000  Uiso   1.00
C19    C     0.59469   0.99019   0.77168   0.00000  Uiso   1.00
C20    C     0.56760   0.99270   0.70766   0.00000  Uiso   1.00
C21    C     0.66104   0.81383   0.78558   0.00000  Uiso   1.00
C22    C     0.66998   0.74179   0.86405   0.00000  Uiso   1.00
C23    C     0.67733   0.63067   0.84227   0.00000  Uiso   1.00
H24    H     0.64795   0.84000   0.53909   0.00000  Uiso   1.00
H25    H     0.68741   0.98884   0.49860   0.00000  Uiso   1.00
H26    H     0.59034   0.88449   0.49962   0.00000  Uiso   1.00
H27    H     0.66563   0.63613   0.59197   0.00000  Uiso   1.00
H28    H     0.73184   0.17047   0.49639   0.00000  Uiso   1.00
H29    H     0.52717   0.95041   0.49854   0.00000  Uiso   1.00
H30    H     0.68592   0.42668   0.69329   0.00000  Uiso   1.00
H31    H     0.65321   0.96776   0.86802   0.00000  Uiso   1.00
H32    H     0.69296   0.12362   0.84558   0.00000  Uiso   1.00
H33    H     0.59589   0.01927   0.84659   0.00000  Uiso   1.00
H34    H     0.67118   0.77091   0.93894   0.00000  Uiso   1.00
H35    H     0.73634   0.27986   0.77800   0.00000  Uiso   1.00
H36    H     0.53167   0.05980   0.78016   0.00000  Uiso   1.00
H37    H     0.69042   0.53608   0.97490   0.00000  Uiso   1.00
O38    O     0.76014   0.32541   0.61649   0.00000  Uiso   1.00
O39    O     0.49162   0.03669   0.61932   0.00000  Uiso   1.00
O40    O     0.69990   0.34957   0.87482   0.00000  Uiso   1.00
N41    N     0.72745   0.17481   0.56575   0.00000  Uiso   1.00
N42    N     0.53609   0.96909   0.56776   0.00000  Uiso   1.00
N43    N     0.68450   0.47944   0.74983   0.00000  Uiso   1.00
N44    N     0.72987   0.23367   0.71729   0.00000  Uiso   1.00
N45    N     0.53852   0.02795   0.71930   0.00000  Uiso   1.00
N46    N     0.68693   0.53830   0.90137   0.00000  Uiso   1.00
C47    C     0.14915   0.36927   0.61445   0.00000  Uiso   1.00
C48    C     0.17133   0.46785   0.63807   0.00000  Uiso   1.00
C49    C     0.18862   0.51795   0.57351   0.00000  Uiso   1.00
C50    C     0.20753   0.60711   0.60921   0.00000  Uiso   1.00
C51    C     0.24172   0.75449   0.63114   0.00000  Uiso   1.00
C52    C     0.11859   0.41117   0.63861   0.00000  Uiso   1.00
C53    C     0.09153   0.41360   0.57452   0.00000  Uiso   1.00
C54    C     0.06605   0.45503   0.61069   0.00000  Uiso   1.00
C55    C     0.01835   0.51434   0.63349   0.00000  Uiso   1.00
C56    C     0.15949   0.27623   0.68879   0.00000  Uiso   1.00
C57    C     0.16683   0.16519   0.66689   0.00000  Uiso   1.00
C58    C     0.17578   0.09300   0.74530   0.00000  Uiso   1.00
C59    C     0.19160   0.94280   0.84601   0.00000  Uiso   1.00
C60    C     0.15200   0.43849   0.79265   0.00000  Uiso   1.00
C61    C     0.17287   0.50544   0.73486   0.00000  Uiso   1.00
C62    C     0.19177   0.59454   0.77067   0.00000  Uiso   1.00
C63    C     0.20909   0.64477   0.70618   0.00000  Uiso   1.00
C64    C     0.12013   0.44877   0.73540   0.00000  Uiso   1.00
C65    C     0.09469   0.49019   0.77168   0.00000  Uiso   1.00
C66    C     0.06760   0.49270   0.70766   0.00000  Uiso   1.00
C67    C     0.16104   0.31383   0.78558   0.00000  Uiso   1.00
C68    C     0.16998   0.24179   0.86405   0.00000  Uiso   1.00
C69    C     0.17733   0.13067   0.84227   0.00000  Uiso   1.00
H70    H     0.14795   0.34000   0.53909   0.00000  Uiso   1.00
H71    H     0.18741   0.48884   0.49860   0.00000  Uiso   1.00
H72    H     0.09034   0.38449   0.49962   0.00000  Uiso   1.00
H73    H     0.16563   0.13613   0.59197   0.00000  Uiso   1.00
H74    H     0.23184   0.67047   0.49639   0.00000  Uiso   1.00
H75    H     0.02717   0.45041   0.49854   0.00000  Uiso   1.00
H76    H     0.18592   0.92668   0.69329   0.00000  Uiso   1.00
H77    H     0.15321   0.46776   0.86802   0.00000  Uiso   1.00
H78    H     0.19296   0.62362   0.84558   0.00000  Uiso   1.00
H79    H     0.09589   0.51927   0.84659   0.00000  Uiso   1.00
H80    H     0.17118   0.27091   0.93894   0.00000  Uiso   1.00
H81    H     0.23634   0.77986   0.77800   0.00000  Uiso   1.00
H82    H     0.03167   0.55980   0.78016   0.00000  Uiso   1.00
H83    H     0.19042   0.03608   0.97490   0.00000  Uiso   1.00
O84    O     0.26014   0.82541   0.61649   0.00000  Uiso   1.00
O85    O     0.99162   0.53669   0.61932   0.00000  Uiso   1.00
O86    O     0.19990   0.84957   0.87482   0.00000  Uiso   1.00
N87    N     0.22745   0.67481   0.56575   0.00000  Uiso   1.00
N88    N     0.03609   0.46909   0.56776   0.00000  Uiso   1.00
N89    N     0.18450   0.97944   0.74983   0.00000  Uiso   1.00
N90    N     0.22987   0.73367   0.71729   0.00000  Uiso   1.00
N91    N     0.03852   0.52795   0.71930   0.00000  Uiso   1.00
N92    N     0.18693   0.03830   0.90137   0.00000  Uiso   1.00
C93    C     0.35085   0.86927   0.88555   0.00000  Uiso   1.00
C94    C     0.32867   0.96785   0.86193   0.00000  Uiso   1.00
C95    C     0.31138   0.01795   0.92649   0.00000  Uiso   1.00
C96    C     0.29247   0.10711   0.89079   0.00000  Uiso   1.00
C97    C     0.25828   0.25449   0.86886   0.00000  Uiso   1.00
C98    C     0.38141   0.91117   0.86139   0.00000  Uiso   1.00
C99    C     0.40847   0.91360   0.92548   0.00000  Uiso   1.00
C100   C     0.43395   0.95503   0.88931   0.00000  Uiso   1.00
C101   C     0.48165   0.01434   0.86651   0.00000  Uiso   1.00
C102   C     0.34051   0.77623   0.81121   0.00000  Uiso   1.00
C103   C     0.33317   0.66519   0.83311   0.00000  Uiso   1.00
C104   C     0.32422   0.59300   0.75470   0.00000  Uiso   1.00
C105   C     0.30840   0.44280   0.65399   0.00000  Uiso   1.00
C106   C     0.34800   0.93849   0.70735   0.00000  Uiso   1.00
C107   C     0.32713   0.00544   0.76514   0.00000  Uiso   1.00
C108   C     0.30823   0.09454   0.72933   0.00000  Uiso   1.00
C109   C     0.29091   0.14477   0.79382   0.00000  Uiso   1.00
C110   C     0.37987   0.94877   0.76460   0.00000  Uiso   1.00
C111   C     0.40531   0.99019   0.72832   0.00000  Uiso   1.00
C112   C     0.43240   0.99270   0.79234   0.00000  Uiso   1.00
C113   C     0.33896   0.81383   0.71442   0.00000  Uiso   1.00
C114   C     0.33002   0.74179   0.63595   0.00000  Uiso   1.00
C115   C     0.32267   0.63067   0.65773   0.00000  Uiso   1.00
H116   H     0.35205   0.84000   0.96091   0.00000  Uiso   1.00
H117   H     0.31259   0.98884   0.00140   0.00000  Uiso   1.00
H118   H     0.40966   0.88449   0.00038   0.00000  Uiso   1.00
H119   H     0.33437   0.63613   0.90803   0.00000  Uiso   1.00
H120   H     0.26816   0.17047   0.00361   0.00000  Uiso   1.00
H121   H     0.47283   0.95041   0.00146   0.00000  Uiso   1.00
H122   H     0.31408   0.42668   0.80671   0.00000  Uiso   1.00
H123   H     0.34679   0.96776   0.63198   0.00000  Uiso   1.00
H124   H     0.30704   0.12362   0.65442   0.00000  Uiso   1.00
H125   H     0.40411   0.01927   0.65341   0.00000  Uiso   1.00
H126   H     0.32882   0.77091   0.56106   0.00000  Uiso   1.00
H127   H     0.26366   0.27986   0.72200   0.00000  Uiso   1.00
H128   H     0.46833   0.05980   0.71984   0.00000  Uiso   1.00
H129   H     0.30958   0.53608   0.52510   0.00000  Uiso   1.00
O130   O     0.23986   0.32541   0.88351   0.00000  Uiso   1.00
O131   O     0.50838   0.03669   0.88068   0.00000  Uiso   1.00
O132   O     0.30010   0.34957   0.62518   0.00000  Uiso   1.00
N133   N     0.27255   0.17481   0.93425   0.00000  Uiso   1.00
N134   N     0.46391   0.96909   0.93224   0.00000  Uiso   1.00
N135   N     0.31550   0.47944   0.75017   0.00000  Uiso   1.00
N136   N     0.27013   0.23367   0.78271   0.00000  Uiso   1.00
N137   N     0.46148   0.02795   0.78070   0.00000  Uiso   1.00
N138   N     0.31307   0.53830   0.59863   0.00000  Uiso   1.00
C139   C     0.85085   0.36927   0.88555   0.00000  Uiso   1.00
C140   C     0.82867   0.46785   0.86193   0.00000  Uiso   1.00
C141   C     0.81138   0.51795   0.92649   0.00000  Uiso   1.00
C142   C     0.79247   0.60711   0.89079   0.00000  Uiso   1.00
C143   C     0.75828   0.75449   0.86886   0.00000  Uiso   1.00
C144   C     0.88141   0.41117   0.86139   0.00000  Uiso   1.00
C145   C     0.90847   0.41360   0.92548   0.00000  Uiso   1.00
C146   C     0.93395   0.45503   0.88931   0.00000  Uiso   1.00
C147   C     0.98165   0.51434   0.86651   0.00000  Uiso   1.00
C148   C     0.84051   0.27623   0.81121   0.00000  Uiso   1.00
C149   C     0.83317   0.16519   0.83311   0.00000  Uiso   1.00
C150   C     0.82422   0.09300   0.75470   0.00000  Uiso   1.00
C151   C     0.80840   0.94280   0.65399   0.00000  Uiso   1.00
C152   C     0.84800   0.43849   0.70735   0.00000  Uiso   1.00
C153   C     0.82713   0.50544   0.76514   0.00000  Uiso   1.00
C154   C     0.80823   0.59454   0.72933   0.00000  Uiso   1.00
C155   C     0.79091   0.64477   0.79382   0.00000  Uiso   1.00
C156   C     0.87987   0.44877   0.76460   0.00000  Uiso   1.00
C157   C     0.90531   0.49019   0.72832   0.00000  Uiso   1.00
C158   C     0.93240   0.49270   0.79234   0.00000  Uiso   1.00
C159   C     0.83896   0.31383   0.71442   0.00000  Uiso   1.00
C160   C     0.83002   0.24179   0.63595   0.00000  Uiso   1.00
C161   C     0.82267   0.13067   0.65773   0.00000  Uiso   1.00
H162   H     0.85205   0.34000   0.96091   0.00000  Uiso   1.00
H163   H     0.81259   0.48884   0.00140   0.00000  Uiso   1.00
H164   H     0.90966   0.38449   0.00038   0.00000  Uiso   1.00
H165   H     0.83437   0.13613   0.90803   0.00000  Uiso   1.00
H166   H     0.76816   0.67047   0.00361   0.00000  Uiso   1.00
H167   H     0.97283   0.45041   0.00146   0.00000  Uiso   1.00
H168   H     0.81408   0.92668   0.80671   0.00000  Uiso   1.00
H169   H     0.84679   0.46776   0.63198   0.00000  Uiso   1.00
H170   H     0.80704   0.62362   0.65442   0.00000  Uiso   1.00
H171   H     0.90411   0.51927   0.65341   0.00000  Uiso   1.00
H172   H     0.82882   0.27091   0.56106   0.00000  Uiso   1.00
H173   H     0.76366   0.77986   0.72200   0.00000  Uiso   1.00
H174   H     0.96833   0.55980   0.71984   0.00000  Uiso   1.00
H175   H     0.80958   0.03608   0.52510   0.00000  Uiso   1.00
O176   O     0.73986   0.82541   0.88351   0.00000  Uiso   1.00
O177   O     0.00838   0.53669   0.88068   0.00000  Uiso   1.00
O178   O     0.80010   0.84957   0.62518   0.00000  Uiso   1.00
N179   N     0.77255   0.67481   0.93425   0.00000  Uiso   1.00
N180   N     0.96391   0.46909   0.93224   0.00000  Uiso   1.00
N181   N     0.81550   0.97944   0.75017   0.00000  Uiso   1.00
N182   N     0.77013   0.73367   0.78271   0.00000  Uiso   1.00
N183   N     0.96148   0.52795   0.78070   0.00000  Uiso   1.00
N184   N     0.81307   0.03830   0.59863   0.00000  Uiso   1.00
C185   C     0.35085   0.13073   0.38555   0.00000  Uiso   1.00
C186   C     0.32867   0.03215   0.36193   0.00000  Uiso   1.00
C187   C     0.31138   0.98205   0.42649   0.00000  Uiso   1.00
C188   C     0.29247   0.89289   0.39079   0.00000  Uiso   1.00
C189   C     0.25828   0.74551   0.36886   0.00000  Uiso   1.00
C190   C     0.38141   0.08883   0.36139   0.00000  Uiso   1.00
C191   C     0.40847   0.08640   0.42548   0.00000  Uiso   1.00
C192   C     0.43395   0.04497   0.38931   0.00000  Uiso   1.00
C193   C     0.48165   0.98566   0.36651   0.00000  Uiso   1.00
C194   C     0.34051   0.22377   0.31121   0.00000  Uiso   1.00
C195   C     0.33317   0.33481   0.33311   0.00000  Uiso   1.00
C196   C     0.32422   0.40700   0.25470   0.00000  Uiso   1.00
C197   C     0.30840   0.55720   0.15399   0.00000  Uiso   1.00
C198   C     0.34800   0.06151   0.20735   0.00000  Uiso   1.00
C199   C     0.32713   0.99456   0.26514   0.00000  Uiso   1.00
C200   C     0.30823   0.90546   0.22933   0.00000  Uiso   1.00
C201   C     0.29091   0.85523   0.29382   0.00000  Uiso   1.00
C202   C     0.37987   0.05123   0.26460   0.00000  Uiso   1.00
C203   C     0.40531   0.00981   0.22832   0.00000  Uiso   1.00
C204   C     0.43240   0.00730   0.29234   0.00000  Uiso   1.00
C205   C     0.33896   0.18617   0.21442   0.00000  Uiso   1.00
C206   C     0.33002   0.25821   0.13595   0.00000  Uiso   1.00
C207   C     0.32267   0.36933   0.15773   0.00000  Uiso   1.00
H208   H     0.35205   0.16000   0.46091   0.00000  Uiso   1.00
H209   H     0.31259   0.01116   0.50140   0.00000  Uiso   1.00
H210   H     0.40966   0.11551   0.50038   0.00000  Uiso   1.00
H211   H     0.33437   0.36387   0.40803   0.00000  Uiso   1.00
H212   H     0.26816   0.82953   0.50361   0.00000  Uiso   1.00
H213   H     0.47283   0.04959   0.50146   0.00000  Uiso   1.00
H214   H     0.31408   0.57332   0.30671   0.00000  Uiso   1.00
H215   H     0.34679   0.03224   0.13198   0.00000  Uiso   1.00
H216   H     0.30704   0.87638   0.15442   0.00000  Uiso   1.00
H217   H     0.40411   0.98073   0.15341   0.00000  Uiso   1.00
H218   H     0.32882   0.22909   0.06106   0.00000  Uiso   1.00
H219   H     0.26366   0.72014   0.22200   0.00000  Uiso   1.00
H220   H     0.46833   0.94020   0.21984   0.00000  Uiso   1.00
H221   H     0.30958   0.46392   0.02510   0.00000  Uiso   1.00
O222   O     0.23986   0.67459   0.38351   0.00000  Uiso   1.00
O223   O     0.50838   0.96331   0.38068   0.00000  Uiso   1.00
O224   O     0.30010   0.65043   0.12518   0.00000  Uiso   1.00
N225   N     0.27255   0.82519   0.43425   0.00000  Uiso   1.00
N226   N     0.46391   0.03091   0.43224   0.00000  Uiso   1.00
N227   N     0.31550   0.52056   0.25017   0.00000  Uiso   1.00
N228   N     0.27013   0.76633   0.28271   0.00000  Uiso   1.00
N229   N     0.46148   0.97205   0.28070   0.00000  Uiso   1.00
N230   N     0.31307   0.46170   0.09863   0.00000  Uiso   1.00
C231   C     0.85085   0.63073   0.38555   0.00000  Uiso   1.00
C232   C     0.82867   0.53215   0.36193   0.00000  Uiso   1.00
C233   C     0.81138   0.48205   0.42649   0.00000  Uiso   1.00
C234   C     0.79247   0.39289   0.39079   0.00000  Uiso   1.00
C235   C     0.75828   0.24551   0.36886   0.00000  Uiso   1.00
C236   C     0.88141   0.58883   0.36139   0.00000  Uiso   1.00
C237   C     0.90847   0.58640   0.42548   0.00000  Uiso   1.00
C238   C     0.93395   0.54497   0.38931   0.00000  Uiso   1.00
C239   C     0.98165   0.48566   0.36651   0.00000  Uiso   1.00
C240   C     0.84051   0.72377   0.31121   0.00000  Uiso   1.00
C241   C     0.83317   0.83481   0.33311   0.00000  Uiso   1.00
C242   C     0.82422   0.90700   0.25470   0.00000  Uiso   1.00
C243   C     0.80840   0.05720   0.15399   0.00000  Uiso   1.00
C244   C     0.84800   0.56151   0.20735   0.00000  Uiso   1.00
C245   C     0.82713   0.49456   0.26514   0.00000  Uiso   1.00
C246   C     0.80823   0.40546   0.22933   0.00000  Uiso   1.00
C247   C     0.79091   0.35523   0.29382   0.00000  Uiso   1.00
C248   C     0.87987   0.55123   0.26460   0.00000  Uiso   1.00
C249   C     0.90531   0.50981   0.22832   0.00000  Uiso   1.00
C250   C     0.93240   0.50730   0.29234   0.00000  Uiso   1.00
C251   C     0.83896   0.68617   0.21442   0.00000  Uiso   1.00
C252   C     0.83002   0.75821   0.13595   0.00000  Uiso   1.00
C253   C     0.82267   0.86933   0.15773   0.00000  Uiso   1.00
H254   H     0.85205   0.66000   0.46091   0.00000  Uiso   1.00
H255   H     0.81259   0.51116   0.50140   0.00000  Uiso   1.00
H256   H     0.90966   0.61551   0.50038   0.00000  Uiso   1.00
H257   H     0.83437   0.86387   0.40803   0.00000  Uiso   1.00
H258   H     0.76816   0.32953   0.50361   0.00000  Uiso   1.00
H259   H     0.97283   0.54959   0.50146   0.00000  Uiso   1.00
H260   H     0.81408   0.07332   0.30671   0.00000  Uiso   1.00
H261   H     0.84679   0.53224   0.13198   0.00000  Uiso   1.00
H262   H     0.80704   0.37638   0.15442   0.00000  Uiso   1.00
H263   H     0.90411   0.48073   0.15341   0.00000  Uiso   1.00
H264   H     0.82882   0.72909   0.06106   0.00000  Uiso   1.00
H265   H     0.76366   0.22014   0.22200   0.00000  Uiso   1.00
H266   H     0.96833   0.44020   0.21984   0.00000  Uiso   1.00
H267   H     0.80958   0.96392   0.02510   0.00000  Uiso   1.00
O268   O     0.73986   0.17459   0.38351   0.00000  Uiso   1.00
O269   O     0.00838   0.46331   0.38068   0.00000  Uiso   1.00
O270   O     0.80010   0.15043   0.12518   0.00000  Uiso   1.00
N271   N     0.77255   0.32519   0.43425   0.00000  Uiso   1.00
N272   N     0.96391   0.53091   0.43224   0.00000  Uiso   1.00
N273   N     0.81550   0.02056   0.25017   0.00000  Uiso   1.00
N274   N     0.77013   0.26633   0.28271   0.00000  Uiso   1.00
N275   N     0.96148   0.47205   0.28070   0.00000  Uiso   1.00
N276   N     0.81307   0.96170   0.09863   0.00000  Uiso   1.00
C277   C     0.64915   0.13073   0.11445   0.00000  Uiso   1.00
C278   C     0.67133   0.03215   0.13807   0.00000  Uiso   1.00
C279   C     0.68862   0.98205   0.07351   0.00000  Uiso   1.00
C280   C     0.70753   0.89289   0.10921   0.00000  Uiso   1.00
C281   C     0.74172   0.74551   0.13114   0.00000  Uiso   1.00
C282   C     0.61859   0.08883   0.13861   0.00000  Uiso   1.00
C283   C     0.59153   0.08640   0.07452   0.00000  Uiso   1.00
C284   C     0.56605   0.04497   0.11069   0.00000  Uiso   1.00
C285   C     0.51835   0.98566   0.13349   0.00000  Uiso   1.00
C286   C     0.65949   0.22377   0.18879   0.00000  Uiso   1.00
C287   C     0.66683   0.33481   0.16689   0.00000  Uiso   1.00
C288   C     0.67578   0.40700   0.24530   0.00000  Uiso   1.00
C289   C     0.69160   0.55720   0.34601   0.00000  Uiso   1.00
C290   C     0.65200   0.06151   0.29265   0.00000  Uiso   1.00
C291   C     0.67287   0.99456   0.23486   0.00000  Uiso   1.00
C292   C     0.69177   0.90546   0.27067   0.00000  Uiso   1.00
C293   C     0.70909   0.85523   0.20618   0.00000  Uiso   1.00
C294   C     0.62013   0.05123   0.23540   0.00000  Uiso   1.00
C295   C     0.59469   0.00981   0.27168   0.00000  Uiso   1.00
C296   C     0.56760   0.00730   0.20766   0.00000  Uiso   1.00
C297   C     0.66104   0.18617   0.28558   0.00000  Uiso   1.00
C298   C     0.66998   0.25821   0.36405   0.00000  Uiso   1.00
C299   C     0.67733   0.36933   0.34227   0.00000  Uiso   1.00
H300   H     0.64795   0.16000   0.03909   0.00000  Uiso   1.00
H301   H     0.68741   0.01116   0.99860   0.00000  Uiso   1.00
H302   H     0.59034   0.11551   0.99962   0.00000  Uiso   1.00
H303   H     0.66563   0.36387   0.09197   0.00000  Uiso   1.00
H304   H     0.73184   0.82953   0.99639   0.00000  Uiso   1.00
H305   H     0.52717   0.04959   0.99854   0.00000  Uiso   1.00
H306   H     0.68592   0.57332   0.19329   0.00000  Uiso   1.00
H307   H     0.65321   0.03224   0.36802   0.00000  Uiso   1.00
H308   H     0.69296   0.87638   0.34558   0.00000  Uiso   1.00
H309   H     0.59589   0.98073   0.34659   0.00000  Uiso   1.00
H310   H     0.67118   0.22909   0.43894   0.00000  Uiso   1.00
H311   H     0.73634   0.72014   0.27800   0.00000  Uiso   1.00
H312   H     0.53167   0.94020   0.28016   0.00000  Uiso   1.00
H313   H     0.69042   0.46392   0.47490   0.00000  Uiso   1.00
O314   O     0.76014   0.67459   0.11649   0.00000  Uiso   1.00
O315   O     0.49162   0.96331   0.11932   0.00000  Uiso   1.00
O316   O     0.69990   0.65043   0.37482   0.00000  Uiso   1.00
N317   N     0.72745   0.82519   0.06575   0.00000  Uiso   1.00
N318   N     0.53609   0.03091   0.06776   0.00000  Uiso   1.00
N319   N     0.68450   0.52056   0.24983   0.00000  Uiso   1.00
N320   N     0.72987   0.76633   0.21729   0.00000  Uiso   1.00
N321   N     0.53852   0.97205   0.21930   0.00000  Uiso   1.00
N322   N     0.68693   0.46170   0.40137   0.00000  Uiso   1.00
C323   C     0.14915   0.63073   0.11445   0.00000  Uiso   1.00
C324   C     0.17133   0.53215   0.13807   0.00000  Uiso   1.00
C325   C     0.18862   0.48205   0.07351   0.00000  Uiso   1.00
C326   C     0.20753   0.39289   0.10921   0.00000  Uiso   1.00
C327   C     0.24172   0.24551   0.13114   0.00000  Uiso   1.00
C328   C     0.11859   0.58883   0.13861   0.00000  Uiso   1.00
C329   C     0.09153   0.58640   0.07452   0.00000  Uiso   1.00
C330   C     0.06605   0.54497   0.11069   0.00000  Uiso   1.00
C331   C     0.01835   0.48566   0.13349   0.00000  Uiso   1.00
C332   C     0.15949   0.72377   0.18879   0.00000  Uiso   1.00
C333   C     0.16683   0.83481   0.16689   0.00000  Uiso   1.00
C334   C     0.17578   0.90700   0.24530   0.00000  Uiso   1.00
C335   C     0.19160   0.05720   0.34601   0.00000  Uiso   1.00
C336   C     0.15200   0.56151   0.29265   0.00000  Uiso   1.00
C337   C     0.17287   0.49456   0.23486   0.00000  Uiso   1.00
C338   C     0.19177   0.40546   0.27067   0.00000  Uiso   1.00
C339   C     0.20909   0.35523   0.20618   0.00000  Uiso   1.00
C340   C     0.12013   0.55123   0.23540   0.00000  Uiso   1.00
C341   C     0.09469   0.50981   0.27168   0.00000  Uiso   1.00
C342   C     0.06760   0.50730   0.20766   0.00000  Uiso   1.00
C343   C     0.16104   0.68617   0.28558   0.00000  Uiso   1.00
C344   C     0.16998   0.75821   0.36405   0.00000  Uiso   1.00
C345   C     0.17733   0.86933   0.34227   0.00000  Uiso   1.00
H346   H     0.14795   0.66000   0.03909   0.00000  Uiso   1.00
H347   H     0.18741   0.51116   0.99860   0.00000  Uiso   1.00
H348   H     0.09034   0.61551   0.99962   0.00000  Uiso   1.00
H349   H     0.16563   0.86387   0.09197   0.00000  Uiso   1.00
H350   H     0.23184   0.32953   0.99639   0.00000  Uiso   1.00
H351   H     0.02717   0.54959   0.99854   0.00000  Uiso   1.00
H352   H     0.18592   0.07332   0.19329   0.00000  Uiso   1.00
H353   H     0.15321   0.53224   0.36802   0.00000  Uiso   1.00
H354   H     0.19296   0.37638   0.34558   0.00000  Uiso   1.00
H355   H     0.09589   0.48073   0.34659   0.00000  Uiso   1.00
H356   H     0.17118   0.72909   0.43894   0.00000  Uiso   1.00
H357   H     0.23634   0.22014   0.27800   0.00000  Uiso   1.00
H358   H     0.03167   0.44020   0.28016   0.00000  Uiso   1.00
H359   H     0.19042   0.96392   0.47490   0.00000  Uiso   1.00
O360   O     0.26014   0.17459   0.11649   0.00000  Uiso   1.00
O361   O     0.99162   0.46331   0.11932   0.00000  Uiso   1.00
O362   O     0.19990   0.15043   0.37482   0.00000  Uiso   1.00
N363   N     0.22745   0.32519   0.06575   0.00000  Uiso   1.00
N364   N     0.03609   0.53091   0.06776   0.00000  Uiso   1.00
N365   N     0.18450   0.02056   0.24983   0.00000  Uiso   1.00
N366   N     0.22987   0.26633   0.21729   0.00000  Uiso   1.00
N367   N     0.03852   0.47205   0.21930   0.00000  Uiso   1.00
N368   N     0.18693   0.96170   0.40137   0.00000  Uiso   1.00
