data_job_06619
_audit_creation_date              2018-12-19
_audit_creation_method            'Materials Studio'
_symmetry_space_group_name_H-M    'P1'
_symmetry_Int_Tables_number       1
_symmetry_cell_setting            triclinic
loop_
_symmetry_equiv_pos_as_xyz
  x,y,z
_cell_length_a                    19.9318
_cell_length_b                    21.6867
_cell_length_c                    22.2962
_cell_angle_alpha                 115.4007
_cell_angle_beta                  63.7970
_cell_angle_gamma                 108.7800
loop_
_atom_site_label
_atom_site_type_symbol
_atom_site_fract_x
_atom_site_fract_y
_atom_site_fract_z
_atom_site_U_iso_or_equiv
_atom_site_adp_type
_atom_site_occupancy
C1     C     0.84886   0.71983   0.30181   0.00000  Uiso   1.00
C2     C     0.81598   0.77871   0.36868   0.00000  Uiso   1.00
C3     C     0.84589   0.81671   0.42219   0.00000  Uiso   1.00
C4     C     0.80741   0.86843   0.47900   0.00000  Uiso   1.00
C5     C     0.76638   0.95782   0.58237   0.00000  Uiso   1.00
C6     C     0.78556   0.65738   0.30125   0.00000  Uiso   1.00
C7     C     0.78990   0.59337   0.29804   0.00000  Uiso   1.00
C8     C     0.72582   0.54295   0.29808   0.00000  Uiso   1.00
C9     C     0.63758   0.44396   0.29671   0.00000  Uiso   1.00
C10    C     0.86175   0.74002   0.23946   0.00000  Uiso   1.00
C11    C     0.93015   0.74549   0.18428   0.00000  Uiso   1.00
C12    C     0.93021   0.76463   0.13228   0.00000  Uiso   1.00
C13    C     0.96028   0.79396   0.03496   0.00000  Uiso   1.00
C14    C     0.72734   0.74409   0.30757   0.00000  Uiso   1.00
C15    C     0.74997   0.79188   0.37181   0.00000  Uiso   1.00
C16    C     0.71144   0.84355   0.42856   0.00000  Uiso   1.00
C17    C     0.74129   0.88163   0.48213   0.00000  Uiso   1.00
C18    C     0.71956   0.67055   0.30438   0.00000  Uiso   1.00
C19    C     0.65545   0.62021   0.30441   0.00000  Uiso   1.00
C20    C     0.65969   0.55615   0.30121   0.00000  Uiso   1.00
C21    C     0.79575   0.75320   0.24258   0.00000  Uiso   1.00
C22    C     0.79570   0.77233   0.19065   0.00000  Uiso   1.00
C23    C     0.86409   0.77783   0.13541   0.00000  Uiso   1.00
H24    H     0.90024   0.70957   0.29938   0.00000  Uiso   1.00
H25    H     0.89697   0.80650   0.41975   0.00000  Uiso   1.00
H26    H     0.84099   0.58319   0.29562   0.00000  Uiso   1.00
H27    H     0.98122   0.73529   0.18188   0.00000  Uiso   1.00
H28    H     0.86421   0.91975   0.55460   0.00000  Uiso   1.00
H29    H     0.74619   0.44889   0.29284   0.00000  Uiso   1.00
H30    H     0.04189   0.76961   0.05298   0.00000  Uiso   1.00
H31    H     0.67595   0.75434   0.31000   0.00000  Uiso   1.00
H32    H     0.66037   0.85373   0.43096   0.00000  Uiso   1.00
H33    H     0.60439   0.63042   0.30683   0.00000  Uiso   1.00
H34    H     0.74462   0.78252   0.19309   0.00000  Uiso   1.00
H35    H     0.67217   0.95809   0.56370   0.00000  Uiso   1.00
H36    H     0.55415   0.48722   0.30193   0.00000  Uiso   1.00
H37    H     0.84985   0.80795   0.06208   0.00000  Uiso   1.00
O38    O     0.76197   0.00348   0.63853   0.00000  Uiso   1.00
O39    O     0.60714   0.38572   0.29510   0.00000  Uiso   1.00
O40    O     0.99509   0.80651   0.98043   0.00000  Uiso   1.00
N41    N     0.82116   0.91515   0.54013   0.00000  Uiso   1.00
N42    N     0.71081   0.47492   0.29541   0.00000  Uiso   1.00
N43    N     0.98726   0.77475   0.07116   0.00000  Uiso   1.00
N44    N     0.71783   0.93577   0.54503   0.00000  Uiso   1.00
N45    N     0.60748   0.49555   0.30031   0.00000  Uiso   1.00
N46    N     0.88393   0.79538   0.07606   0.00000  Uiso   1.00
C47    C     0.43623   0.57775   0.93783   0.00000  Uiso   1.00
C48    C     0.50880   0.59808   0.88146   0.00000  Uiso   1.00
C49    C     0.54153   0.55460   0.81301   0.00000  Uiso   1.00
C50    C     0.60793   0.58306   0.76951   0.00000  Uiso   1.00
C51    C     0.71570   0.60405   0.67832   0.00000  Uiso   1.00
C52    C     0.45739   0.59515   0.00186   0.00000  Uiso   1.00
C53    C     0.44689   0.54922   0.03465   0.00000  Uiso   1.00
C54    C     0.47001   0.57522   0.09250   0.00000  Uiso   1.00
C55    C     0.49791   0.59168   0.18827   0.00000  Uiso   1.00
C56    C     0.38344   0.62765   0.96063   0.00000  Uiso   1.00
C57    C     0.31075   0.60904   0.95878   0.00000  Uiso   1.00
C58    C     0.27160   0.66240   0.98194   0.00000  Uiso   1.00
C59    C     0.18468   0.72931   0.01369   0.00000  Uiso   1.00
C60    C     0.49596   0.70562   0.98227   0.00000  Uiso   1.00
C61    C     0.54124   0.66753   0.90560   0.00000  Uiso   1.00
C62    C     0.60761   0.69607   0.86219   0.00000  Uiso   1.00
C63    C     0.64043   0.65264   0.79369   0.00000  Uiso   1.00
C64    C     0.48984   0.66460   0.02600   0.00000  Uiso   1.00
C65    C     0.51297   0.69068   0.08382   0.00000  Uiso   1.00
C66    C     0.50251   0.64480   0.11669   0.00000  Uiso   1.00
C67    C     0.41589   0.69710   0.98477   0.00000  Uiso   1.00
C68    C     0.37684   0.75050   0.00795   0.00000  Uiso   1.00
C69    C     0.30410   0.73198   0.00612   0.00000  Uiso   1.00
H70    H     0.41098   0.52368   0.91904   0.00000  Uiso   1.00
H71    H     0.51641   0.50085   0.79435   0.00000  Uiso   1.00
H72    H     0.42177   0.49548   0.01596   0.00000  Uiso   1.00
H73    H     0.28566   0.55529   0.94009   0.00000  Uiso   1.00
H74    H     0.64762   0.50617   0.66677   0.00000  Uiso   1.00
H75    H     0.44806   0.49483   0.13405   0.00000  Uiso   1.00
H76    H     0.16103   0.62095   0.97408   0.00000  Uiso   1.00
H77    H     0.52122   0.75969   0.00107   0.00000  Uiso   1.00
H78    H     0.63271   0.74982   0.88088   0.00000  Uiso   1.00
H79    H     0.53807   0.74443   0.10249   0.00000  Uiso   1.00
H80    H     0.40196   0.80424   0.02662   0.00000  Uiso   1.00
H81    H     0.74202   0.70823   0.73700   0.00000  Uiso   1.00
H82    H     0.54245   0.69690   0.20429   0.00000  Uiso   1.00
H83    H     0.25543   0.82302   0.04431   0.00000  Uiso   1.00
O84    O     0.76618   0.59644   0.62135   0.00000  Uiso   1.00
O85    O     0.50434   0.58157   0.23441   0.00000  Uiso   1.00
O86    O     0.12778   0.74703   0.02453   0.00000  Uiso   1.00
N87    N     0.65453   0.55508   0.69979   0.00000  Uiso   1.00
N88    N     0.46796   0.54448   0.13666   0.00000  Uiso   1.00
N89    N     0.19961   0.66239   0.98712   0.00000  Uiso   1.00
N90    N     0.70532   0.66381   0.73758   0.00000  Uiso   1.00
N91    N     0.51875   0.65321   0.17445   0.00000  Uiso   1.00
N92    N     0.25040   0.77112   0.02491   0.00000  Uiso   1.00
C93    C     0.06841   0.22098   0.67553   0.00000  Uiso   1.00
C94    C     0.00860   0.21270   0.64631   0.00000  Uiso   1.00
C95    C     0.94179   0.16535   0.65286   0.00000  Uiso   1.00
C96    C     0.89455   0.16595   0.62241   0.00000  Uiso   1.00
C97    C     0.79882   0.14603   0.58244   0.00000  Uiso   1.00
C98    C     0.14267   0.21224   0.61221   0.00000  Uiso   1.00
C99    C     0.18858   0.16450   0.59011   0.00000  Uiso   1.00
C100   C     0.25420   0.16472   0.53097   0.00000  Uiso   1.00
C101   C     0.36664   0.14413   0.43810   0.00000  Uiso   1.00
C102   C     0.07788   0.29642   0.72302   0.00000  Uiso   1.00
C103   C     0.06933   0.31946   0.79408   0.00000  Uiso   1.00
C104   C     0.08042   0.39056   0.82822   0.00000  Uiso   1.00
C105   C     0.09227   0.50066   0.90739   0.00000  Uiso   1.00
C106   C     0.10332   0.30626   0.60981   0.00000  Uiso   1.00
C107   C     0.02757   0.25903   0.61061   0.00000  Uiso   1.00
C108   C     0.98041   0.25970   0.58015   0.00000  Uiso   1.00
C109   C     0.91354   0.21235   0.58665   0.00000  Uiso   1.00
C110   C     0.16163   0.25856   0.57652   0.00000  Uiso   1.00
C111   C     0.22720   0.25886   0.51740   0.00000  Uiso   1.00
C112   C     0.27320   0.21113   0.49521   0.00000  Uiso   1.00
C113   C     0.09684   0.34274   0.68733   0.00000  Uiso   1.00
C114   C     0.10795   0.41382   0.72137   0.00000  Uiso   1.00
C115   C     0.09942   0.43696   0.79246   0.00000  Uiso   1.00
H116   H     0.05365   0.18491   0.70331   0.00000  Uiso   1.00
H117   H     0.92714   0.12950   0.68048   0.00000  Uiso   1.00
H118   H     0.17390   0.12867   0.61775   0.00000  Uiso   1.00
H119   H     0.05466   0.28360   0.82168   0.00000  Uiso   1.00
H120   H     0.79525   0.08848   0.63940   0.00000  Uiso   1.00
H121   H     0.31556   0.08674   0.50714   0.00000  Uiso   1.00
H122   H     0.06414   0.41345   0.93717   0.00000  Uiso   1.00
H123   H     0.11808   0.34232   0.58202   0.00000  Uiso   1.00
H124   H     0.99510   0.29555   0.55253   0.00000  Uiso   1.00
H125   H     0.24186   0.29472   0.48980   0.00000  Uiso   1.00
H126   H     0.12263   0.44965   0.69373   0.00000  Uiso   1.00
H127   H     0.85041   0.22325   0.53555   0.00000  Uiso   1.00
H128   H     0.37073   0.22151   0.40329   0.00000  Uiso   1.00
H129   H     0.11930   0.54822   0.83332   0.00000  Uiso   1.00
O130   O     0.74078   0.12224   0.57024   0.00000  Uiso   1.00
O131   O     0.42342   0.11996   0.39673   0.00000  Uiso   1.00
O132   O     0.09355   0.54859   0.96093   0.00000  Uiso   1.00
N133   N     0.82510   0.12663   0.61902   0.00000  Uiso   1.00
N134   N     0.31156   0.12499   0.49535   0.00000  Uiso   1.00
N135   N     0.07652   0.43043   0.89740   0.00000  Uiso   1.00
N136   N     0.85479   0.19915   0.56314   0.00000  Uiso   1.00
N137   N     0.34124   0.19751   0.43947   0.00000  Uiso   1.00
N138   N     0.10620   0.50295   0.84152   0.00000  Uiso   1.00
C139   C     0.45436   0.19464   0.04277   0.00000  Uiso   1.00
C140   C     0.51040   0.26226   0.04786   0.00000  Uiso   1.00
C141   C     0.50236   0.32225   0.10677   0.00000  Uiso   1.00
C142   C     0.55988   0.37858   0.10082   0.00000  Uiso   1.00
C143   C     0.63729   0.48412   0.11825   0.00000  Uiso   1.00
C144   C     0.49927   0.13911   0.02250   0.00000  Uiso   1.00
C145   C     0.48187   0.09555   0.06008   0.00000  Uiso   1.00
C146   C     0.53002   0.04821   0.03276   0.00000  Uiso   1.00
C147   C     0.59011   0.96252   0.01080   0.00000  Uiso   1.00
C148   C     0.43322   0.17800   0.97893   0.00000  Uiso   1.00
C149   C     0.36029   0.16713   0.97987   0.00000  Uiso   1.00
C150   C     0.35283   0.15252   0.91587   0.00000  Uiso   1.00
C151   C     0.31038   0.12721   0.82626   0.00000  Uiso   1.00
C152   C     0.57081   0.18801   0.92744   0.00000  Uiso   1.00
C153   C     0.57365   0.25865   0.98521   0.00000  Uiso   1.00
C154   C     0.63120   0.31491   0.97916   0.00000  Uiso   1.00
C155   C     0.62325   0.37498   0.03806   0.00000  Uiso   1.00
C156   C     0.56252   0.13551   0.95985   0.00000  Uiso   1.00
C157   C     0.61070   0.08822   0.93247   0.00000  Uiso   1.00
C158   C     0.59338   0.04460   0.97000   0.00000  Uiso   1.00
C159   C     0.49647   0.17440   0.91628   0.00000  Uiso   1.00
C160   C     0.48913   0.15980   0.85227   0.00000  Uiso   1.00
C161   C     0.41619   0.14891   0.85311   0.00000  Uiso   1.00
H162   H     0.40512   0.19744   0.09155   0.00000  Uiso   1.00
H163   H     0.45341   0.32501   0.15525   0.00000  Uiso   1.00
H164   H     0.43291   0.09835   0.10855   0.00000  Uiso   1.00
H165   H     0.31135   0.16992   0.02836   0.00000  Uiso   1.00
H166   H     0.53485   0.46486   0.19825   0.00000  Uiso   1.00
H167   H     0.49162   0.98690   0.09978   0.00000  Uiso   1.00
H168   H     0.23529   0.13782   0.93068   0.00000  Uiso   1.00
H169   H     0.62006   0.18520   0.87866   0.00000  Uiso   1.00
H170   H     0.68014   0.31211   0.93068   0.00000  Uiso   1.00
H171   H     0.65964   0.08544   0.88399   0.00000  Uiso   1.00
H172   H     0.53809   0.15701   0.80380   0.00000  Uiso   1.00
H173   H     0.71887   0.45438   0.01598   0.00000  Uiso   1.00
H174   H     0.67564   0.97643   0.91752   0.00000  Uiso   1.00
H175   H     0.41931   0.12735   0.74842   0.00000  Uiso   1.00
O176   O     0.66252   0.54332   0.14518   0.00000  Uiso   1.00
O177   O     0.60579   0.91625   0.01599   0.00000  Uiso   1.00
O178   O     0.26949   0.11426   0.79414   0.00000  Uiso   1.00
N179   N     0.56991   0.44498   0.14821   0.00000  Uiso   1.00
N180   N     0.52950   0.99813   0.05616   0.00000  Uiso   1.00
N181   N     0.28984   0.13921   0.89806   0.00000  Uiso   1.00
N182   N     0.66893   0.43935   0.05013   0.00000  Uiso   1.00
N183   N     0.62852   0.99249   0.95808   0.00000  Uiso   1.00
N184   N     0.38887   0.13357   0.79998   0.00000  Uiso   1.00
C185   C     0.84237   0.08416   0.19293   0.00000  Uiso   1.00
C186   C     0.75720   0.07431   0.21110   0.00000  Uiso   1.00
C187   C     0.71814   0.03102   0.16560   0.00000  Uiso   1.00
C188   C     0.64033   0.02928   0.19229   0.00000  Uiso   1.00
C189   C     0.51375   0.00784   0.20991   0.00000  Uiso   1.00
C190   C     0.85179   0.06730   0.24825   0.00000  Uiso   1.00
C191   C     0.89228   0.01813   0.23399   0.00000  Uiso   1.00
C192   C     0.89409   0.01050   0.29195   0.00000  Uiso   1.00
C193   C     0.91441   0.97822   0.36724   0.00000  Uiso   1.00
C194   C     0.87102   0.16150   0.20738   0.00000  Uiso   1.00
C195   C     0.92770   0.19154   0.15876   0.00000  Uiso   1.00
C196   C     0.94572   0.26321   0.18232   0.00000  Uiso   1.00
C197   C     0.99590   0.37720   0.19415   0.00000  Uiso   1.00
C198   C     0.77362   0.15804   0.32123   0.00000  Uiso   1.00
C199   C     0.71985   0.11444   0.28078   0.00000  Uiso   1.00
C200   C     0.64208   0.11276   0.30755   0.00000  Uiso   1.00
C201   C     0.60292   0.06948   0.26210   0.00000  Uiso   1.00
C202   C     0.81445   0.10743   0.31793   0.00000  Uiso   1.00
C203   C     0.81621   0.09987   0.37593   0.00000  Uiso   1.00
C204   C     0.85669   0.05070   0.36176   0.00000  Uiso   1.00
C205   C     0.83368   0.20163   0.27706   0.00000  Uiso   1.00
C206   C     0.85162   0.27328   0.30070   0.00000  Uiso   1.00
C207   C     0.90831   0.30341   0.25213   0.00000  Uiso   1.00
H208   H     0.87145   0.05292   0.13868   0.00000  Uiso   1.00
H209   H     0.74706   0.99997   0.11168   0.00000  Uiso   1.00
H210   H     0.92117   0.98709   0.18006   0.00000  Uiso   1.00
H211   H     0.95658   0.16047   0.10484   0.00000  Uiso   1.00
H212   H     0.59269   0.95894   0.11248   0.00000  Uiso   1.00
H213   H     0.95983   0.93180   0.25665   0.00000  Uiso   1.00
H214   H     0.03450   0.29740   0.09804   0.00000  Uiso   1.00
H215   H     0.74455   0.18929   0.37549   0.00000  Uiso   1.00
H216   H     0.61320   0.14382   0.36148   0.00000  Uiso   1.00
H217   H     0.78731   0.13094   0.42985   0.00000  Uiso   1.00
H218   H     0.82272   0.30431   0.35463   0.00000  Uiso   1.00
H219   H     0.48403   0.07569   0.31523   0.00000  Uiso   1.00
H220   H     0.85118   0.04855   0.45940   0.00000  Uiso   1.00
H221   H     0.92585   0.41415   0.30079   0.00000  Uiso   1.00
O222   O     0.45424   0.98493   0.20037   0.00000  Uiso   1.00
O223   O     0.93593   0.94933   0.38952   0.00000  Uiso   1.00
O224   O     0.03389   0.42898   0.18142   0.00000  Uiso   1.00
N225   N     0.58514   0.99267   0.16212   0.00000  Uiso   1.00
N226   N     0.92839   0.96728   0.29691   0.00000  Uiso   1.00
N227   N     0.99821   0.30909   0.14862   0.00000  Uiso   1.00
N228   N     0.52668   0.05549   0.27121   0.00000  Uiso   1.00
N229   N     0.86993   0.03011   0.40600   0.00000  Uiso   1.00
N230   N     0.93975   0.37191   0.25772   0.00000  Uiso   1.00
C231   C     0.23014   0.81212   0.51896   0.00000  Uiso   1.00
C232   C     0.25195   0.80962   0.44332   0.00000  Uiso   1.00
C233   C     0.32500   0.81272   0.39375   0.00000  Uiso   1.00
C234   C     0.33311   0.80963   0.32744   0.00000  Uiso   1.00
C235   C     0.37651   0.80662   0.21242   0.00000  Uiso   1.00
C236   C     0.17285   0.74679   0.52587   0.00000  Uiso   1.00
C237   C     0.17940   0.69706   0.54570   0.00000  Uiso   1.00
C238   C     0.12090   0.64108   0.54888   0.00000  Uiso   1.00
C239   C     0.04148   0.54054   0.56207   0.00000  Uiso   1.00
C240   C     0.18646   0.87241   0.56741   0.00000  Uiso   1.00
C241   C     0.20443   0.92831   0.62219   0.00000  Uiso   1.00
C242   C     0.15738   0.97809   0.66036   0.00000  Uiso   1.00
C243   C     0.09908   0.07260   0.73805   0.00000  Uiso   1.00
C244   C     0.11462   0.80112   0.48936   0.00000  Uiso   1.00
C245   C     0.18920   0.80364   0.42724   0.00000  Uiso   1.00
C246   C     0.19719   0.80055   0.36099   0.00000  Uiso   1.00
C247   C     0.27025   0.80364   0.31133   0.00000  Uiso   1.00
C248   C     0.11011   0.74081   0.50979   0.00000  Uiso   1.00
C249   C     0.05159   0.68489   0.51294   0.00000  Uiso   1.00
C250   C     0.05804   0.63509   0.53277   0.00000  Uiso   1.00
C251   C     0.12371   0.86644   0.55133   0.00000  Uiso   1.00
C252   C     0.07662   0.91614   0.58943   0.00000  Uiso   1.00
C253   C     0.09452   0.97210   0.64425   0.00000  Uiso   1.00
H254   H     0.27899   0.81677   0.53149   0.00000  Uiso   1.00
H255   H     0.37355   0.81734   0.40621   0.00000  Uiso   1.00
H256   H     0.22796   0.70171   0.55815   0.00000  Uiso   1.00
H257   H     0.25299   0.93292   0.63462   0.00000  Uiso   1.00
H258   H     0.45071   0.81531   0.26022   0.00000  Uiso   1.00
H259   H     0.14371   0.57150   0.58061   0.00000  Uiso   1.00
H260   H     0.19649   0.05905   0.74187   0.00000  Uiso   1.00
H261   H     0.06577   0.79647   0.47684   0.00000  Uiso   1.00
H262   H     0.14863   0.79592   0.34856   0.00000  Uiso   1.00
H263   H     0.00304   0.68028   0.50050   0.00000  Uiso   1.00
H264   H     0.02807   0.91149   0.57697   0.00000  Uiso   1.00
H265   H     0.26816   0.79792   0.21343   0.00000  Uiso   1.00
H266   H     0.96116   0.55411   0.53382   0.00000  Uiso   1.00
H267   H     0.01394   0.04166   0.69508   0.00000  Uiso   1.00
O268   O     0.41778   0.80660   0.15342   0.00000  Uiso   1.00
O269   O     0.01501   0.48674   0.57377   0.00000  Uiso   1.00
O270   O     0.08426   0.12639   0.78533   0.00000  Uiso   1.00
N271   N     0.39637   0.81130   0.26682   0.00000  Uiso   1.00
N272   N     0.10936   0.58335   0.56635   0.00000  Uiso   1.00
N273   N     0.15869   0.03916   0.71713   0.00000  Uiso   1.00
N274   N     0.29814   0.80195   0.24164   0.00000  Uiso   1.00
N275   N     0.01113   0.57400   0.54117   0.00000  Uiso   1.00
N276   N     0.06046   0.02980   0.69195   0.00000  Uiso   1.00
C277   C     0.47749   0.06710   0.50679   0.00000  Uiso   1.00
C278   C     0.52810   0.02106   0.43832   0.00000  Uiso   1.00
C279   C     0.51103   0.98179   0.37719   0.00000  Uiso   1.00
C280   C     0.56482   0.94316   0.32021   0.00000  Uiso   1.00
C281   C     0.63302   0.87161   0.21327   0.00000  Uiso   1.00
C282   C     0.52486   0.13915   0.52173   0.00000  Uiso   1.00
C283   C     0.50507   0.19916   0.53074   0.00000  Uiso   1.00
C284   C     0.55614   0.25993   0.54399   0.00000  Uiso   1.00
C285   C     0.61928   0.37171   0.56659   0.00000  Uiso   1.00
C286   C     0.46576   0.04191   0.56546   0.00000  Uiso   1.00
C287   C     0.39629   0.02019   0.61125   0.00000  Uiso   1.00
C288   C     0.39759   0.99911   0.66133   0.00000  Uiso   1.00
C289   C     0.36898   0.95992   0.75184   0.00000  Uiso   1.00
C290   C     0.60335   0.06831   0.51432   0.00000  Uiso   1.00
C291   C     0.59646   0.02173   0.44241   0.00000  Uiso   1.00
C292   C     0.65028   0.98314   0.38552   0.00000  Uiso   1.00
C293   C     0.63330   0.94382   0.32431   0.00000  Uiso   1.00
C294   C     0.59322   0.13981   0.52582   0.00000  Uiso   1.00
C295   C     0.64432   0.20050   0.53907   0.00000  Uiso   1.00
C296   C     0.62462   0.26059   0.54809   0.00000  Uiso   1.00
C297   C     0.53413   0.04257   0.56955   0.00000  Uiso   1.00
C298   C     0.53554   0.02153   0.61958   0.00000  Uiso   1.00
C299   C     0.46608   0.99977   0.66543   0.00000  Uiso   1.00
H300   H     0.42427   0.06659   0.50360   0.00000  Uiso   1.00
H301   H     0.45813   0.98130   0.37404   0.00000  Uiso   1.00
H302   H     0.45217   0.19864   0.52757   0.00000  Uiso   1.00
H303   H     0.34340   0.01969   0.60807   0.00000  Uiso   1.00
H304   H     0.52582   0.88706   0.23219   0.00000  Uiso   1.00
H305   H     0.51324   0.34532   0.55595   0.00000  Uiso   1.00
H306   H     0.28388   0.96798   0.72570   0.00000  Uiso   1.00
H307   H     0.65657   0.06883   0.51750   0.00000  Uiso   1.00
H308   H     0.70318   0.98366   0.38870   0.00000  Uiso   1.00
H309   H     0.69722   0.20099   0.54224   0.00000  Uiso   1.00
H310   H     0.58845   0.02205   0.62273   0.00000  Uiso   1.00
H311   H     0.72472   0.88897   0.24409   0.00000  Uiso   1.00
H312   H     0.71213   0.34724   0.56785   0.00000  Uiso   1.00
H313   H     0.48277   0.96989   0.73760   0.00000  Uiso   1.00
O314   O     0.65175   0.83197   0.15315   0.00000  Uiso   1.00
O315   O     0.63523   0.43319   0.57793   0.00000  Uiso   1.00
O316   O     0.33432   0.93812   0.80062   0.00000  Uiso   1.00
N317   N     0.56623   0.89919   0.25267   0.00000  Uiso   1.00
N318   N     0.55447   0.32763   0.55536   0.00000  Uiso   1.00
N319   N     0.34004   0.97486   0.71407   0.00000  Uiso   1.00
N320   N     0.67326   0.90022   0.25907   0.00000  Uiso   1.00
N321   N     0.66150   0.32866   0.56176   0.00000  Uiso   1.00
N322   N     0.44706   0.97589   0.72047   0.00000  Uiso   1.00
C323   C     0.87885   0.36310   0.02721   0.00000  Uiso   1.00
C324   C     0.81605   0.31085   0.05829   0.00000  Uiso   1.00
C325   C     0.75932   0.32652   0.12476   0.00000  Uiso   1.00
C326   C     0.70718   0.27136   0.14336   0.00000  Uiso   1.00
C327   C     0.60897   0.20063   0.19865   0.00000  Uiso   1.00
C328   C     0.87292   0.35099   0.95699   0.00000  Uiso   1.00
C329   C     0.86401   0.40042   0.93827   0.00000  Uiso   1.00
C330   C     0.85975   0.37905   0.87159   0.00000  Uiso   1.00
C331   C     0.84987   0.37065   0.76957   0.00000  Uiso   1.00
C332   C     0.95326   0.34123   0.00799   0.00000  Uiso   1.00
C333   C     0.01191   0.38245   0.03215   0.00000  Uiso   1.00
C334   C     0.07530   0.35287   0.00839   0.00000  Uiso   1.00
C335   C     0.19016   0.32931   0.98556   0.00000  Uiso   1.00
C336   C     0.88714   0.23727   0.94205   0.00000  Uiso   1.00
C337   C     0.82055   0.24251   0.01203   0.00000  Uiso   1.00
C338   C     0.76849   0.18731   0.03054   0.00000  Uiso   1.00
C339   C     0.71169   0.20289   0.09702   0.00000  Uiso   1.00
C340   C     0.87742   0.28265   0.91073   0.00000  Uiso   1.00
C341   C     0.87317   0.26120   0.84405   0.00000  Uiso   1.00
C342   C     0.86426   0.31058   0.82524   0.00000  Uiso   1.00
C343   C     0.95776   0.27288   0.96173   0.00000  Uiso   1.00
C344   C     0.02107   0.24323   0.93792   0.00000  Uiso   1.00
C345   C     0.07981   0.28440   0.96204   0.00000  Uiso   1.00
H346   H     0.87535   0.41631   0.06322   0.00000  Uiso   1.00
H347   H     0.75585   0.37942   0.16054   0.00000  Uiso   1.00
H348   H     0.86053   0.45331   0.97408   0.00000  Uiso   1.00
H349   H     0.00841   0.43534   0.06794   0.00000  Uiso   1.00
H350   H     0.62534   0.30839   0.24803   0.00000  Uiso   1.00
H351   H     0.84609   0.46418   0.85486   0.00000  Uiso   1.00
H352   H     0.15791   0.42630   0.05278   0.00000  Uiso   1.00
H353   H     0.89064   0.18406   0.90603   0.00000  Uiso   1.00
H354   H     0.77199   0.13442   0.99473   0.00000  Uiso   1.00
H355   H     0.87666   0.20831   0.80827   0.00000  Uiso   1.00
H356   H     0.02454   0.19034   0.90213   0.00000  Uiso   1.00
H357   H     0.63843   0.10953   0.11345   0.00000  Uiso   1.00
H358   H     0.85918   0.26533   0.72027   0.00000  Uiso   1.00
H359   H     0.17100   0.22744   0.91820   0.00000  Uiso   1.00
O360   O     0.55354   0.18050   0.24192   0.00000  Uiso   1.00
O361   O     0.84317   0.38490   0.72608   0.00000  Uiso   1.00
O362   O     0.25226   0.33520   0.98576   0.00000  Uiso   1.00
N363   N     0.64472   0.26840   0.20419   0.00000  Uiso   1.00
N364   N     0.85109   0.41405   0.83660   0.00000  Uiso   1.00
N365   N     0.14262   0.37864   0.02163   0.00000  Uiso   1.00
N366   N     0.65176   0.16139   0.13178   0.00000  Uiso   1.00
N367   N     0.85813   0.30705   0.76418   0.00000  Uiso   1.00
N368   N     0.14967   0.27164   0.94921   0.00000  Uiso   1.00
C369   C     0.14863   0.45506   0.30756   0.00000  Uiso   1.00
C370   C     0.17379   0.45233   0.36168   0.00000  Uiso   1.00
C371   C     0.23910   0.49002   0.37612   0.00000  Uiso   1.00
C372   C     0.25199   0.48024   0.42751   0.00000  Uiso   1.00
C373   C     0.29874   0.48300   0.50615   0.00000  Uiso   1.00
C374   C     0.06935   0.47418   0.34854   0.00000  Uiso   1.00
C375   C     0.04686   0.53023   0.35194   0.00000  Uiso   1.00
C376   C     0.97184   0.53883   0.39226   0.00000  Uiso   1.00
C377   C     0.85643   0.57547   0.45046   0.00000  Uiso   1.00
C378   C     0.13884   0.38085   0.25741   0.00000  Uiso   1.00
C379   C     0.17476   0.35843   0.18417   0.00000  Uiso   1.00
C380   C     0.15823   0.28845   0.14777   0.00000  Uiso   1.00
C381   C     0.15072   0.18019   0.06447   0.00000  Uiso   1.00
C382   C     0.05538   0.37067   0.37314   0.00000  Uiso   1.00
C383   C     0.12313   0.40650   0.39730   0.00000  Uiso   1.00
C384   C     0.13593   0.39665   0.44868   0.00000  Uiso   1.00
C385   C     0.20125   0.43431   0.46320   0.00000  Uiso   1.00
C386   C     0.01870   0.42835   0.38416   0.00000  Uiso   1.00
C387   C     0.94369   0.43686   0.42449   0.00000  Uiso   1.00
C388   C     0.92109   0.49291   0.42795   0.00000  Uiso   1.00
C389   C     0.08819   0.33501   0.29303   0.00000  Uiso   1.00
C390   C     0.07159   0.26506   0.25673   0.00000  Uiso   1.00
C391   C     0.10749   0.24253   0.18345   0.00000  Uiso   1.00
H392   H     0.18806   0.49075   0.27983   0.00000  Uiso   1.00
H393   H     0.27828   0.52549   0.34855   0.00000  Uiso   1.00
H394   H     0.08607   0.56569   0.32436   0.00000  Uiso   1.00
H395   H     0.21396   0.39391   0.15663   0.00000  Uiso   1.00
H396   H     0.35596   0.54381   0.44047   0.00000  Uiso   1.00
H397   H     0.95066   0.62855   0.38944   0.00000  Uiso   1.00
H398   H     0.22034   0.26634   0.03574   0.00000  Uiso   1.00
H399   H     0.01594   0.33499   0.40087   0.00000  Uiso   1.00
H400   H     0.09672   0.36118   0.47624   0.00000  Uiso   1.00
H401   H     0.90451   0.40137   0.45204   0.00000  Uiso   1.00
H402   H     0.03239   0.22960   0.28431   0.00000  Uiso   1.00
H403   H     0.20859   0.41045   0.54410   0.00000  Uiso   1.00
H404   H     0.80330   0.49519   0.49307   0.00000  Uiso   1.00
H405   H     0.07297   0.13298   0.13937   0.00000  Uiso   1.00
O406   O     0.33851   0.49719   0.53969   0.00000  Uiso   1.00
O407   O     0.80677   0.60836   0.47273   0.00000  Uiso   1.00
O408   O     0.16058   0.13314   0.00869   0.00000  Uiso   1.00
N409   N     0.31020   0.50882   0.45450   0.00000  Uiso   1.00
N410   N     0.93127   0.58805   0.40680   0.00000  Uiso   1.00
N411   N     0.18338   0.24942   0.07612   0.00000  Uiso   1.00
N412   N     0.23090   0.43706   0.51027   0.00000  Uiso   1.00
N413   N     0.85198   0.51629   0.46257   0.00000  Uiso   1.00
N414   N     0.10409   0.17766   0.13189   0.00000  Uiso   1.00
C415   C     0.90258   0.65821   0.85782   0.00000  Uiso   1.00
C416   C     0.86255   0.59968   0.80993   0.00000  Uiso   1.00
C417   C     0.89711   0.56295   0.73888   0.00000  Uiso   1.00
C418   C     0.85062   0.51134   0.70433   0.00000  Uiso   1.00
C419   C     0.80035   0.42265   0.62459   0.00000  Uiso   1.00
C420   C     0.86329   0.72027   0.88702   0.00000  Uiso   1.00
C421   C     0.89847   0.78494   0.88078   0.00000  Uiso   1.00
C422   C     0.85259   0.83485   0.91114   0.00000  Uiso   1.00
C423   C     0.80348   0.93340   0.95112   0.00000  Uiso   1.00
C424   C     0.88321   0.63663   0.92106   0.00000  Uiso   1.00
C425   C     0.93514   0.63099   0.94346   0.00000  Uiso   1.00
C426   C     0.90605   0.61050   0.00248   0.00000  Uiso   1.00
C427   C     0.88787   0.57918   0.09532   0.00000  Uiso   1.00
C428   C     0.75856   0.63186   0.92284   0.00000  Uiso   1.00
C429   C     0.78432   0.58537   0.84525   0.00000  Uiso   1.00
C430   C     0.73777   0.53379   0.81081   0.00000  Uiso   1.00
C431   C     0.77225   0.49700   0.73971   0.00000  Uiso   1.00
C432   C     0.78506   0.70596   0.92233   0.00000  Uiso   1.00
C433   C     0.73913   0.75579   0.95271   0.00000  Uiso   1.00
C434   C     0.77423   0.82051   0.94651   0.00000  Uiso   1.00
C435   C     0.80499   0.62232   0.95637   0.00000  Uiso   1.00
C436   C     0.77580   0.60183   0.01538   0.00000  Uiso   1.00
C437   C     0.82768   0.59616   0.03786   0.00000  Uiso   1.00
H438   H     0.96348   0.66936   0.83033   0.00000  Uiso   1.00
H439   H     0.95765   0.57405   0.71156   0.00000  Uiso   1.00
H440   H     0.95900   0.79601   0.85346   0.00000  Uiso   1.00
H441   H     0.99567   0.64208   0.91612   0.00000  Uiso   1.00
H442   H     0.91667   0.46209   0.59546   0.00000  Uiso   1.00
H443   H     0.91954   0.93010   0.89466   0.00000  Uiso   1.00
H444   H     0.99687   0.60551   0.02680   0.00000  Uiso   1.00
H445   H     0.69766   0.62071   0.95033   0.00000  Uiso   1.00
H446   H     0.67724   0.52273   0.83815   0.00000  Uiso   1.00
H447   H     0.67860   0.74469   0.98004   0.00000  Uiso   1.00
H448   H     0.71527   0.59076   0.04270   0.00000  Uiso   1.00
H449   H     0.68908   0.42043   0.69819   0.00000  Uiso   1.00
H450   H     0.69195   0.88845   0.99740   0.00000  Uiso   1.00
H451   H     0.76928   0.56386   0.12953   0.00000  Uiso   1.00
O452   O     0.79424   0.37770   0.57086   0.00000  Uiso   1.00
O453   O     0.79800   0.99172   0.96341   0.00000  Uiso   1.00
O454   O     0.89945   0.56586   0.13676   0.00000  Uiso   1.00
N455   N     0.86592   0.46572   0.63504   0.00000  Uiso   1.00
N456   N     0.86860   0.90328   0.91476   0.00000  Uiso   1.00
N457   N     0.94089   0.59984   0.03831   0.00000  Uiso   1.00
N458   N     0.74345   0.44331   0.69032   0.00000  Uiso   1.00
N459   N     0.74613   0.88087   0.97005   0.00000  Uiso   1.00
N460   N     0.81843   0.57742   0.09359   0.00000  Uiso   1.00
C461   C     0.50104   0.80157   0.63397   0.00000  Uiso   1.00
C462   C     0.57305   0.78439   0.62718   0.00000  Uiso   1.00
C463   C     0.62743   0.83079   0.65493   0.00000  Uiso   1.00
C464   C     0.68921   0.80492   0.64292   0.00000  Uiso   1.00
C465   C     0.79996   0.78887   0.63818   0.00000  Uiso   1.00
C466   C     0.50350   0.77956   0.55834   0.00000  Uiso   1.00
C467   C     0.49939   0.82188   0.52822   0.00000  Uiso   1.00
C468   C     0.50262   0.79194   0.45826   0.00000  Uiso   1.00
C469   C     0.50534   0.76836   0.34667   0.00000  Uiso   1.00
C470   C     0.43551   0.75276   0.66796   0.00000  Uiso   1.00
C471   C     0.37422   0.77254   0.73001   0.00000  Uiso   1.00
C472   C     0.32019   0.72003   0.75234   0.00000  Uiso   1.00
C473   C     0.21734   0.65484   0.81096   0.00000  Uiso   1.00
C474   C     0.51407   0.67314   0.56330   0.00000  Uiso   1.00
C475   C     0.58012   0.71463   0.58879   0.00000  Uiso   1.00
C476   C     0.64184   0.68869   0.57674   0.00000  Uiso   1.00
C477   C     0.69630   0.73504   0.60447   0.00000  Uiso   1.00
C478   C     0.51058   0.70980   0.51995   0.00000  Uiso   1.00
C479   C     0.51380   0.67978   0.45003   0.00000  Uiso   1.00
C480   C     0.50971   0.72205   0.41981   0.00000  Uiso   1.00
C481   C     0.44258   0.68299   0.62958   0.00000  Uiso   1.00
C482   C     0.38863   0.63044   0.65182   0.00000  Uiso   1.00
C483   C     0.32727   0.65015   0.71389   0.00000  Uiso   1.00
H484   H     0.49554   0.85589   0.66385   0.00000  Uiso   1.00
H485   H     0.62194   0.88477   0.68462   0.00000  Uiso   1.00
H486   H     0.49391   0.87587   0.55793   0.00000  Uiso   1.00
H487   H     0.36876   0.82653   0.75969   0.00000  Uiso   1.00
H488   H     0.76521   0.88604   0.69070   0.00000  Uiso   1.00
H489   H     0.49524   0.86725   0.42358   0.00000  Uiso   1.00
H490   H     0.23133   0.76323   0.84903   0.00000  Uiso   1.00
H491   H     0.51957   0.61882   0.53342   0.00000  Uiso   1.00
H492   H     0.64730   0.63470   0.54704   0.00000  Uiso   1.00
H493   H     0.51928   0.62580   0.42035   0.00000  Uiso   1.00
H494   H     0.39412   0.57646   0.62211   0.00000  Uiso   1.00
H495   H     0.78579   0.68307   0.57903   0.00000  Uiso   1.00
H496   H     0.51582   0.66429   0.31191   0.00000  Uiso   1.00
H497   H     0.25192   0.56026   0.73736   0.00000  Uiso   1.00
O498   O     0.85910   0.79928   0.64616   0.00000  Uiso   1.00
O499   O     0.50490   0.77463   0.29571   0.00000  Uiso   1.00
O500   O     0.15866   0.63816   0.85389   0.00000  Uiso   1.00
N501   N     0.75252   0.83609   0.66257   0.00000  Uiso   1.00
N502   N     0.50013   0.81853   0.41282   0.00000  Uiso   1.00
N503   N     0.25338   0.72127   0.81057   0.00000  Uiso   1.00
N504   N     0.76359   0.72687   0.60248   0.00000  Uiso   1.00
N505   N     0.51120   0.70931   0.35273   0.00000  Uiso   1.00
N506   N     0.26446   0.61206   0.75048   0.00000  Uiso   1.00
C507   C     0.18721   0.12865   0.26591   0.00000  Uiso   1.00
C508   C     0.16431   0.09993   0.32505   0.00000  Uiso   1.00
C509   C     0.09318   0.09635   0.37747   0.00000  Uiso   1.00
C510   C     0.08363   0.06832   0.42676   0.00000  Uiso   1.00
C511   C     0.03904   0.02734   0.51909   0.00000  Uiso   1.00
C512   C     0.25533   0.18547   0.27232   0.00000  Uiso   1.00
C513   C     0.26072   0.25381   0.28039   0.00000  Uiso   1.00
C514   C     0.32780   0.29779   0.28529   0.00000  Uiso   1.00
C515   C     0.42454   0.38960   0.29570   0.00000  Uiso   1.00
C516   C     0.21706   0.07082   0.19647   0.00000  Uiso   1.00
C517   C     0.19028   0.04277   0.14075   0.00000  Uiso   1.00
C518   C     0.22515   0.99022   0.08178   0.00000  Uiso   1.00
C519   C     0.26246   0.90402   0.97442   0.00000  Uiso   1.00
C520   C     0.29676   0.08524   0.26023   0.00000  Uiso   1.00
C521   C     0.22382   0.07635   0.32197   0.00000  Uiso   1.00
C522   C     0.21438   0.04832   0.37119   0.00000  Uiso   1.00
C523   C     0.14324   0.04470   0.42368   0.00000  Uiso   1.00
C524   C     0.31483   0.16189   0.26924   0.00000  Uiso   1.00
C525   C     0.38192   0.20578   0.27412   0.00000  Uiso   1.00
C526   C     0.38741   0.27417   0.28220   0.00000  Uiso   1.00
C527   C     0.27656   0.04723   0.19339   0.00000  Uiso   1.00
C528   C     0.31148   0.99473   0.13448   0.00000  Uiso   1.00
C529   C     0.28476   0.96660   0.07869   0.00000  Uiso   1.00
H530   H     0.14089   0.14701   0.26831   0.00000  Uiso   1.00
H531   H     0.04715   0.11461   0.37984   0.00000  Uiso   1.00
H532   H     0.21467   0.27204   0.28277   0.00000  Uiso   1.00
H533   H     0.14424   0.06103   0.14316   0.00000  Uiso   1.00
H534   H     0.96946   0.06831   0.50215   0.00000  Uiso   1.00
H535   H     0.32271   0.40025   0.29745   0.00000  Uiso   1.00
H536   H     0.17418   0.95529   0.00305   0.00000  Uiso   1.00
H537   H     0.34309   0.06688   0.25783   0.00000  Uiso   1.00
H538   H     0.26044   0.03008   0.36880   0.00000  Uiso   1.00
H539   H     0.42796   0.18751   0.27173   0.00000  Uiso   1.00
H540   H     0.35753   0.97650   0.13212   0.00000  Uiso   1.00
H541   H     0.14258   0.99970   0.49319   0.00000  Uiso   1.00
H542   H     0.49582   0.33165   0.28849   0.00000  Uiso   1.00
H543   H     0.34730   0.88668   0.99409   0.00000  Uiso   1.00
O544   O     0.99801   0.01126   0.57087   0.00000  Uiso   1.00
O545   O     0.46145   0.44676   0.30230   0.00000  Uiso   1.00
O546   O     0.26659   0.86297   0.91605   0.00000  Uiso   1.00
N547   N     0.02155   0.05720   0.48481   0.00000  Uiso   1.00
N548   N     0.35180   0.36755   0.29344   0.00000  Uiso   1.00
N549   N     0.21296   0.95156   0.01819   0.00000  Uiso   1.00
N550   N     0.11470   0.02028   0.47998   0.00000  Uiso   1.00
N551   N     0.44495   0.33063   0.28862   0.00000  Uiso   1.00
N552   N     0.30611   0.91464   0.01336   0.00000  Uiso   1.00
