data_job_01045
_audit_creation_date              2018-12-19
_audit_creation_method            'Materials Studio'
_symmetry_space_group_name_H-M    'P1'
_symmetry_Int_Tables_number       1
_symmetry_cell_setting            triclinic
loop_
_symmetry_equiv_pos_as_xyz
  x,y,z
_cell_length_a                    11.0465
_cell_length_b                    12.2632
_cell_length_c                    9.9459
_cell_angle_alpha                 90.0000
_cell_angle_beta                  89.9307
_cell_angle_gamma                 90.0000
loop_
_atom_site_label
_atom_site_type_symbol
_atom_site_fract_x
_atom_site_fract_y
_atom_site_fract_z
_atom_site_U_iso_or_equiv
_atom_site_adp_type
_atom_site_occupancy
C1     C     0.09889   0.33010   0.88754   0.00000  Uiso   1.00
C2     C     0.15508   0.41738   0.79786   0.00000  Uiso   1.00
C3     C     0.10583   0.51920   0.77116   0.00000  Uiso   1.00
C4     C     0.17122   0.58734   0.68650   0.00000  Uiso   1.00
C5     C     0.24162   0.72781   0.55569   0.00000  Uiso   1.00
C6     C     0.08744   0.22831   0.80042   0.00000  Uiso   1.00
C7     C     0.98130   0.17114   0.77589   0.00000  Uiso   1.00
C8     C     0.98976   0.08011   0.69341   0.00000  Uiso   1.00
C9     C     0.95515   0.92699   0.56665   0.00000  Uiso   1.00
C10    C     0.19374   0.30346   0.99385   0.00000  Uiso   1.00
C11    C     0.17699   0.30946   0.13196   0.00000  Uiso   1.00
C12    C     0.27494   0.28169   0.21234   0.00000  Uiso   1.00
C13    C     0.40538   0.24526   0.38591   0.00000  Uiso   1.00
C14    C     0.30261   0.27007   0.78468   0.00000  Uiso   1.00
C15    C     0.26574   0.38477   0.74199   0.00000  Uiso   1.00
C16    C     0.33123   0.45278   0.65736   0.00000  Uiso   1.00
C17    C     0.28208   0.55468   0.63054   0.00000  Uiso   1.00
C18    C     0.19809   0.19570   0.74455   0.00000  Uiso   1.00
C19    C     0.20670   0.10473   0.66209   0.00000  Uiso   1.00
C20    C     0.10061   0.04745   0.63743   0.00000  Uiso   1.00
C21    C     0.30440   0.27086   0.93798   0.00000  Uiso   1.00
C22    C     0.40239   0.24306   0.01816   0.00000  Uiso   1.00
C23    C     0.38579   0.24902   0.15636   0.00000  Uiso   1.00
H24    H     0.01273   0.35548   0.93104   0.00000  Uiso   1.00
H25    H     0.02018   0.54440   0.81441   0.00000  Uiso   1.00
H26    H     0.89569   0.19639   0.81915   0.00000  Uiso   1.00
H27    H     0.09134   0.33470   0.17516   0.00000  Uiso   1.00
H28    H     0.07722   0.73945   0.66042   0.00000  Uiso   1.00
H29    H     0.81472   0.00564   0.67046   0.00000  Uiso   1.00
H30    H     0.22730   0.29729   0.42119   0.00000  Uiso   1.00
H31    H     0.38877   0.24468   0.74118   0.00000  Uiso   1.00
H32    H     0.41686   0.42753   0.61413   0.00000  Uiso   1.00
H33    H     0.29235   0.07952   0.61888   0.00000  Uiso   1.00
H34    H     0.48801   0.21783   0.97489   0.00000  Uiso   1.00
H35    H     0.39917   0.64460   0.49787   0.00000  Uiso   1.00
H36    H     0.13667   0.91078   0.50791   0.00000  Uiso   1.00
H37    H     0.54925   0.20243   0.25863   0.00000  Uiso   1.00
O38    O     0.24987   0.81429   0.49896   0.00000  Uiso   1.00
O39    O     0.90548   0.85155   0.51216   0.00000  Uiso   1.00
O40    O     0.44677   0.23419   0.49708   0.00000  Uiso   1.00
N41    N     0.14915   0.69205   0.63962   0.00000  Uiso   1.00
N42    N     0.90372   0.00598   0.64899   0.00000  Uiso   1.00
N43    N     0.28944   0.27862   0.35086   0.00000  Uiso   1.00
N44    N     0.32239   0.64100   0.55216   0.00000  Uiso   1.00
N45    N     0.07696   0.95494   0.56153   0.00000  Uiso   1.00
N46    N     0.46268   0.22758   0.26339   0.00000  Uiso   1.00
C47    C     0.90111   0.83010   0.11246   0.00000  Uiso   1.00
C48    C     0.84492   0.91738   0.20214   0.00000  Uiso   1.00
C49    C     0.89417   0.01920   0.22884   0.00000  Uiso   1.00
C50    C     0.82878   0.08734   0.31350   0.00000  Uiso   1.00
C51    C     0.75838   0.22781   0.44431   0.00000  Uiso   1.00
C52    C     0.91256   0.72831   0.19958   0.00000  Uiso   1.00
C53    C     0.01870   0.67114   0.22411   0.00000  Uiso   1.00
C54    C     0.01024   0.58011   0.30659   0.00000  Uiso   1.00
C55    C     0.04485   0.42699   0.43335   0.00000  Uiso   1.00
C56    C     0.80626   0.80346   0.00615   0.00000  Uiso   1.00
C57    C     0.82301   0.80946   0.86804   0.00000  Uiso   1.00
C58    C     0.72506   0.78169   0.78766   0.00000  Uiso   1.00
C59    C     0.59462   0.74526   0.61409   0.00000  Uiso   1.00
C60    C     0.69739   0.77007   0.21532   0.00000  Uiso   1.00
C61    C     0.73426   0.88477   0.25801   0.00000  Uiso   1.00
C62    C     0.66877   0.95278   0.34264   0.00000  Uiso   1.00
C63    C     0.71792   0.05468   0.36946   0.00000  Uiso   1.00
C64    C     0.80191   0.69570   0.25545   0.00000  Uiso   1.00
C65    C     0.79330   0.60473   0.33791   0.00000  Uiso   1.00
C66    C     0.89939   0.54745   0.36257   0.00000  Uiso   1.00
C67    C     0.69560   0.77086   0.06202   0.00000  Uiso   1.00
C68    C     0.59761   0.74306   0.98184   0.00000  Uiso   1.00
C69    C     0.61421   0.74902   0.84364   0.00000  Uiso   1.00
H70    H     0.98727   0.85548   0.06896   0.00000  Uiso   1.00
H71    H     0.97982   0.04440   0.18559   0.00000  Uiso   1.00
H72    H     0.10431   0.69639   0.18085   0.00000  Uiso   1.00
H73    H     0.90866   0.83470   0.82484   0.00000  Uiso   1.00
H74    H     0.92278   0.23945   0.33958   0.00000  Uiso   1.00
H75    H     0.18528   0.50564   0.32954   0.00000  Uiso   1.00
H76    H     0.77270   0.79729   0.57881   0.00000  Uiso   1.00
H77    H     0.61123   0.74468   0.25882   0.00000  Uiso   1.00
H78    H     0.58314   0.92753   0.38587   0.00000  Uiso   1.00
H79    H     0.70765   0.57952   0.38112   0.00000  Uiso   1.00
H80    H     0.51199   0.71783   0.02511   0.00000  Uiso   1.00
H81    H     0.60083   0.14460   0.50213   0.00000  Uiso   1.00
H82    H     0.86333   0.41078   0.49209   0.00000  Uiso   1.00
H83    H     0.45075   0.70243   0.74137   0.00000  Uiso   1.00
O84    O     0.75013   0.31429   0.50104   0.00000  Uiso   1.00
O85    O     0.09452   0.35155   0.48784   0.00000  Uiso   1.00
O86    O     0.55323   0.73419   0.50292   0.00000  Uiso   1.00
N87    N     0.85085   0.19205   0.36038   0.00000  Uiso   1.00
N88    N     0.09628   0.50598   0.35101   0.00000  Uiso   1.00
N89    N     0.71056   0.77862   0.64914   0.00000  Uiso   1.00
N90    N     0.67761   0.14100   0.44784   0.00000  Uiso   1.00
N91    N     0.92304   0.45494   0.43847   0.00000  Uiso   1.00
N92    N     0.53732   0.72758   0.73661   0.00000  Uiso   1.00
