data_job_05531
_audit_creation_date              2018-12-19
_audit_creation_method            'Materials Studio'
_symmetry_space_group_name_H-M    'P1'
_symmetry_Int_Tables_number       1
_symmetry_cell_setting            triclinic
loop_
_symmetry_equiv_pos_as_xyz
  x,y,z
_cell_length_a                    12.3220
_cell_length_b                    12.3220
_cell_length_c                    32.1651
_cell_angle_alpha                 90.0000
_cell_angle_beta                  90.0000
_cell_angle_gamma                 120.0000
loop_
_atom_site_label
_atom_site_type_symbol
_atom_site_fract_x
_atom_site_fract_y
_atom_site_fract_z
_atom_site_U_iso_or_equiv
_atom_site_adp_type
_atom_site_occupancy
C1     C     0.85590   0.22818   0.49126   0.00000  Uiso   1.00
C2     C     0.75525   0.18345   0.52485   0.00000  Uiso   1.00
C3     C     0.69286   0.24533   0.53756   0.00000  Uiso   1.00
C4     C     0.60397   0.18904   0.56875   0.00000  Uiso   1.00
C5     C     0.45161   0.13697   0.61821   0.00000  Uiso   1.00
C6     C     0.97061   0.23494   0.51185   0.00000  Uiso   1.00
C7     C     0.08929   0.34011   0.51363   0.00000  Uiso   1.00
C8     C     0.18169   0.32715   0.53387   0.00000  Uiso   1.00
C9     C     0.36369   0.35500   0.56312   0.00000  Uiso   1.00
C10    C     0.80970   0.12222   0.45956   0.00000  Uiso   1.00
C11    C     0.79313   0.13263   0.41736   0.00000  Uiso   1.00
C12    C     0.75009   0.02477   0.39358   0.00000  Uiso   1.00
C13    C     0.68227   0.87761   0.34164   0.00000  Uiso   1.00
C14    C     0.80898   0.01815   0.52405   0.00000  Uiso   1.00
C15    C     0.72977   0.06937   0.54265   0.00000  Uiso   1.00
C16    C     0.64095   0.01296   0.57383   0.00000  Uiso   1.00
C17    C     0.57844   0.07475   0.58659   0.00000  Uiso   1.00
C18    C     0.94513   0.12087   0.52966   0.00000  Uiso   1.00
C19    C     0.03738   0.10774   0.54990   0.00000  Uiso   1.00
C20    C     0.15616   0.21287   0.55171   0.00000  Uiso   1.00
C21    C     0.78422   0.00814   0.47736   0.00000  Uiso   1.00
C22    C     0.74121   0.90026   0.45364   0.00000  Uiso   1.00
C23    C     0.72456   0.91049   0.41142   0.00000  Uiso   1.00
H24    H     0.87575   0.31699   0.47740   0.00000  Uiso   1.00
H25    H     0.71262   0.33362   0.52377   0.00000  Uiso   1.00
H26    H     0.10898   0.42838   0.49984   0.00000  Uiso   1.00
H27    H     0.81286   0.22092   0.40360   0.00000  Uiso   1.00
H28    H     0.52055   0.30177   0.58306   0.00000  Uiso   1.00
H29    H     0.35632   0.50156   0.53258   0.00000  Uiso   1.00
H30    H     0.73189   0.06410   0.32963   0.00000  Uiso   1.00
H31    H     0.78915   0.92933   0.53791   0.00000  Uiso   1.00
H32    H     0.62125   0.92468   0.58761   0.00000  Uiso   1.00
H33    H     0.01763   0.01945   0.56367   0.00000  Uiso   1.00
H34    H     0.72150   0.81199   0.46743   0.00000  Uiso   1.00
H35    H     0.44640   0.96986   0.63487   0.00000  Uiso   1.00
H36    H     0.28218   0.16966   0.58439   0.00000  Uiso   1.00
H37    H     0.65774   0.73220   0.38144   0.00000  Uiso   1.00
O38    O     0.37462   0.13977   0.64057   0.00000  Uiso   1.00
O39    O     0.47112   0.40188   0.57434   0.00000  Uiso   1.00
O40    O     0.65188   0.82795   0.30807   0.00000  Uiso   1.00
N41    N     0.52612   0.22428   0.58842   0.00000  Uiso   1.00
N42    N     0.30751   0.41108   0.54123   0.00000  Uiso   1.00
N43    N     0.72375   0.00210   0.35149   0.00000  Uiso   1.00
N44    N     0.48622   0.04568   0.61630   0.00000  Uiso   1.00
N45    N     0.26761   0.23248   0.56911   0.00000  Uiso   1.00
N46    N     0.68385   0.82350   0.37937   0.00000  Uiso   1.00
C47    C     0.77182   0.62772   0.15793   0.00000  Uiso   1.00
C48    C     0.81655   0.57180   0.19151   0.00000  Uiso   1.00
C49    C     0.75467   0.44753   0.20423   0.00000  Uiso   1.00
C50    C     0.81096   0.41494   0.23542   0.00000  Uiso   1.00
C51    C     0.86303   0.31464   0.28488   0.00000  Uiso   1.00
C52    C     0.76506   0.73567   0.17851   0.00000  Uiso   1.00
C53    C     0.65989   0.74917   0.18029   0.00000  Uiso   1.00
C54    C     0.67285   0.85454   0.20054   0.00000  Uiso   1.00
C55    C     0.64500   0.00869   0.22979   0.00000  Uiso   1.00
C56    C     0.87778   0.68748   0.12622   0.00000  Uiso   1.00
C57    C     0.86737   0.66050   0.08403   0.00000  Uiso   1.00
C58    C     0.97523   0.72532   0.06025   0.00000  Uiso   1.00
C59    C     0.12239   0.80465   0.00831   0.00000  Uiso   1.00
C60    C     0.98185   0.79083   0.19071   0.00000  Uiso   1.00
C61    C     0.93063   0.66040   0.20932   0.00000  Uiso   1.00
C62    C     0.98704   0.62799   0.24050   0.00000  Uiso   1.00
C63    C     0.92525   0.50369   0.25326   0.00000  Uiso   1.00
C64    C     0.87913   0.82426   0.19632   0.00000  Uiso   1.00
C65    C     0.89226   0.92964   0.21657   0.00000  Uiso   1.00
C66    C     0.78713   0.94329   0.21838   0.00000  Uiso   1.00
C67    C     0.99186   0.77607   0.14403   0.00000  Uiso   1.00
C68    C     0.09974   0.84096   0.12031   0.00000  Uiso   1.00
C69    C     0.08951   0.81407   0.07809   0.00000  Uiso   1.00
H70    H     0.68301   0.55875   0.14406   0.00000  Uiso   1.00
H71    H     0.66638   0.37899   0.19044   0.00000  Uiso   1.00
H72    H     0.57162   0.68060   0.16651   0.00000  Uiso   1.00
H73    H     0.77908   0.59193   0.07026   0.00000  Uiso   1.00
H74    H     0.69823   0.21878   0.24972   0.00000  Uiso   1.00
H75    H     0.49844   0.85476   0.19924   0.00000  Uiso   1.00
H76    H     0.93590   0.66779   0.99629   0.00000  Uiso   1.00
H77    H     0.07067   0.85981   0.20458   0.00000  Uiso   1.00
H78    H     0.07532   0.69657   0.25428   0.00000  Uiso   1.00
H79    H     0.98055   0.99818   0.23034   0.00000  Uiso   1.00
H80    H     0.18801   0.90951   0.13410   0.00000  Uiso   1.00
H81    H     0.03014   0.47654   0.30154   0.00000  Uiso   1.00
H82    H     0.83034   0.11252   0.25105   0.00000  Uiso   1.00
H83    H     0.26780   0.92554   0.04810   0.00000  Uiso   1.00
O84    O     0.86023   0.23485   0.30724   0.00000  Uiso   1.00
O85    O     0.59812   0.06924   0.24100   0.00000  Uiso   1.00
O86    O     0.17205   0.82393   0.97474   0.00000  Uiso   1.00
N87    N     0.77572   0.30184   0.25509   0.00000  Uiso   1.00
N88    N     0.58892   0.89643   0.20790   0.00000  Uiso   1.00
N89    N     0.99790   0.72165   0.01816   0.00000  Uiso   1.00
N90    N     0.95432   0.44054   0.28297   0.00000  Uiso   1.00
N91    N     0.76752   0.03513   0.23578   0.00000  Uiso   1.00
N92    N     0.17650   0.86035   0.04604   0.00000  Uiso   1.00
C93    C     0.37228   0.14410   0.82459   0.00000  Uiso   1.00
C94    C     0.42820   0.24475   0.85818   0.00000  Uiso   1.00
C95    C     0.55247   0.30714   0.87089   0.00000  Uiso   1.00
C96    C     0.58506   0.39603   0.90209   0.00000  Uiso   1.00
C97    C     0.68536   0.54839   0.95154   0.00000  Uiso   1.00
C98    C     0.26433   0.02939   0.84518   0.00000  Uiso   1.00
C99    C     0.25083   0.91071   0.84696   0.00000  Uiso   1.00
C100   C     0.14546   0.81831   0.86720   0.00000  Uiso   1.00
C101   C     0.99131   0.63631   0.89645   0.00000  Uiso   1.00
C102   C     0.31252   0.19030   0.79289   0.00000  Uiso   1.00
C103   C     0.33950   0.20687   0.75070   0.00000  Uiso   1.00
C104   C     0.27468   0.24991   0.72692   0.00000  Uiso   1.00
C105   C     0.19535   0.31773   0.67497   0.00000  Uiso   1.00
C106   C     0.20917   0.19102   0.85738   0.00000  Uiso   1.00
C107   C     0.33960   0.27023   0.87599   0.00000  Uiso   1.00
C108   C     0.37201   0.35905   0.90717   0.00000  Uiso   1.00
C109   C     0.49631   0.42156   0.91993   0.00000  Uiso   1.00
C110   C     0.17574   0.05487   0.86299   0.00000  Uiso   1.00
C111   C     0.07036   0.96262   0.88323   0.00000  Uiso   1.00
C112   C     0.05671   0.84384   0.88504   0.00000  Uiso   1.00
C113   C     0.22393   0.21578   0.81070   0.00000  Uiso   1.00
C114   C     0.15904   0.25879   0.78697   0.00000  Uiso   1.00
C115   C     0.18593   0.27544   0.74476   0.00000  Uiso   1.00
H116   H     0.44125   0.12425   0.81073   0.00000  Uiso   1.00
H117   H     0.62101   0.28738   0.85711   0.00000  Uiso   1.00
H118   H     0.31940   0.89102   0.83317   0.00000  Uiso   1.00
H119   H     0.40807   0.18714   0.73693   0.00000  Uiso   1.00
H120   H     0.78122   0.47945   0.91639   0.00000  Uiso   1.00
H121   H     0.14524   0.64368   0.86591   0.00000  Uiso   1.00
H122   H     0.33221   0.26811   0.66296   0.00000  Uiso   1.00
H123   H     0.14019   0.21085   0.87124   0.00000  Uiso   1.00
H124   H     0.30343   0.37875   0.92094   0.00000  Uiso   1.00
H125   H     0.00182   0.98237   0.89701   0.00000  Uiso   1.00
H126   H     0.09049   0.27850   0.80076   0.00000  Uiso   1.00
H127   H     0.52346   0.55360   0.96820   0.00000  Uiso   1.00
H128   H     0.88748   0.71782   0.91772   0.00000  Uiso   1.00
H129   H     0.07446   0.34226   0.71477   0.00000  Uiso   1.00
O130   O     0.76515   0.62538   0.97391   0.00000  Uiso   1.00
O131   O     0.93076   0.52888   0.90767   0.00000  Uiso   1.00
O132   O     0.17607   0.34812   0.64141   0.00000  Uiso   1.00
N133   N     0.69816   0.47388   0.92176   0.00000  Uiso   1.00
N134   N     0.10357   0.69249   0.87457   0.00000  Uiso   1.00
N135   N     0.27835   0.27625   0.68482   0.00000  Uiso   1.00
N136   N     0.55946   0.51378   0.94964   0.00000  Uiso   1.00
N137   N     0.96487   0.73239   0.90245   0.00000  Uiso   1.00
N138   N     0.13965   0.31615   0.71270   0.00000  Uiso   1.00
C139   C     0.22818   0.85590   0.50874   0.00000  Uiso   1.00
C140   C     0.18345   0.75525   0.47515   0.00000  Uiso   1.00
C141   C     0.24533   0.69286   0.46244   0.00000  Uiso   1.00
C142   C     0.18904   0.60397   0.43125   0.00000  Uiso   1.00
C143   C     0.13697   0.45161   0.38179   0.00000  Uiso   1.00
C144   C     0.23494   0.97061   0.48815   0.00000  Uiso   1.00
C145   C     0.34011   0.08929   0.48637   0.00000  Uiso   1.00
C146   C     0.32715   0.18169   0.46613   0.00000  Uiso   1.00
C147   C     0.35500   0.36369   0.43688   0.00000  Uiso   1.00
C148   C     0.12222   0.80970   0.54044   0.00000  Uiso   1.00
C149   C     0.13263   0.79313   0.58264   0.00000  Uiso   1.00
C150   C     0.02477   0.75009   0.60642   0.00000  Uiso   1.00
C151   C     0.87761   0.68227   0.65836   0.00000  Uiso   1.00
C152   C     0.01815   0.80898   0.47595   0.00000  Uiso   1.00
C153   C     0.06937   0.72977   0.45735   0.00000  Uiso   1.00
C154   C     0.01296   0.64095   0.42617   0.00000  Uiso   1.00
C155   C     0.07475   0.57844   0.41341   0.00000  Uiso   1.00
C156   C     0.12087   0.94513   0.47034   0.00000  Uiso   1.00
C157   C     0.10774   0.03738   0.45010   0.00000  Uiso   1.00
C158   C     0.21287   0.15616   0.44829   0.00000  Uiso   1.00
C159   C     0.00814   0.78422   0.52264   0.00000  Uiso   1.00
C160   C     0.90026   0.74121   0.54636   0.00000  Uiso   1.00
C161   C     0.91049   0.72456   0.58858   0.00000  Uiso   1.00
H162   H     0.31699   0.87575   0.52260   0.00000  Uiso   1.00
H163   H     0.33362   0.71262   0.47623   0.00000  Uiso   1.00
H164   H     0.42838   0.10898   0.50016   0.00000  Uiso   1.00
H165   H     0.22092   0.81286   0.59640   0.00000  Uiso   1.00
H166   H     0.30177   0.52055   0.41694   0.00000  Uiso   1.00
H167   H     0.50156   0.35632   0.46742   0.00000  Uiso   1.00
H168   H     0.06410   0.73189   0.67037   0.00000  Uiso   1.00
H169   H     0.92933   0.78915   0.46209   0.00000  Uiso   1.00
H170   H     0.92468   0.62125   0.41239   0.00000  Uiso   1.00
H171   H     0.01945   0.01763   0.43633   0.00000  Uiso   1.00
H172   H     0.81199   0.72150   0.53257   0.00000  Uiso   1.00
H173   H     0.96986   0.44640   0.36513   0.00000  Uiso   1.00
H174   H     0.16966   0.28218   0.41561   0.00000  Uiso   1.00
H175   H     0.73220   0.65774   0.61856   0.00000  Uiso   1.00
O176   O     0.13977   0.37462   0.35943   0.00000  Uiso   1.00
O177   O     0.40188   0.47112   0.42566   0.00000  Uiso   1.00
O178   O     0.82795   0.65188   0.69193   0.00000  Uiso   1.00
N179   N     0.22428   0.52612   0.41158   0.00000  Uiso   1.00
N180   N     0.41108   0.30751   0.45877   0.00000  Uiso   1.00
N181   N     0.00210   0.72375   0.64851   0.00000  Uiso   1.00
N182   N     0.04568   0.48622   0.38370   0.00000  Uiso   1.00
N183   N     0.23248   0.26761   0.43089   0.00000  Uiso   1.00
N184   N     0.82350   0.68385   0.62063   0.00000  Uiso   1.00
C185   C     0.62772   0.77182   0.84207   0.00000  Uiso   1.00
C186   C     0.57180   0.81655   0.80849   0.00000  Uiso   1.00
C187   C     0.44753   0.75467   0.79577   0.00000  Uiso   1.00
C188   C     0.41494   0.81096   0.76458   0.00000  Uiso   1.00
C189   C     0.31464   0.86303   0.71512   0.00000  Uiso   1.00
C190   C     0.73567   0.76506   0.82149   0.00000  Uiso   1.00
C191   C     0.74917   0.65989   0.81971   0.00000  Uiso   1.00
C192   C     0.85454   0.67285   0.79946   0.00000  Uiso   1.00
C193   C     0.00869   0.64500   0.77021   0.00000  Uiso   1.00
C194   C     0.68748   0.87778   0.87378   0.00000  Uiso   1.00
C195   C     0.66050   0.86737   0.91597   0.00000  Uiso   1.00
C196   C     0.72532   0.97523   0.93975   0.00000  Uiso   1.00
C197   C     0.80465   0.12239   0.99169   0.00000  Uiso   1.00
C198   C     0.79083   0.98185   0.80929   0.00000  Uiso   1.00
C199   C     0.66040   0.93063   0.79068   0.00000  Uiso   1.00
C200   C     0.62799   0.98704   0.75950   0.00000  Uiso   1.00
C201   C     0.50369   0.92525   0.74674   0.00000  Uiso   1.00
C202   C     0.82426   0.87913   0.80368   0.00000  Uiso   1.00
C203   C     0.92964   0.89226   0.78343   0.00000  Uiso   1.00
C204   C     0.94329   0.78713   0.78162   0.00000  Uiso   1.00
C205   C     0.77607   0.99186   0.85597   0.00000  Uiso   1.00
C206   C     0.84096   0.09974   0.87969   0.00000  Uiso   1.00
C207   C     0.81407   0.08951   0.92191   0.00000  Uiso   1.00
H208   H     0.55875   0.68301   0.85594   0.00000  Uiso   1.00
H209   H     0.37899   0.66638   0.80956   0.00000  Uiso   1.00
H210   H     0.68060   0.57162   0.83349   0.00000  Uiso   1.00
H211   H     0.59193   0.77908   0.92974   0.00000  Uiso   1.00
H212   H     0.21878   0.69823   0.75028   0.00000  Uiso   1.00
H213   H     0.85476   0.49844   0.80076   0.00000  Uiso   1.00
H214   H     0.66779   0.93590   0.00371   0.00000  Uiso   1.00
H215   H     0.85981   0.07067   0.79542   0.00000  Uiso   1.00
H216   H     0.69657   0.07532   0.74572   0.00000  Uiso   1.00
H217   H     0.99818   0.98055   0.76966   0.00000  Uiso   1.00
H218   H     0.90951   0.18801   0.86590   0.00000  Uiso   1.00
H219   H     0.47654   0.03014   0.69846   0.00000  Uiso   1.00
H220   H     0.11252   0.83034   0.74895   0.00000  Uiso   1.00
H221   H     0.92554   0.26780   0.95190   0.00000  Uiso   1.00
O222   O     0.23485   0.86023   0.69276   0.00000  Uiso   1.00
O223   O     0.06924   0.59812   0.75900   0.00000  Uiso   1.00
O224   O     0.82393   0.17205   0.02526   0.00000  Uiso   1.00
N225   N     0.30184   0.77572   0.74491   0.00000  Uiso   1.00
N226   N     0.89643   0.58892   0.79210   0.00000  Uiso   1.00
N227   N     0.72165   0.99790   0.98184   0.00000  Uiso   1.00
N228   N     0.44054   0.95432   0.71703   0.00000  Uiso   1.00
N229   N     0.03513   0.76752   0.76422   0.00000  Uiso   1.00
N230   N     0.86035   0.17650   0.95396   0.00000  Uiso   1.00
C231   C     0.14410   0.37228   0.17541   0.00000  Uiso   1.00
C232   C     0.24475   0.42820   0.14182   0.00000  Uiso   1.00
C233   C     0.30714   0.55247   0.12911   0.00000  Uiso   1.00
C234   C     0.39603   0.58506   0.09791   0.00000  Uiso   1.00
C235   C     0.54839   0.68536   0.04846   0.00000  Uiso   1.00
C236   C     0.02939   0.26433   0.15482   0.00000  Uiso   1.00
C237   C     0.91071   0.25083   0.15304   0.00000  Uiso   1.00
C238   C     0.81831   0.14546   0.13280   0.00000  Uiso   1.00
C239   C     0.63631   0.99131   0.10355   0.00000  Uiso   1.00
C240   C     0.19030   0.31252   0.20711   0.00000  Uiso   1.00
C241   C     0.20687   0.33950   0.24930   0.00000  Uiso   1.00
C242   C     0.24991   0.27468   0.27308   0.00000  Uiso   1.00
C243   C     0.31773   0.19535   0.32503   0.00000  Uiso   1.00
C244   C     0.19102   0.20917   0.14262   0.00000  Uiso   1.00
C245   C     0.27023   0.33960   0.12401   0.00000  Uiso   1.00
C246   C     0.35905   0.37201   0.09283   0.00000  Uiso   1.00
C247   C     0.42156   0.49631   0.08007   0.00000  Uiso   1.00
C248   C     0.05487   0.17574   0.13701   0.00000  Uiso   1.00
C249   C     0.96262   0.07036   0.11677   0.00000  Uiso   1.00
C250   C     0.84384   0.05671   0.11496   0.00000  Uiso   1.00
C251   C     0.21578   0.22393   0.18930   0.00000  Uiso   1.00
C252   C     0.25879   0.15904   0.21303   0.00000  Uiso   1.00
C253   C     0.27544   0.18593   0.25524   0.00000  Uiso   1.00
H254   H     0.12425   0.44125   0.18927   0.00000  Uiso   1.00
H255   H     0.28738   0.62101   0.14289   0.00000  Uiso   1.00
H256   H     0.89102   0.31940   0.16683   0.00000  Uiso   1.00
H257   H     0.18714   0.40807   0.26307   0.00000  Uiso   1.00
H258   H     0.47945   0.78122   0.08361   0.00000  Uiso   1.00
H259   H     0.64368   0.14524   0.13409   0.00000  Uiso   1.00
H260   H     0.26811   0.33221   0.33704   0.00000  Uiso   1.00
H261   H     0.21085   0.14019   0.12876   0.00000  Uiso   1.00
H262   H     0.37875   0.30343   0.07906   0.00000  Uiso   1.00
H263   H     0.98237   0.00182   0.10299   0.00000  Uiso   1.00
H264   H     0.27850   0.09049   0.19924   0.00000  Uiso   1.00
H265   H     0.55360   0.52346   0.03180   0.00000  Uiso   1.00
H266   H     0.71782   0.88748   0.08228   0.00000  Uiso   1.00
H267   H     0.34226   0.07446   0.28523   0.00000  Uiso   1.00
O268   O     0.62538   0.76515   0.02609   0.00000  Uiso   1.00
O269   O     0.52888   0.93076   0.09233   0.00000  Uiso   1.00
O270   O     0.34812   0.17607   0.35859   0.00000  Uiso   1.00
N271   N     0.47388   0.69816   0.07824   0.00000  Uiso   1.00
N272   N     0.69249   0.10357   0.12543   0.00000  Uiso   1.00
N273   N     0.27625   0.27835   0.31518   0.00000  Uiso   1.00
N274   N     0.51378   0.55946   0.05036   0.00000  Uiso   1.00
N275   N     0.73239   0.96487   0.09755   0.00000  Uiso   1.00
N276   N     0.31615   0.13965   0.28730   0.00000  Uiso   1.00
