data_job_06975
_audit_creation_date              2018-12-19
_audit_creation_method            'Materials Studio'
_symmetry_space_group_name_H-M    'P1'
_symmetry_Int_Tables_number       1
_symmetry_cell_setting            triclinic
loop_
_symmetry_equiv_pos_as_xyz
  x,y,z
_cell_length_a                    21.1280
_cell_length_b                    22.6831
_cell_length_c                    19.5018
_cell_angle_alpha                 79.5434
_cell_angle_beta                  85.2096
_cell_angle_gamma                 85.4573
loop_
_atom_site_label
_atom_site_type_symbol
_atom_site_fract_x
_atom_site_fract_y
_atom_site_fract_z
_atom_site_U_iso_or_equiv
_atom_site_adp_type
_atom_site_occupancy
C1     C     0.64552   0.89286   0.36445   0.00000  Uiso   1.00
C2     C     0.59604   0.85101   0.40295   0.00000  Uiso   1.00
C3     C     0.54072   0.83846   0.37627   0.00000  Uiso   1.00
C4     C     0.50163   0.79899   0.41976   0.00000  Uiso   1.00
C5     C     0.42239   0.73797   0.46925   0.00000  Uiso   1.00
C6     C     0.65163   0.93945   0.41049   0.00000  Uiso   1.00
C7     C     0.64306   0.00127   0.39015   0.00000  Uiso   1.00
C8     C     0.65078   0.03625   0.44000   0.00000  Uiso   1.00
C9     C     0.65789   0.11255   0.50119   0.00000  Uiso   1.00
C10    C     0.70873   0.85538   0.36534   0.00000  Uiso   1.00
C11    C     0.74818   0.84652   0.30703   0.00000  Uiso   1.00
C12    C     0.80397   0.81073   0.31885   0.00000  Uiso   1.00
C13    C     0.89974   0.75650   0.30993   0.00000  Uiso   1.00
C14    C     0.67448   0.84507   0.48912   0.00000  Uiso   1.00
C15    C     0.61177   0.82505   0.47067   0.00000  Uiso   1.00
C16    C     0.57276   0.78558   0.51421   0.00000  Uiso   1.00
C17    C     0.51739   0.77298   0.48760   0.00000  Uiso   1.00
C18    C     0.66736   0.91350   0.47821   0.00000  Uiso   1.00
C19    C     0.67510   0.94839   0.52809   0.00000  Uiso   1.00
C20    C     0.66653   0.01025   0.50784   0.00000  Uiso   1.00
C21    C     0.72446   0.82942   0.43305   0.00000  Uiso   1.00
C22    C     0.78021   0.79364   0.44497   0.00000  Uiso   1.00
C23    C     0.81973   0.78473   0.38669   0.00000  Uiso   1.00
H24    H     0.63328   0.91308   0.31173   0.00000  Uiso   1.00
H25    H     0.52856   0.85856   0.32386   0.00000  Uiso   1.00
H26    H     0.63090   0.02135   0.33774   0.00000  Uiso   1.00
H27    H     0.73599   0.86662   0.25464   0.00000  Uiso   1.00
H28    H     0.41939   0.78669   0.36719   0.00000  Uiso   1.00
H29    H     0.63518   0.12993   0.39645   0.00000  Uiso   1.00
H30    H     0.85680   0.80366   0.22120   0.00000  Uiso   1.00
H31    H     0.68672   0.82486   0.54184   0.00000  Uiso   1.00
H32    H     0.58494   0.76550   0.56661   0.00000  Uiso   1.00
H33    H     0.68727   0.92829   0.58049   0.00000  Uiso   1.00
H34    H     0.79236   0.77356   0.49738   0.00000  Uiso   1.00
H35    H     0.46514   0.71117   0.56421   0.00000  Uiso   1.00
H36    H     0.68094   0.05441   0.59347   0.00000  Uiso   1.00
H37    H     0.90256   0.72813   0.41822   0.00000  Uiso   1.00
O38    O     0.37434   0.71149   0.47785   0.00000  Uiso   1.00
O39    O     0.65746   0.16180   0.51624   0.00000  Uiso   1.00
O40    O     0.94821   0.73375   0.28631   0.00000  Uiso   1.00
N41    N     0.44413   0.77706   0.41016   0.00000  Uiso   1.00
N42    N     0.64588   0.09796   0.43752   0.00000  Uiso   1.00
N43    N     0.85308   0.79294   0.27367   0.00000  Uiso   1.00
N44    N     0.46875   0.73641   0.51617   0.00000  Uiso   1.00
N45    N     0.67050   0.05732   0.54353   0.00000  Uiso   1.00
N46    N     0.87770   0.75230   0.37969   0.00000  Uiso   1.00
C47    C     0.55151   0.36646   0.88762   0.00000  Uiso   1.00
C48    C     0.50408   0.33222   0.85795   0.00000  Uiso   1.00
C49    C     0.48106   0.27752   0.88970   0.00000  Uiso   1.00
C50    C     0.43799   0.25354   0.85408   0.00000  Uiso   1.00
C51    C     0.36732   0.19583   0.81788   0.00000  Uiso   1.00
C52    C     0.60687   0.37606   0.83225   0.00000  Uiso   1.00
C53    C     0.67026   0.35823   0.84241   0.00000  Uiso   1.00
C54    C     0.71371   0.37117   0.78516   0.00000  Uiso   1.00
C55    C     0.80261   0.38157   0.70908   0.00000  Uiso   1.00
C56    C     0.51921   0.42858   0.89062   0.00000  Uiso   1.00
C57    C     0.50891   0.45492   0.94984   0.00000  Uiso   1.00
C58    C     0.47858   0.51208   0.94173   0.00000  Uiso   1.00
C59    C     0.43138   0.60402   0.95627   0.00000  Uiso   1.00
C60    C     0.51595   0.42114   0.76791   0.00000  Uiso   1.00
C61    C     0.48477   0.36192   0.79292   0.00000  Uiso   1.00
C62    C     0.44172   0.33802   0.75725   0.00000  Uiso   1.00
C63    C     0.41864   0.28329   0.78894   0.00000  Uiso   1.00
C64    C     0.58756   0.40576   0.76723   0.00000  Uiso   1.00
C65    C     0.63092   0.41873   0.70996   0.00000  Uiso   1.00
C66    C     0.69436   0.40093   0.72002   0.00000  Uiso   1.00
C67    C     0.49990   0.45828   0.82559   0.00000  Uiso   1.00
C68    C     0.46957   0.51541   0.81739   0.00000  Uiso   1.00
C69    C     0.45923   0.54183   0.87659   0.00000  Uiso   1.00
H70    H     0.56655   0.34334   0.93824   0.00000  Uiso   1.00
H71    H     0.49602   0.25454   0.94002   0.00000  Uiso   1.00
H72    H     0.68519   0.33525   0.89273   0.00000  Uiso   1.00
H73    H     0.52387   0.43192   0.00015   0.00000  Uiso   1.00
H74    H     0.40934   0.16918   0.91330   0.00000  Uiso   1.00
H75    H     0.80821   0.33939   0.81360   0.00000  Uiso   1.00
H76    H     0.46803   0.54322   0.04011   0.00000  Uiso   1.00
H77    H     0.50092   0.44427   0.71728   0.00000  Uiso   1.00
H78    H     0.42679   0.36101   0.70693   0.00000  Uiso   1.00
H79    H     0.61596   0.44172   0.65965   0.00000  Uiso   1.00
H80    H     0.45463   0.53839   0.76706   0.00000  Uiso   1.00
H81    H     0.35314   0.25560   0.72411   0.00000  Uiso   1.00
H82    H     0.75202   0.42580   0.62442   0.00000  Uiso   1.00
H83    H     0.41184   0.62964   0.85093   0.00000  Uiso   1.00
O84    O     0.33368   0.15579   0.81588   0.00000  Uiso   1.00
O85    O     0.85699   0.37910   0.68509   0.00000  Uiso   1.00
O86    O     0.41067   0.64652   0.98226   0.00000  Uiso   1.00
N87    N     0.40627   0.20095   0.87020   0.00000  Uiso   1.00
N88    N     0.77920   0.36007   0.77699   0.00000  Uiso   1.00
N89    N     0.46117   0.55065   0.98875   0.00000  Uiso   1.00
N90    N     0.37604   0.24745   0.76840   0.00000  Uiso   1.00
N91    N     0.74896   0.40657   0.67519   0.00000  Uiso   1.00
N92    N     0.43094   0.59715   0.88695   0.00000  Uiso   1.00
C93    C     0.93514   0.20346   0.68567   0.00000  Uiso   1.00
C94    C     0.93915   0.16180   0.63203   0.00000  Uiso   1.00
C95    C     0.97794   0.10930   0.63389   0.00000  Uiso   1.00
C96    C     0.97468   0.07752   0.57993   0.00000  Uiso   1.00
C97    C     0.98710   0.00980   0.50482   0.00000  Uiso   1.00
C98    C     0.94971   0.26539   0.64474   0.00000  Uiso   1.00
C99    C     0.99738   0.29998   0.65729   0.00000  Uiso   1.00
C100   C     0.00301   0.35539   0.61403   0.00000  Uiso   1.00
C101   C     0.03181   0.44851   0.55868   0.00000  Uiso   1.00
C102   C     0.86532   0.20849   0.71229   0.00000  Uiso   1.00
C103   C     0.84204   0.19526   0.78164   0.00000  Uiso   1.00
C104   C     0.77662   0.20278   0.79525   0.00000  Uiso   1.00
C105   C     0.67439   0.20755   0.84478   0.00000  Uiso   1.00
C106   C     0.86037   0.24037   0.58653   0.00000  Uiso   1.00
C107   C     0.89853   0.18185   0.57819   0.00000  Uiso   1.00
C108   C     0.89521   0.15013   0.52421   0.00000  Uiso   1.00
C109   C     0.93399   0.09759   0.52599   0.00000  Uiso   1.00
C110   C     0.90910   0.28543   0.59089   0.00000  Uiso   1.00
C111   C     0.91466   0.34081   0.54760   0.00000  Uiso   1.00
C112   C     0.96233   0.37547   0.56008   0.00000  Uiso   1.00
C113   C     0.82471   0.22853   0.65844   0.00000  Uiso   1.00
C114   C     0.75931   0.23608   0.67195   0.00000  Uiso   1.00
C115   C     0.73593   0.22286   0.74130   0.00000  Uiso   1.00
H116   H     0.96676   0.18786   0.72759   0.00000  Uiso   1.00
H117   H     0.00937   0.09381   0.67557   0.00000  Uiso   1.00
H118   H     0.02880   0.28446   0.69897   0.00000  Uiso   1.00
H119   H     0.87348   0.17975   0.82329   0.00000  Uiso   1.00
H120   H     0.03871   0.99839   0.59414   0.00000  Uiso   1.00
H121   H     0.07968   0.40039   0.64349   0.00000  Uiso   1.00
H122   H     0.75216   0.17959   0.90565   0.00000  Uiso   1.00
H123   H     0.82875   0.25597   0.54460   0.00000  Uiso   1.00
H124   H     0.86378   0.16565   0.48254   0.00000  Uiso   1.00
H125   H     0.88322   0.35630   0.50594   0.00000  Uiso   1.00
H126   H     0.72790   0.25159   0.63026   0.00000  Uiso   1.00
H127   H     0.92055   0.05670   0.43747   0.00000  Uiso   1.00
H128   H     0.96152   0.45870   0.48682   0.00000  Uiso   1.00
H129   H     0.63399   0.23790   0.74898   0.00000  Uiso   1.00
O130   O     0.00518   0.96691   0.47826   0.00000  Uiso   1.00
O131   O     0.05892   0.49433   0.54302   0.00000  Uiso   1.00
O132   O     0.62922   0.20464   0.88697   0.00000  Uiso   1.00
N133   N     0.00608   0.02450   0.56579   0.00000  Uiso   1.00
N134   N     0.04440   0.40034   0.61192   0.00000  Uiso   1.00
N135   N     0.73819   0.19393   0.85703   0.00000  Uiso   1.00
N136   N     0.94250   0.05588   0.48149   0.00000  Uiso   1.00
N137   N     0.98081   0.43172   0.52762   0.00000  Uiso   1.00
N138   N     0.67461   0.22530   0.77272   0.00000  Uiso   1.00
C139   C     0.23920   0.67916   0.35394   0.00000  Uiso   1.00
C140   C     0.17385   0.65657   0.34944   0.00000  Uiso   1.00
C141   C     0.14072   0.61919   0.40224   0.00000  Uiso   1.00
C142   C     0.08160   0.60363   0.38786   0.00000  Uiso   1.00
C143   C     0.98392   0.56537   0.39075   0.00000  Uiso   1.00
C144   C     0.23092   0.74753   0.33719   0.00000  Uiso   1.00
C145   C     0.24579   0.78663   0.37968   0.00000  Uiso   1.00
C146   C     0.23473   0.84764   0.35497   0.00000  Uiso   1.00
C147   C     0.22569   0.95060   0.33882   0.00000  Uiso   1.00
C148   C     0.28126   0.65999   0.29334   0.00000  Uiso   1.00
C149   C     0.33846   0.62550   0.29895   0.00000  Uiso   1.00
C150   C     0.36979   0.61283   0.23732   0.00000  Uiso   1.00
C151   C     0.43891   0.57987   0.15309   0.00000  Uiso   1.00
C152   C     0.19313   0.71800   0.23450   0.00000  Uiso   1.00
C153   C     0.14883   0.67767   0.28457   0.00000  Uiso   1.00
C154   C     0.08974   0.66216   0.27009   0.00000  Uiso   1.00
C155   C     0.05653   0.62476   0.32286   0.00000  Uiso   1.00
C156   C     0.20590   0.76863   0.27232   0.00000  Uiso   1.00
C157   C     0.19481   0.82960   0.24753   0.00000  Uiso   1.00
C158   C     0.20966   0.86878   0.28998   0.00000  Uiso   1.00
C159   C     0.25624   0.68109   0.22846   0.00000  Uiso   1.00
C160   C     0.28748   0.66847   0.16681   0.00000  Uiso   1.00
C161   C     0.34472   0.63396   0.17233   0.00000  Uiso   1.00
H162   H     0.25869   0.66274   0.40445   0.00000  Uiso   1.00
H163   H     0.16010   0.60287   0.45245   0.00000  Uiso   1.00
H164   H     0.26516   0.77029   0.42988   0.00000  Uiso   1.00
H165   H     0.35782   0.60918   0.34917   0.00000  Uiso   1.00
H166   H     0.03975   0.54583   0.47705   0.00000  Uiso   1.00
H167   H     0.26130   0.89883   0.42947   0.00000  Uiso   1.00
H168   H     0.45668   0.55911   0.25927   0.00000  Uiso   1.00
H169   H     0.17365   0.73443   0.18399   0.00000  Uiso   1.00
H170   H     0.07039   0.67850   0.21988   0.00000  Uiso   1.00
H171   H     0.17545   0.84591   0.19732   0.00000  Uiso   1.00
H172   H     0.26810   0.68481   0.11661   0.00000  Uiso   1.00
H173   H     0.96694   0.60721   0.28830   0.00000  Uiso   1.00
H174   H     0.18849   0.96021   0.24072   0.00000  Uiso   1.00
H175   H     0.38387   0.62049   0.07051   0.00000  Uiso   1.00
O176   O     0.93695   0.53845   0.41028   0.00000  Uiso   1.00
O177   O     0.22762   0.00157   0.34785   0.00000  Uiso   1.00
O178   O     0.48395   0.55586   0.12455   0.00000  Uiso   1.00
N179   N     0.03679   0.56794   0.42770   0.00000  Uiso   1.00
N180   N     0.24391   0.89797   0.38322   0.00000  Uiso   1.00
N181   N     0.42659   0.58038   0.22409   0.00000  Uiso   1.00
N182   N     0.99761   0.60097   0.32613   0.00000  Uiso   1.00
N183   N     0.20473   0.93100   0.28165   0.00000  Uiso   1.00
N184   N     0.38741   0.61341   0.12252   0.00000  Uiso   1.00
C185   C     0.06596   0.05023   0.18180   0.00000  Uiso   1.00
C186   C     0.01491   0.06519   0.12934   0.00000  Uiso   1.00
C187   C     0.97244   0.11546   0.12263   0.00000  Uiso   1.00
C188   C     0.92938   0.12100   0.07145   0.00000  Uiso   1.00
C189   C     0.85022   0.15082   0.99649   0.00000  Uiso   1.00
C190   C     0.12889   0.04304   0.13885   0.00000  Uiso   1.00
C191   C     0.18225   0.07467   0.14015   0.00000  Uiso   1.00
C192   C     0.23515   0.06156   0.09697   0.00000  Uiso   1.00
C193   C     0.33296   0.05696   0.03682   0.00000  Uiso   1.00
C194   C     0.05344   0.98794   0.22310   0.00000  Uiso   1.00
C195   C     0.04338   0.97324   0.29523   0.00000  Uiso   1.00
C196   C     0.03277   0.91373   0.32298   0.00000  Uiso   1.00
C197   C     0.01343   0.82358   0.39362   0.00000  Uiso   1.00
C198   C     0.06503   0.97067   0.10284   0.00000  Uiso   1.00
C199   C     0.01441   0.02198   0.08645   0.00000  Uiso   1.00
C200   C     0.97141   0.02744   0.03527   0.00000  Uiso   1.00
C201   C     0.92887   0.07771   0.02848   0.00000  Uiso   1.00
C202   C     0.12839   0.99983   0.09596   0.00000  Uiso   1.00
C203   C     0.18122   0.98666   0.05278   0.00000  Uiso   1.00
C204   C     0.23465   0.01827   0.05400   0.00000  Uiso   1.00
C205   C     0.05294   0.94473   0.18020   0.00000  Uiso   1.00
C206   C     0.04235   0.88523   0.20785   0.00000  Uiso   1.00
C207   C     0.03227   0.87044   0.28001   0.00000  Uiso   1.00
H208   H     0.06636   0.08387   0.21520   0.00000  Uiso   1.00
H209   H     0.97285   0.14889   0.15583   0.00000  Uiso   1.00
H210   H     0.18263   0.10811   0.17335   0.00000  Uiso   1.00
H211   H     0.04378   0.00669   0.32840   0.00000  Uiso   1.00
H212   H     0.86897   0.20194   0.07109   0.00000  Uiso   1.00
H213   H     0.31132   0.11593   0.10804   0.00000  Uiso   1.00
H214   H     0.01852   0.90207   0.43499   0.00000  Uiso   1.00
H215   H     0.06464   0.93703   0.06944   0.00000  Uiso   1.00
H216   H     0.97103   0.99400   0.00208   0.00000  Uiso   1.00
H217   H     0.18082   0.95322   0.01959   0.00000  Uiso   1.00
H218   H     0.04196   0.85180   0.17465   0.00000  Uiso   1.00
H219   H     0.86749   0.07622   0.94629   0.00000  Uiso   1.00
H220   H     0.30985   0.99021   0.98324   0.00000  Uiso   1.00
H221   H     0.01704   0.77636   0.31020   0.00000  Uiso   1.00
O222   O     0.80670   0.17921   0.96699   0.00000  Uiso   1.00
O223   O     0.38705   0.06636   0.01548   0.00000  Uiso   1.00
O224   O     0.00289   0.78579   0.44444   0.00000  Uiso   1.00
N225   N     0.88146   0.16452   0.05097   0.00000  Uiso   1.00
N226   N     0.29503   0.08412   0.08551   0.00000  Uiso   1.00
N227   N     0.02130   0.88418   0.39119   0.00000  Uiso   1.00
N228   N     0.88066   0.09688   0.98382   0.00000  Uiso   1.00
N229   N     0.29423   0.01647   0.01836   0.00000  Uiso   1.00
N230   N     0.02050   0.81653   0.32404   0.00000  Uiso   1.00
C231   C     0.38485   0.91917   0.89490   0.00000  Uiso   1.00
C232   C     0.39208   0.86851   0.85246   0.00000  Uiso   1.00
C233   C     0.44260   0.85847   0.80484   0.00000  Uiso   1.00
C234   C     0.44037   0.80971   0.77135   0.00000  Uiso   1.00
C235   C     0.45937   0.73671   0.70338   0.00000  Uiso   1.00
C236   C     0.37706   0.88895   0.97135   0.00000  Uiso   1.00
C237   C     0.41495   0.89610   0.02369   0.00000  Uiso   1.00
C238   C     0.40006   0.86455   0.09029   0.00000  Uiso   1.00
C239   C     0.39572   0.82331   0.20691   0.00000  Uiso   1.00
C240   C     0.32112   0.95295   0.87818   0.00000  Uiso   1.00
C241   C     0.31196   0.01391   0.85221   0.00000  Uiso   1.00
C242   C     0.24998   0.03625   0.84037   0.00000  Uiso   1.00
C243   C     0.15878   0.09437   0.81234   0.00000  Uiso   1.00
C244   C     0.29106   0.85044   0.92010   0.00000  Uiso   1.00
C245   C     0.34114   0.83118   0.86614   0.00000  Uiso   1.00
C246   C     0.33883   0.78242   0.83271   0.00000  Uiso   1.00
C247   C     0.38934   0.77231   0.78506   0.00000  Uiso   1.00
C248   C     0.32613   0.85161   0.98503   0.00000  Uiso   1.00
C249   C     0.31118   0.82005   0.05157   0.00000  Uiso   1.00
C250   C     0.34903   0.82715   0.10400   0.00000  Uiso   1.00
C251   C     0.27018   0.91561   0.89186   0.00000  Uiso   1.00
C252   C     0.20820   0.93786   0.88007   0.00000  Uiso   1.00
C253   C     0.19894   0.99884   0.85408   0.00000  Uiso   1.00
H254   H     0.42451   0.94824   0.88425   0.00000  Uiso   1.00
H255   H     0.48202   0.88737   0.79427   0.00000  Uiso   1.00
H256   H     0.45436   0.92500   0.01309   0.00000  Uiso   1.00
H257   H     0.35139   0.04279   0.84162   0.00000  Uiso   1.00
H258   H     0.52332   0.80341   0.70056   0.00000  Uiso   1.00
H259   H     0.46499   0.88277   0.16196   0.00000  Uiso   1.00
H260   H     0.24787   0.13115   0.80039   0.00000  Uiso   1.00
H261   H     0.25140   0.82137   0.93075   0.00000  Uiso   1.00
H262   H     0.29941   0.75354   0.84331   0.00000  Uiso   1.00
H263   H     0.27175   0.79116   0.06214   0.00000  Uiso   1.00
H264   H     0.16879   0.90895   0.89067   0.00000  Uiso   1.00
H265   H     0.37511   0.69479   0.74037   0.00000  Uiso   1.00
H266   H     0.31679   0.77414   0.20177   0.00000  Uiso   1.00
H267   H     0.09966   0.02252   0.84020   0.00000  Uiso   1.00
O268   O     0.48393   0.70676   0.66212   0.00000  Uiso   1.00
O269   O     0.40740   0.81088   0.26746   0.00000  Uiso   1.00
O270   O     0.12254   0.13675   0.79309   0.00000  Uiso   1.00
N271   N     0.48184   0.78716   0.72192   0.00000  Uiso   1.00
N272   N     0.42732   0.86135   0.15329   0.00000  Uiso   1.00
N273   N     0.22432   0.09357   0.81528   0.00000  Uiso   1.00
N274   N     0.40209   0.72871   0.74334   0.00000  Uiso   1.00
N275   N     0.34757   0.80290   0.17471   0.00000  Uiso   1.00
N276   N     0.14457   0.03512   0.83670   0.00000  Uiso   1.00
C277   C     0.40686   0.05576   0.63889   0.00000  Uiso   1.00
C278   C     0.46818   0.06519   0.67036   0.00000  Uiso   1.00
C279   C     0.49165   0.03101   0.73043   0.00000  Uiso   1.00
C280   C     0.54855   0.04683   0.75062   0.00000  Uiso   1.00
C281   C     0.63889   0.05411   0.80533   0.00000  Uiso   1.00
C282   C     0.42593   0.04768   0.56383   0.00000  Uiso   1.00
C283   C     0.41387   0.99879   0.53435   0.00000  Uiso   1.00
C284   C     0.43520   0.99988   0.46486   0.00000  Uiso   1.00
C285   C     0.45990   0.98000   0.35417   0.00000  Uiso   1.00
C286   C     0.36711   0.11531   0.63382   0.00000  Uiso   1.00
C287   C     0.30559   0.12328   0.66316   0.00000  Uiso   1.00
C288   C     0.27739   0.18131   0.65258   0.00000  Uiso   1.00
C289   C     0.21076   0.26643   0.65056   0.00000  Uiso   1.00
C290   C     0.46617   0.14463   0.56790   0.00000  Uiso   1.00
C291   C     0.50040   0.11346   0.63180   0.00000  Uiso   1.00
C292   C     0.55728   0.12933   0.65190   0.00000  Uiso   1.00
C293   C     0.58083   0.09519   0.71200   0.00000  Uiso   1.00
C294   C     0.45815   0.09595   0.52528   0.00000  Uiso   1.00
C295   C     0.47949   0.09711   0.45581   0.00000  Uiso   1.00
C296   C     0.46747   0.04824   0.42623   0.00000  Uiso   1.00
C297   C     0.39933   0.16358   0.59527   0.00000  Uiso   1.00
C298   C     0.37122   0.22161   0.58463   0.00000  Uiso   1.00
C299   C     0.30966   0.22967   0.61395   0.00000  Uiso   1.00
H300   H     0.38178   0.01818   0.66890   0.00000  Uiso   1.00
H301   H     0.46671   0.99366   0.76025   0.00000  Uiso   1.00
H302   H     0.38893   0.96145   0.56419   0.00000  Uiso   1.00
H303   H     0.28067   0.08592   0.69299   0.00000  Uiso   1.00
H304   H     0.57509   0.98774   0.84452   0.00000  Uiso   1.00
H305   H     0.41108   0.91984   0.43111   0.00000  Uiso   1.00
H306   H     0.18278   0.18231   0.70271   0.00000  Uiso   1.00
H307   H     0.49126   0.18221   0.53789   0.00000  Uiso   1.00
H308   H     0.58220   0.16669   0.62206   0.00000  Uiso   1.00
H309   H     0.50442   0.13448   0.42600   0.00000  Uiso   1.00
H310   H     0.39616   0.25895   0.55479   0.00000  Uiso   1.00
H311   H     0.66883   0.12818   0.73235   0.00000  Uiso   1.00
H312   H     0.50481   0.06027   0.31894   0.00000  Uiso   1.00
H313   H     0.27652   0.32275   0.59054   0.00000  Uiso   1.00
O314   O     0.67982   0.04478   0.84616   0.00000  Uiso   1.00
O315   O     0.46462   0.95569   0.30378   0.00000  Uiso   1.00
O316   O     0.16511   0.30005   0.66011   0.00000  Uiso   1.00
N317   N     0.58467   0.02293   0.80658   0.00000  Uiso   1.00
N318   N     0.43133   0.95944   0.42007   0.00000  Uiso   1.00
N319   N     0.21789   0.20483   0.67397   0.00000  Uiso   1.00
N320   N     0.63510   0.09850   0.74622   0.00000  Uiso   1.00
N321   N     0.48177   0.03501   0.35971   0.00000  Uiso   1.00
N322   N     0.26833   0.28039   0.61362   0.00000  Uiso   1.00
C323   C     0.68711   0.20830   0.10439   0.00000  Uiso   1.00
C324   C     0.70026   0.27471   0.08801   0.00000  Uiso   1.00
C325   C     0.72841   0.30433   0.02576   0.00000  Uiso   1.00
C326   C     0.73627   0.36516   0.02106   0.00000  Uiso   1.00
C327   C     0.75964   0.46372   0.98716   0.00000  Uiso   1.00
C328   C     0.61594   0.20601   0.12461   0.00000  Uiso   1.00
C329   C     0.57320   0.17786   0.09314   0.00000  Uiso   1.00
C330   C     0.51007   0.18086   0.11926   0.00000  Uiso   1.00
C331   C     0.40254   0.17272   0.14222   0.00000  Uiso   1.00
C332   C     0.72038   0.18211   0.17068   0.00000  Uiso   1.00
C333   C     0.76544   0.13385   0.17794   0.00000  Uiso   1.00
C334   C     0.79024   0.11670   0.24285   0.00000  Uiso   1.00
C335   C     0.84487   0.07144   0.33733   0.00000  Uiso   1.00
C336   C     0.65100   0.26365   0.20675   0.00000  Uiso   1.00
C337   C     0.68064   0.30478   0.14361   0.00000  Uiso   1.00
C338   C     0.68846   0.36558   0.13901   0.00000  Uiso   1.00
C339   C     0.71662   0.39528   0.07676   0.00000  Uiso   1.00
C340   C     0.59632   0.23608   0.18021   0.00000  Uiso   1.00
C341   C     0.53324   0.23911   0.20639   0.00000  Uiso   1.00
C342   C     0.49042   0.21098   0.17496   0.00000  Uiso   1.00
C343   C     0.70077   0.21217   0.22628   0.00000  Uiso   1.00
C344   C     0.72549   0.19509   0.29119   0.00000  Uiso   1.00
C345   C     0.77059   0.14682   0.29855   0.00000  Uiso   1.00
H346   H     0.70238   0.18489   0.06110   0.00000  Uiso   1.00
H347   H     0.74358   0.28105   0.98274   0.00000  Uiso   1.00
H348   H     0.58839   0.15460   0.05012   0.00000  Uiso   1.00
H349   H     0.78061   0.11059   0.13490   0.00000  Uiso   1.00
H350   H     0.78059   0.40092   0.92037   0.00000  Uiso   1.00
H351   H     0.45337   0.13427   0.06245   0.00000  Uiso   1.00
H352   H     0.85870   0.04147   0.24124   0.00000  Uiso   1.00
H353   H     0.63572   0.28706   0.25004   0.00000  Uiso   1.00
H354   H     0.67327   0.38883   0.18205   0.00000  Uiso   1.00
H355   H     0.51808   0.26238   0.24942   0.00000  Uiso   1.00
H356   H     0.71030   0.21837   0.33421   0.00000  Uiso   1.00
H357   H     0.72352   0.48841   0.08213   0.00000  Uiso   1.00
H358   H     0.39630   0.22175   0.22422   0.00000  Uiso   1.00
H359   H     0.80163   0.12896   0.40301   0.00000  Uiso   1.00
O360   O     0.77794   0.50977   0.95311   0.00000  Uiso   1.00
O361   O     0.34864   0.15993   0.13952   0.00000  Uiso   1.00
O362   O     0.88043   0.03818   0.37408   0.00000  Uiso   1.00
N363   N     0.76202   0.40754   0.96778   0.00000  Uiso   1.00
N364   N     0.45608   0.15825   0.10061   0.00000  Uiso   1.00
N365   N     0.83502   0.07148   0.26777   0.00000  Uiso   1.00
N366   N     0.73131   0.45462   0.05482   0.00000  Uiso   1.00
N367   N     0.42538   0.20532   0.18765   0.00000  Uiso   1.00
N368   N     0.80432   0.11855   0.35481   0.00000  Uiso   1.00
C369   C     0.18077   0.41548   0.44976   0.00000  Uiso   1.00
C370   C     0.23292   0.42676   0.49447   0.00000  Uiso   1.00
C371   C     0.22455   0.45790   0.54994   0.00000  Uiso   1.00
C372   C     0.27823   0.46333   0.58424   0.00000  Uiso   1.00
C373   C     0.35008   0.48461   0.65680   0.00000  Uiso   1.00
C374   C     0.18222   0.34754   0.45453   0.00000  Uiso   1.00
C375   C     0.13123   0.31207   0.47642   0.00000  Uiso   1.00
C376   C     0.14224   0.25081   0.47708   0.00000  Uiso   1.00
C377   C     0.13537   0.14909   0.48759   0.00000  Uiso   1.00
C378   C     0.20271   0.44080   0.37443   0.00000  Uiso   1.00
C379   C     0.16894   0.48372   0.32895   0.00000  Uiso   1.00
C380   C     0.19719   0.50097   0.26217   0.00000  Uiso   1.00
C381   C     0.22214   0.54405   0.14830   0.00000  Uiso   1.00
C382   C     0.29099   0.36976   0.41202   0.00000  Uiso   1.00
C383   C     0.29278   0.40193   0.47397   0.00000  Uiso   1.00
C384   C     0.34649   0.40732   0.50819   0.00000  Uiso   1.00
C385   C     0.33820   0.43846   0.56370   0.00000  Uiso   1.00
C386   C     0.24208   0.32271   0.43404   0.00000  Uiso   1.00
C387   C     0.25317   0.26149   0.43466   0.00000  Uiso   1.00
C388   C     0.20221   0.22593   0.45655   0.00000  Uiso   1.00
C389   C     0.26258   0.41597   0.35393   0.00000  Uiso   1.00
C390   C     0.29088   0.43315   0.28720   0.00000  Uiso   1.00
C391   C     0.25716   0.47610   0.24163   0.00000  Uiso   1.00
H392   H     0.13417   0.43480   0.46572   0.00000  Uiso   1.00
H393   H     0.17821   0.47710   0.56579   0.00000  Uiso   1.00
H394   H     0.08491   0.33129   0.49227   0.00000  Uiso   1.00
H395   H     0.12262   0.50293   0.34483   0.00000  Uiso   1.00
H396   H     0.25344   0.51303   0.66772   0.00000  Uiso   1.00
H397   H     0.05670   0.20559   0.51267   0.00000  Uiso   1.00
H398   H     0.13621   0.56751   0.20176   0.00000  Uiso   1.00
H399   H     0.33760   0.35043   0.39607   0.00000  Uiso   1.00
H400   H     0.39281   0.38810   0.49231   0.00000  Uiso   1.00
H401   H     0.29950   0.24229   0.41879   0.00000  Uiso   1.00
H402   H     0.33721   0.41392   0.27136   0.00000  Uiso   1.00
H403   H     0.42761   0.44079   0.60808   0.00000  Uiso   1.00
H404   H     0.23087   0.13335   0.45303   0.00000  Uiso   1.00
H405   H     0.31038   0.49527   0.14213   0.00000  Uiso   1.00
O406   O     0.37317   0.50320   0.70249   0.00000  Uiso   1.00
O407   O     0.11505   0.09985   0.49906   0.00000  Uiso   1.00
O408   O     0.21937   0.57468   0.09116   0.00000  Uiso   1.00
N409   N     0.28686   0.49087   0.64046   0.00000  Uiso   1.00
N410   N     0.10292   0.20343   0.49551   0.00000  Uiso   1.00
N411   N     0.17725   0.54178   0.20484   0.00000  Uiso   1.00
N412   N     0.38058   0.45200   0.60837   0.00000  Uiso   1.00
N413   N     0.19664   0.16456   0.46342   0.00000  Uiso   1.00
N414   N     0.27097   0.50291   0.17275   0.00000  Uiso   1.00
C415   C     0.06259   0.84126   0.57379   0.00000  Uiso   1.00
C416   C     0.11034   0.88786   0.57568   0.00000  Uiso   1.00
C417   C     0.14126   0.92152   0.51783   0.00000  Uiso   1.00
C418   C     0.18320   0.96178   0.53057   0.00000  Uiso   1.00
C419   C     0.25575   0.03315   0.52314   0.00000  Uiso   1.00
C420   C     0.08866   0.78300   0.61730   0.00000  Uiso   1.00
C421   C     0.10134   0.72850   0.59445   0.00000  Uiso   1.00
C422   C     0.12502   0.68049   0.64222   0.00000  Uiso   1.00
C423   C     0.16387   0.58906   0.69942   0.00000  Uiso   1.00
C424   C     0.00214   0.86088   0.61439   0.00000  Uiso   1.00
C425   C     0.94207   0.87186   0.58909   0.00000  Uiso   1.00
C426   C     0.89290   0.88940   0.63441   0.00000  Uiso   1.00
C427   C     0.79741   0.91890   0.68708   0.00000  Uiso   1.00
C428   C     0.08208   0.85288   0.69928   0.00000  Uiso   1.00
C429   C     0.12092   0.89417   0.64384   0.00000  Uiso   1.00
C430   C     0.16282   0.93438   0.65667   0.00000  Uiso   1.00
C431   C     0.19380   0.96810   0.59885   0.00000  Uiso   1.00
C432   C     0.09924   0.78931   0.68546   0.00000  Uiso   1.00
C433   C     0.12290   0.74137   0.73328   0.00000  Uiso   1.00
C434   C     0.13562   0.68681   0.71051   0.00000  Uiso   1.00
C435   C     0.01272   0.86720   0.68255   0.00000  Uiso   1.00
C436   C     0.96363   0.88472   0.72792   0.00000  Uiso   1.00
C437   C     0.90350   0.89572   0.70270   0.00000  Uiso   1.00
H438   H     0.05436   0.83634   0.52073   0.00000  Uiso   1.00
H439   H     0.13306   0.91662   0.46509   0.00000  Uiso   1.00
H440   H     0.09314   0.72363   0.54170   0.00000  Uiso   1.00
H441   H     0.93390   0.86697   0.53634   0.00000  Uiso   1.00
H442   H     0.22501   0.00839   0.43347   0.00000  Uiso   1.00
H443   H     0.14082   0.60146   0.59501   0.00000  Uiso   1.00
H444   H     0.80502   0.90371   0.58370   0.00000  Uiso   1.00
H445   H     0.09032   0.85780   0.75235   0.00000  Uiso   1.00
H446   H     0.17100   0.93926   0.70942   0.00000  Uiso   1.00
H447   H     0.13108   0.74627   0.78603   0.00000  Uiso   1.00
H448   H     0.97184   0.88960   0.78066   0.00000  Uiso   1.00
H449   H     0.25581   0.02676   0.63178   0.00000  Uiso   1.00
H450   H     0.17161   0.61983   0.79331   0.00000  Uiso   1.00
H451   H     0.83581   0.92208   0.78201   0.00000  Uiso   1.00
O452   O     0.29285   0.07076   0.50021   0.00000  Uiso   1.00
O453   O     0.18238   0.53688   0.71214   0.00000  Uiso   1.00
O454   O     0.74182   0.93343   0.69730   0.00000  Uiso   1.00
N455   N     0.22118   0.00154   0.48603   0.00000  Uiso   1.00
N456   N     0.14247   0.62109   0.63706   0.00000  Uiso   1.00
N457   N     0.82852   0.90365   0.62649   0.00000  Uiso   1.00
N458   N     0.23775   0.01143   0.59274   0.00000  Uiso   1.00
N459   N     0.15904   0.63098   0.74376   0.00000  Uiso   1.00
N460   N     0.84509   0.91354   0.73320   0.00000  Uiso   1.00
C461   C     0.18221   0.36400   0.95093   0.00000  Uiso   1.00
C462   C     0.19492   0.34676   0.02807   0.00000  Uiso   1.00
C463   C     0.23187   0.29681   0.05776   0.00000  Uiso   1.00
C464   C     0.23763   0.28893   0.12930   0.00000  Uiso   1.00
C465   C     0.26192   0.25596   0.24294   0.00000  Uiso   1.00
C466   C     0.11003   0.36894   0.94819   0.00000  Uiso   1.00
C467   C     0.07562   0.33763   0.91071   0.00000  Uiso   1.00
C468   C     0.00993   0.34844   0.91500   0.00000  Uiso   1.00
C469   C     0.90243   0.34993   0.90459   0.00000  Uiso   1.00
C470   C     0.20366   0.42760   0.92742   0.00000  Uiso   1.00
C471   C     0.24796   0.44562   0.87246   0.00000  Uiso   1.00
C472   C     0.26108   0.50582   0.85925   0.00000  Uiso   1.00
C473   C     0.29896   0.59838   0.81659   0.00000  Uiso   1.00
C474   C     0.12673   0.43885   0.02519   0.00000  Uiso   1.00
C475   C     0.16478   0.38742   0.06841   0.00000  Uiso   1.00
C476   C     0.17049   0.37962   0.13992   0.00000  Uiso   1.00
C477   C     0.20745   0.32966   0.16970   0.00000  Uiso   1.00
C478   C     0.07990   0.40959   0.98853   0.00000  Uiso   1.00
C479   C     0.01424   0.42045   0.99287   0.00000  Uiso   1.00
C480   C     0.97974   0.38916   0.95541   0.00000  Uiso   1.00
C481   C     0.17353   0.46825   0.96776   0.00000  Uiso   1.00
C482   C     0.18658   0.52843   0.95462   0.00000  Uiso   1.00
C483   C     0.23089   0.54654   0.89966   0.00000  Uiso   1.00
H484   H     0.20567   0.33235   0.91953   0.00000  Uiso   1.00
H485   H     0.25518   0.26535   0.02652   0.00000  Uiso   1.00
H486   H     0.09896   0.30618   0.87949   0.00000  Uiso   1.00
H487   H     0.27127   0.41415   0.84125   0.00000  Uiso   1.00
H488   H     0.29676   0.20899   0.16294   0.00000  Uiso   1.00
H489   H     0.96736   0.29509   0.85290   0.00000  Uiso   1.00
H490   H     0.33071   0.52277   0.77226   0.00000  Uiso   1.00
H491   H     0.10327   0.47050   0.05660   0.00000  Uiso   1.00
H492   H     0.14717   0.41109   0.17112   0.00000  Uiso   1.00
H493   H     0.99094   0.45191   0.02409   0.00000  Uiso   1.00
H494   H     0.16325   0.55988   0.98585   0.00000  Uiso   1.00
H495   H     0.20909   0.32727   0.28030   0.00000  Uiso   1.00
H496   H     0.87968   0.41337   0.97026   0.00000  Uiso   1.00
H497   H     0.24304   0.64105   0.88962   0.00000  Uiso   1.00
O498   O     0.28363   0.22654   0.29449   0.00000  Uiso   1.00
O499   O     0.85147   0.33951   0.88772   0.00000  Uiso   1.00
O500   O     0.32818   0.63821   0.78193   0.00000  Uiso   1.00
N501   N     0.27012   0.24499   0.17485   0.00000  Uiso   1.00
N502   N     0.96214   0.32548   0.88498   0.00000  Uiso   1.00
N503   N     0.30184   0.53834   0.80958   0.00000  Uiso   1.00
N504   N     0.22294   0.30863   0.23800   0.00000  Uiso   1.00
N505   N     0.91496   0.38913   0.94813   0.00000  Uiso   1.00
N506   N     0.25466   0.60199   0.87273   0.00000  Uiso   1.00
C507   C     0.65284   0.81384   0.08367   0.00000  Uiso   1.00
C508   C     0.64620   0.87444   0.10785   0.00000  Uiso   1.00
C509   C     0.59914   0.89234   0.15522   0.00000  Uiso   1.00
C510   C     0.60132   0.94956   0.17050   0.00000  Uiso   1.00
C511   C     0.58375   0.03791   0.21274   0.00000  Uiso   1.00
C512   C     0.65272   0.82775   0.00418   0.00000  Uiso   1.00
C513   C     0.61114   0.80639   0.96440   0.00000  Uiso   1.00
C514   C     0.61881   0.82430   0.89241   0.00000  Uiso   1.00
C515   C     0.61139   0.84012   0.77370   0.00000  Uiso   1.00
C516   C     0.71960   0.78715   0.09982   0.00000  Uiso   1.00
C517   C     0.73427   0.73164   0.14044   0.00000  Uiso   1.00
C518   C     0.79826   0.71536   0.14897   0.00000  Uiso   1.00
C519   C     0.89469   0.66814   0.17876   0.00000  Uiso   1.00
C520   C     0.74039   0.88362   0.02655   0.00000  Uiso   1.00
C521   C     0.69376   0.91234   0.07682   0.00000  Uiso   1.00
C522   C     0.69601   0.96955   0.09204   0.00000  Uiso   1.00
C523   C     0.64896   0.98753   0.13943   0.00000  Uiso   1.00
C524   C     0.70027   0.86565   0.97316   0.00000  Uiso   1.00
C525   C     0.70800   0.88360   0.90121   0.00000  Uiso   1.00
C526   C     0.66645   0.86227   0.86133   0.00000  Uiso   1.00
C527   C     0.76716   0.82505   0.06881   0.00000  Uiso   1.00
C528   C     0.83114   0.80885   0.07726   0.00000  Uiso   1.00
C529   C     0.84590   0.75333   0.11789   0.00000  Uiso   1.00
H530   H     0.61582   0.78433   0.10781   0.00000  Uiso   1.00
H531   H     0.56234   0.86300   0.17921   0.00000  Uiso   1.00
H532   H     0.57435   0.77705   0.98842   0.00000  Uiso   1.00
H533   H     0.69746   0.70232   0.16444   0.00000  Uiso   1.00
H534   H     0.52401   0.96694   0.24467   0.00000  Uiso   1.00
H535   H     0.54934   0.78571   0.84237   0.00000  Uiso   1.00
H536   H     0.80894   0.62811   0.21355   0.00000  Uiso   1.00
H537   H     0.77742   0.91313   0.00240   0.00000  Uiso   1.00
H538   H     0.73281   0.99887   0.06802   0.00000  Uiso   1.00
H539   H     0.74481   0.91293   0.87722   0.00000  Uiso   1.00
H540   H     0.86793   0.83819   0.05325   0.00000  Uiso   1.00
H541   H     0.66237   0.07723   0.15442   0.00000  Uiso   1.00
H542   H     0.68769   0.89598   0.75212   0.00000  Uiso   1.00
H543   H     0.94730   0.73839   0.12330   0.00000  Uiso   1.00
O544   O     0.56092   0.07617   0.24460   0.00000  Uiso   1.00
O545   O     0.59415   0.83838   0.71679   0.00000  Uiso   1.00
O546   O     0.93475   0.63163   0.20378   0.00000  Uiso   1.00
N547   N     0.56271   0.98113   0.21444   0.00000  Uiso   1.00
N548   N     0.58637   0.81169   0.83831   0.00000  Uiso   1.00
N549   N     0.82909   0.66434   0.18532   0.00000  Uiso   1.00
N550   N     0.63716   0.04047   0.16588   0.00000  Uiso   1.00
N551   N     0.66082   0.87103   0.78975   0.00000  Uiso   1.00
N552   N     0.90354   0.72369   0.13676   0.00000  Uiso   1.00
