data_job_02054
_audit_creation_date              2018-12-19
_audit_creation_method            'Materials Studio'
_symmetry_space_group_name_H-M    'P1'
_symmetry_Int_Tables_number       1
_symmetry_cell_setting            triclinic
loop_
_symmetry_equiv_pos_as_xyz
  x,y,z
_cell_length_a                    18.0898
_cell_length_b                    15.5433
_cell_length_c                    9.4417
_cell_angle_alpha                 90.0000
_cell_angle_beta                  90.0000
_cell_angle_gamma                 90.0000
loop_
_atom_site_label
_atom_site_type_symbol
_atom_site_fract_x
_atom_site_fract_y
_atom_site_fract_z
_atom_site_U_iso_or_equiv
_atom_site_adp_type
_atom_site_occupancy
C1     C     0.20083   0.67743   0.93774   0.00000  Uiso   1.00
C2     C     0.15650   0.73875   0.03092   0.00000  Uiso   1.00
C3     C     0.08043   0.73710   0.04978   0.00000  Uiso   1.00
C4     C     0.05038   0.79871   0.13936   0.00000  Uiso   1.00
C5     C     0.97477   0.88466   0.27362   0.00000  Uiso   1.00
C6     C     0.24351   0.73397   0.83413   0.00000  Uiso   1.00
C7     C     0.24061   0.72831   0.68754   0.00000  Uiso   1.00
C8     C     0.28381   0.78588   0.61146   0.00000  Uiso   1.00
C9     C     0.34333   0.86438   0.44020   0.00000  Uiso   1.00
C10    C     0.25860   0.63655   0.03418   0.00000  Uiso   1.00
C11    C     0.26841   0.54897   0.05577   0.00000  Uiso   1.00
C12    C     0.32434   0.52453   0.14810   0.00000  Uiso   1.00
C13    C     0.40730   0.45177   0.28745   0.00000  Uiso   1.00
C14    C     0.28273   0.78975   0.06327   0.00000  Uiso   1.00
C15    C     0.20098   0.79975   0.09910   0.00000  Uiso   1.00
C16    C     0.17104   0.86137   0.18867   0.00000  Uiso   1.00
C17    C     0.09494   0.85982   0.20767   0.00000  Uiso   1.00
C18    C     0.28799   0.79498   0.90231   0.00000  Uiso   1.00
C19    C     0.33122   0.85257   0.82643   0.00000  Uiso   1.00
C20    C     0.32838   0.84700   0.67976   0.00000  Uiso   1.00
C21    C     0.30309   0.69756   0.10237   0.00000  Uiso   1.00
C22    C     0.35902   0.67325   0.19467   0.00000  Uiso   1.00
C23    C     0.36890   0.58565   0.21640   0.00000  Uiso   1.00
H24    H     0.16620   0.62994   0.88464   0.00000  Uiso   1.00
H25    H     0.04602   0.68989   0.99699   0.00000  Uiso   1.00
H26    H     0.20618   0.68108   0.63480   0.00000  Uiso   1.00
H27    H     0.23398   0.50178   0.00299   0.00000  Uiso   1.00
H28    H     0.93240   0.78327   0.15157   0.00000  Uiso   1.00
H29    H     0.27012   0.76470   0.38789   0.00000  Uiso   1.00
H30    H     0.32874   0.38660   0.16427   0.00000  Uiso   1.00
H31    H     0.31736   0.83725   0.11635   0.00000  Uiso   1.00
H32    H     0.20548   0.90858   0.24142   0.00000  Uiso   1.00
H33    H     0.36564   0.89977   0.87923   0.00000  Uiso   1.00
H34    H     0.39343   0.72047   0.24741   0.00000  Uiso   1.00
H35    H     0.06182   0.96078   0.34996   0.00000  Uiso   1.00
H36    H     0.39954   0.94219   0.58627   0.00000  Uiso   1.00
H37    H     0.45816   0.56410   0.36265   0.00000  Uiso   1.00
O38    O     0.92077   0.91522   0.32882   0.00000  Uiso   1.00
O39    O     0.36387   0.89083   0.32689   0.00000  Uiso   1.00
O40    O     0.44076   0.39479   0.34549   0.00000  Uiso   1.00
N41    N     0.97821   0.81525   0.18112   0.00000  Uiso   1.00
N42    N     0.29395   0.79789   0.46712   0.00000  Uiso   1.00
N43    N     0.34877   0.44440   0.19294   0.00000  Uiso   1.00
N44    N     0.04785   0.91076   0.28787   0.00000  Uiso   1.00
N45    N     0.36359   0.89340   0.57387   0.00000  Uiso   1.00
N46    N     0.41841   0.53991   0.29969   0.00000  Uiso   1.00
C47    C     0.79917   0.32257   0.93774   0.00000  Uiso   1.00
C48    C     0.84350   0.26125   0.03092   0.00000  Uiso   1.00
C49    C     0.91957   0.26290   0.04978   0.00000  Uiso   1.00
C50    C     0.94962   0.20129   0.13936   0.00000  Uiso   1.00
C51    C     0.02523   0.11534   0.27362   0.00000  Uiso   1.00
C52    C     0.75649   0.26603   0.83413   0.00000  Uiso   1.00
C53    C     0.75939   0.27169   0.68754   0.00000  Uiso   1.00
C54    C     0.71619   0.21412   0.61146   0.00000  Uiso   1.00
C55    C     0.65667   0.13562   0.44020   0.00000  Uiso   1.00
C56    C     0.74140   0.36345   0.03418   0.00000  Uiso   1.00
C57    C     0.73159   0.45103   0.05577   0.00000  Uiso   1.00
C58    C     0.67566   0.47547   0.14810   0.00000  Uiso   1.00
C59    C     0.59270   0.54823   0.28745   0.00000  Uiso   1.00
C60    C     0.71727   0.21025   0.06327   0.00000  Uiso   1.00
C61    C     0.79902   0.20025   0.09910   0.00000  Uiso   1.00
C62    C     0.82896   0.13863   0.18867   0.00000  Uiso   1.00
C63    C     0.90506   0.14018   0.20767   0.00000  Uiso   1.00
C64    C     0.71201   0.20502   0.90231   0.00000  Uiso   1.00
C65    C     0.66878   0.14743   0.82643   0.00000  Uiso   1.00
C66    C     0.67162   0.15300   0.67976   0.00000  Uiso   1.00
C67    C     0.69691   0.30244   0.10237   0.00000  Uiso   1.00
C68    C     0.64098   0.32675   0.19467   0.00000  Uiso   1.00
C69    C     0.63110   0.41435   0.21640   0.00000  Uiso   1.00
H70    H     0.83380   0.37006   0.88464   0.00000  Uiso   1.00
H71    H     0.95398   0.31011   0.99699   0.00000  Uiso   1.00
H72    H     0.79382   0.31892   0.63480   0.00000  Uiso   1.00
H73    H     0.76602   0.49822   0.00299   0.00000  Uiso   1.00
H74    H     0.06760   0.21673   0.15157   0.00000  Uiso   1.00
H75    H     0.72988   0.23530   0.38789   0.00000  Uiso   1.00
H76    H     0.67126   0.61340   0.16427   0.00000  Uiso   1.00
H77    H     0.68264   0.16275   0.11635   0.00000  Uiso   1.00
H78    H     0.79452   0.09142   0.24142   0.00000  Uiso   1.00
H79    H     0.63436   0.10023   0.87923   0.00000  Uiso   1.00
H80    H     0.60657   0.27953   0.24741   0.00000  Uiso   1.00
H81    H     0.93818   0.03922   0.34996   0.00000  Uiso   1.00
H82    H     0.60046   0.05781   0.58627   0.00000  Uiso   1.00
H83    H     0.54184   0.43590   0.36265   0.00000  Uiso   1.00
O84    O     0.07923   0.08478   0.32882   0.00000  Uiso   1.00
O85    O     0.63613   0.10917   0.32689   0.00000  Uiso   1.00
O86    O     0.55924   0.60521   0.34549   0.00000  Uiso   1.00
N87    N     0.02179   0.18475   0.18112   0.00000  Uiso   1.00
N88    N     0.70605   0.20211   0.46712   0.00000  Uiso   1.00
N89    N     0.65123   0.55560   0.19294   0.00000  Uiso   1.00
N90    N     0.95215   0.08924   0.28787   0.00000  Uiso   1.00
N91    N     0.63641   0.10660   0.57387   0.00000  Uiso   1.00
N92    N     0.58159   0.46009   0.29969   0.00000  Uiso   1.00
C93    C     0.29917   0.17743   0.06226   0.00000  Uiso   1.00
C94    C     0.34350   0.23875   0.96908   0.00000  Uiso   1.00
C95    C     0.41957   0.23710   0.95022   0.00000  Uiso   1.00
C96    C     0.44962   0.29871   0.86064   0.00000  Uiso   1.00
C97    C     0.52523   0.38466   0.72638   0.00000  Uiso   1.00
C98    C     0.25649   0.23397   0.16587   0.00000  Uiso   1.00
C99    C     0.25939   0.22831   0.31246   0.00000  Uiso   1.00
C100   C     0.21619   0.28588   0.38854   0.00000  Uiso   1.00
C101   C     0.15667   0.36438   0.55980   0.00000  Uiso   1.00
C102   C     0.24140   0.13655   0.96582   0.00000  Uiso   1.00
C103   C     0.23159   0.04897   0.94423   0.00000  Uiso   1.00
C104   C     0.17566   0.02453   0.85190   0.00000  Uiso   1.00
C105   C     0.09270   0.95177   0.71255   0.00000  Uiso   1.00
C106   C     0.21727   0.28975   0.93673   0.00000  Uiso   1.00
C107   C     0.29902   0.29975   0.90090   0.00000  Uiso   1.00
C108   C     0.32896   0.36137   0.81133   0.00000  Uiso   1.00
C109   C     0.40506   0.35982   0.79233   0.00000  Uiso   1.00
C110   C     0.21201   0.29498   0.09769   0.00000  Uiso   1.00
C111   C     0.16878   0.35257   0.17357   0.00000  Uiso   1.00
C112   C     0.17162   0.34700   0.32024   0.00000  Uiso   1.00
C113   C     0.19691   0.19756   0.89763   0.00000  Uiso   1.00
C114   C     0.14098   0.17325   0.80533   0.00000  Uiso   1.00
C115   C     0.13110   0.08565   0.78360   0.00000  Uiso   1.00
H116   H     0.33380   0.12994   0.11536   0.00000  Uiso   1.00
H117   H     0.45398   0.18989   0.00301   0.00000  Uiso   1.00
H118   H     0.29382   0.18108   0.36520   0.00000  Uiso   1.00
H119   H     0.26602   0.00178   0.99701   0.00000  Uiso   1.00
H120   H     0.56760   0.28327   0.84843   0.00000  Uiso   1.00
H121   H     0.22988   0.26470   0.61211   0.00000  Uiso   1.00
H122   H     0.17126   0.88660   0.83573   0.00000  Uiso   1.00
H123   H     0.18264   0.33725   0.88365   0.00000  Uiso   1.00
H124   H     0.29452   0.40858   0.75858   0.00000  Uiso   1.00
H125   H     0.13436   0.39977   0.12077   0.00000  Uiso   1.00
H126   H     0.10657   0.22047   0.75259   0.00000  Uiso   1.00
H127   H     0.43818   0.46078   0.65004   0.00000  Uiso   1.00
H128   H     0.10046   0.44219   0.41373   0.00000  Uiso   1.00
H129   H     0.04184   0.06410   0.63735   0.00000  Uiso   1.00
O130   O     0.57923   0.41522   0.67118   0.00000  Uiso   1.00
O131   O     0.13613   0.39083   0.67311   0.00000  Uiso   1.00
O132   O     0.05924   0.89479   0.65451   0.00000  Uiso   1.00
N133   N     0.52179   0.31525   0.81888   0.00000  Uiso   1.00
N134   N     0.20605   0.29789   0.53288   0.00000  Uiso   1.00
N135   N     0.15123   0.94440   0.80706   0.00000  Uiso   1.00
N136   N     0.45215   0.41076   0.71213   0.00000  Uiso   1.00
N137   N     0.13641   0.39340   0.42613   0.00000  Uiso   1.00
N138   N     0.08159   0.03991   0.70031   0.00000  Uiso   1.00
C139   C     0.70083   0.82257   0.06226   0.00000  Uiso   1.00
C140   C     0.65650   0.76125   0.96908   0.00000  Uiso   1.00
C141   C     0.58043   0.76290   0.95022   0.00000  Uiso   1.00
C142   C     0.55038   0.70129   0.86064   0.00000  Uiso   1.00
C143   C     0.47477   0.61534   0.72638   0.00000  Uiso   1.00
C144   C     0.74351   0.76603   0.16587   0.00000  Uiso   1.00
C145   C     0.74061   0.77169   0.31246   0.00000  Uiso   1.00
C146   C     0.78381   0.71412   0.38854   0.00000  Uiso   1.00
C147   C     0.84333   0.63562   0.55980   0.00000  Uiso   1.00
C148   C     0.75860   0.86345   0.96582   0.00000  Uiso   1.00
C149   C     0.76841   0.95103   0.94423   0.00000  Uiso   1.00
C150   C     0.82434   0.97547   0.85190   0.00000  Uiso   1.00
C151   C     0.90730   0.04823   0.71255   0.00000  Uiso   1.00
C152   C     0.78273   0.71025   0.93673   0.00000  Uiso   1.00
C153   C     0.70098   0.70025   0.90090   0.00000  Uiso   1.00
C154   C     0.67104   0.63863   0.81133   0.00000  Uiso   1.00
C155   C     0.59494   0.64018   0.79233   0.00000  Uiso   1.00
C156   C     0.78799   0.70502   0.09769   0.00000  Uiso   1.00
C157   C     0.83122   0.64743   0.17357   0.00000  Uiso   1.00
C158   C     0.82838   0.65300   0.32024   0.00000  Uiso   1.00
C159   C     0.80309   0.80244   0.89763   0.00000  Uiso   1.00
C160   C     0.85902   0.82675   0.80533   0.00000  Uiso   1.00
C161   C     0.86890   0.91435   0.78360   0.00000  Uiso   1.00
H162   H     0.66620   0.87006   0.11536   0.00000  Uiso   1.00
H163   H     0.54602   0.81011   0.00301   0.00000  Uiso   1.00
H164   H     0.70618   0.81892   0.36520   0.00000  Uiso   1.00
H165   H     0.73398   0.99822   0.99701   0.00000  Uiso   1.00
H166   H     0.43240   0.71673   0.84843   0.00000  Uiso   1.00
H167   H     0.77012   0.73530   0.61211   0.00000  Uiso   1.00
H168   H     0.82874   0.11340   0.83573   0.00000  Uiso   1.00
H169   H     0.81736   0.66275   0.88365   0.00000  Uiso   1.00
H170   H     0.70548   0.59142   0.75858   0.00000  Uiso   1.00
H171   H     0.86564   0.60023   0.12077   0.00000  Uiso   1.00
H172   H     0.89343   0.77953   0.75259   0.00000  Uiso   1.00
H173   H     0.56182   0.53922   0.65004   0.00000  Uiso   1.00
H174   H     0.89954   0.55781   0.41373   0.00000  Uiso   1.00
H175   H     0.95816   0.93590   0.63735   0.00000  Uiso   1.00
O176   O     0.42077   0.58478   0.67118   0.00000  Uiso   1.00
O177   O     0.86387   0.60917   0.67311   0.00000  Uiso   1.00
O178   O     0.94076   0.10521   0.65451   0.00000  Uiso   1.00
N179   N     0.47821   0.68475   0.81888   0.00000  Uiso   1.00
N180   N     0.79395   0.70211   0.53288   0.00000  Uiso   1.00
N181   N     0.84877   0.05560   0.80706   0.00000  Uiso   1.00
N182   N     0.54785   0.58924   0.71213   0.00000  Uiso   1.00
N183   N     0.86359   0.60660   0.42613   0.00000  Uiso   1.00
N184   N     0.91841   0.96009   0.70031   0.00000  Uiso   1.00
