data_job_05108
_audit_creation_date              2018-12-19
_audit_creation_method            'Materials Studio'
_symmetry_space_group_name_H-M    'P1'
_symmetry_Int_Tables_number       1
_symmetry_cell_setting            triclinic
loop_
_symmetry_equiv_pos_as_xyz
  x,y,z
_cell_length_a                    14.9158
_cell_length_b                    13.7222
_cell_length_c                    12.5158
_cell_angle_alpha                 90.0000
_cell_angle_beta                  90.0000
_cell_angle_gamma                 90.0000
loop_
_atom_site_label
_atom_site_type_symbol
_atom_site_fract_x
_atom_site_fract_y
_atom_site_fract_z
_atom_site_U_iso_or_equiv
_atom_site_adp_type
_atom_site_occupancy
C1     C     0.70488   0.55665   0.11626   0.00000  Uiso   1.00
C2     C     0.75240   0.48958   0.19518   0.00000  Uiso   1.00
C3     C     0.71555   0.45203   0.28830   0.00000  Uiso   1.00
C4     C     0.76996   0.39204   0.34975   0.00000  Uiso   1.00
C5     C     0.83037   0.29122   0.47700   0.00000  Uiso   1.00
C6     C     0.76347   0.64731   0.10681   0.00000  Uiso   1.00
C7     C     0.73592   0.74238   0.12562   0.00000  Uiso   1.00
C8     C     0.79965   0.81518   0.11265   0.00000  Uiso   1.00
C9     C     0.87722   0.95924   0.10262   0.00000  Uiso   1.00
C10    C     0.70989   0.50582   0.00808   0.00000  Uiso   1.00
C11    C     0.63730   0.48195   0.94384   0.00000  Uiso   1.00
C12    C     0.65593   0.43565   0.84773   0.00000  Uiso   1.00
C13    C     0.65032   0.36004   0.68441   0.00000  Uiso   1.00
C14    C     0.86704   0.51689   0.05978   0.00000  Uiso   1.00
C15    C     0.84048   0.46799   0.16451   0.00000  Uiso   1.00
C16    C     0.89496   0.40804   0.22582   0.00000  Uiso   1.00
C17    C     0.85820   0.37040   0.31902   0.00000  Uiso   1.00
C18    C     0.85155   0.62572   0.07614   0.00000  Uiso   1.00
C19    C     0.91533   0.69839   0.06314   0.00000  Uiso   1.00
C20    C     0.88789   0.79354   0.08192   0.00000  Uiso   1.00
C21    C     0.79797   0.48423   0.97740   0.00000  Uiso   1.00
C22    C     0.81671   0.43796   0.88137   0.00000  Uiso   1.00
C23    C     0.74416   0.41401   0.81700   0.00000  Uiso   1.00
H24    H     0.63631   0.57347   0.14014   0.00000  Uiso   1.00
H25    H     0.64739   0.46877   0.31202   0.00000  Uiso   1.00
H26    H     0.66775   0.75907   0.14934   0.00000  Uiso   1.00
H27    H     0.56915   0.49868   0.96760   0.00000  Uiso   1.00
H28    H     0.69853   0.34319   0.48908   0.00000  Uiso   1.00
H29    H     0.74146   0.95531   0.14603   0.00000  Uiso   1.00
H30    H     0.53354   0.40623   0.76280   0.00000  Uiso   1.00
H31    H     0.93561   0.50008   0.03590   0.00000  Uiso   1.00
H32    H     0.96312   0.39134   0.20207   0.00000  Uiso   1.00
H33    H     0.98348   0.68165   0.03939   0.00000  Uiso   1.00
H34    H     0.88488   0.42126   0.85766   0.00000  Uiso   1.00
H35    H     0.95479   0.28035   0.39984   0.00000  Uiso   1.00
H36    H     0.99772   0.89248   0.05679   0.00000  Uiso   1.00
H37    H     0.78980   0.34339   0.67356   0.00000  Uiso   1.00
O38    O     0.83936   0.24159   0.55567   0.00000  Uiso   1.00
O39    O     0.89568   0.04468   0.10558   0.00000  Uiso   1.00
O40    O     0.62289   0.32428   0.60280   0.00000  Uiso   1.00
N41    N     0.75506   0.34330   0.44526   0.00000  Uiso   1.00
N42    N     0.79520   0.91561   0.12455   0.00000  Uiso   1.00
N43    N     0.60081   0.40228   0.76624   0.00000  Uiso   1.00
N44    N     0.89295   0.30949   0.39724   0.00000  Uiso   1.00
N45    N     0.93309   0.88179   0.07653   0.00000  Uiso   1.00
N46    N     0.73870   0.36847   0.71823   0.00000  Uiso   1.00
C47    C     0.29512   0.44335   0.11626   0.00000  Uiso   1.00
C48    C     0.24760   0.51042   0.19518   0.00000  Uiso   1.00
C49    C     0.28445   0.54797   0.28830   0.00000  Uiso   1.00
C50    C     0.23004   0.60796   0.34975   0.00000  Uiso   1.00
C51    C     0.16963   0.70878   0.47700   0.00000  Uiso   1.00
C52    C     0.23653   0.35269   0.10681   0.00000  Uiso   1.00
C53    C     0.26408   0.25762   0.12562   0.00000  Uiso   1.00
C54    C     0.20035   0.18482   0.11265   0.00000  Uiso   1.00
C55    C     0.12278   0.04076   0.10262   0.00000  Uiso   1.00
C56    C     0.29011   0.49418   0.00808   0.00000  Uiso   1.00
C57    C     0.36270   0.51805   0.94384   0.00000  Uiso   1.00
C58    C     0.34407   0.56435   0.84773   0.00000  Uiso   1.00
C59    C     0.34968   0.63996   0.68441   0.00000  Uiso   1.00
C60    C     0.13296   0.48311   0.05978   0.00000  Uiso   1.00
C61    C     0.15952   0.53201   0.16451   0.00000  Uiso   1.00
C62    C     0.10504   0.59196   0.22582   0.00000  Uiso   1.00
C63    C     0.14180   0.62960   0.31902   0.00000  Uiso   1.00
C64    C     0.14845   0.37428   0.07614   0.00000  Uiso   1.00
C65    C     0.08467   0.30161   0.06314   0.00000  Uiso   1.00
C66    C     0.11211   0.20646   0.08192   0.00000  Uiso   1.00
C67    C     0.20203   0.51577   0.97740   0.00000  Uiso   1.00
C68    C     0.18329   0.56204   0.88137   0.00000  Uiso   1.00
C69    C     0.25584   0.58599   0.81700   0.00000  Uiso   1.00
H70    H     0.36369   0.42653   0.14014   0.00000  Uiso   1.00
H71    H     0.35261   0.53123   0.31202   0.00000  Uiso   1.00
H72    H     0.33225   0.24093   0.14934   0.00000  Uiso   1.00
H73    H     0.43085   0.50132   0.96760   0.00000  Uiso   1.00
H74    H     0.30147   0.65681   0.48908   0.00000  Uiso   1.00
H75    H     0.25854   0.04469   0.14603   0.00000  Uiso   1.00
H76    H     0.46646   0.59377   0.76280   0.00000  Uiso   1.00
H77    H     0.06439   0.49992   0.03590   0.00000  Uiso   1.00
H78    H     0.03688   0.60866   0.20207   0.00000  Uiso   1.00
H79    H     0.01652   0.31835   0.03939   0.00000  Uiso   1.00
H80    H     0.11512   0.57874   0.85766   0.00000  Uiso   1.00
H81    H     0.04521   0.71965   0.39984   0.00000  Uiso   1.00
H82    H     0.00228   0.10752   0.05679   0.00000  Uiso   1.00
H83    H     0.21020   0.65661   0.67356   0.00000  Uiso   1.00
O84    O     0.16064   0.75841   0.55567   0.00000  Uiso   1.00
O85    O     0.10432   0.95532   0.10558   0.00000  Uiso   1.00
O86    O     0.37711   0.67572   0.60280   0.00000  Uiso   1.00
N87    N     0.24494   0.65670   0.44526   0.00000  Uiso   1.00
N88    N     0.20480   0.08439   0.12455   0.00000  Uiso   1.00
N89    N     0.39919   0.59772   0.76624   0.00000  Uiso   1.00
N90    N     0.10705   0.69051   0.39724   0.00000  Uiso   1.00
N91    N     0.06691   0.11821   0.07653   0.00000  Uiso   1.00
N92    N     0.26130   0.63153   0.71823   0.00000  Uiso   1.00
C93    C     0.70488   0.94335   0.61626   0.00000  Uiso   1.00
C94    C     0.75240   0.01042   0.69518   0.00000  Uiso   1.00
C95    C     0.71555   0.04797   0.78830   0.00000  Uiso   1.00
C96    C     0.76996   0.10796   0.84975   0.00000  Uiso   1.00
C97    C     0.83037   0.20878   0.97700   0.00000  Uiso   1.00
C98    C     0.76347   0.85269   0.60681   0.00000  Uiso   1.00
C99    C     0.73592   0.75762   0.62562   0.00000  Uiso   1.00
C100   C     0.79965   0.68482   0.61265   0.00000  Uiso   1.00
C101   C     0.87722   0.54076   0.60262   0.00000  Uiso   1.00
C102   C     0.70989   0.99418   0.50808   0.00000  Uiso   1.00
C103   C     0.63730   0.01805   0.44384   0.00000  Uiso   1.00
C104   C     0.65593   0.06435   0.34773   0.00000  Uiso   1.00
C105   C     0.65032   0.13996   0.18441   0.00000  Uiso   1.00
C106   C     0.86704   0.98311   0.55978   0.00000  Uiso   1.00
C107   C     0.84048   0.03201   0.66451   0.00000  Uiso   1.00
C108   C     0.89496   0.09196   0.72582   0.00000  Uiso   1.00
C109   C     0.85820   0.12960   0.81902   0.00000  Uiso   1.00
C110   C     0.85155   0.87428   0.57614   0.00000  Uiso   1.00
C111   C     0.91533   0.80161   0.56314   0.00000  Uiso   1.00
C112   C     0.88789   0.70646   0.58192   0.00000  Uiso   1.00
C113   C     0.79797   0.01577   0.47740   0.00000  Uiso   1.00
C114   C     0.81671   0.06204   0.38137   0.00000  Uiso   1.00
C115   C     0.74416   0.08599   0.31700   0.00000  Uiso   1.00
H116   H     0.63631   0.92653   0.64014   0.00000  Uiso   1.00
H117   H     0.64739   0.03123   0.81202   0.00000  Uiso   1.00
H118   H     0.66775   0.74093   0.64934   0.00000  Uiso   1.00
H119   H     0.56915   0.00132   0.46760   0.00000  Uiso   1.00
H120   H     0.69853   0.15681   0.98908   0.00000  Uiso   1.00
H121   H     0.74146   0.54469   0.64603   0.00000  Uiso   1.00
H122   H     0.53354   0.09377   0.26280   0.00000  Uiso   1.00
H123   H     0.93561   0.99992   0.53590   0.00000  Uiso   1.00
H124   H     0.96312   0.10866   0.70207   0.00000  Uiso   1.00
H125   H     0.98348   0.81835   0.53939   0.00000  Uiso   1.00
H126   H     0.88488   0.07874   0.35766   0.00000  Uiso   1.00
H127   H     0.95479   0.21965   0.89984   0.00000  Uiso   1.00
H128   H     0.99772   0.60752   0.55679   0.00000  Uiso   1.00
H129   H     0.78980   0.15661   0.17356   0.00000  Uiso   1.00
O130   O     0.83936   0.25841   0.05567   0.00000  Uiso   1.00
O131   O     0.89568   0.45532   0.60558   0.00000  Uiso   1.00
O132   O     0.62289   0.17572   0.10280   0.00000  Uiso   1.00
N133   N     0.75506   0.15670   0.94526   0.00000  Uiso   1.00
N134   N     0.79520   0.58439   0.62455   0.00000  Uiso   1.00
N135   N     0.60081   0.09772   0.26624   0.00000  Uiso   1.00
N136   N     0.89295   0.19051   0.89724   0.00000  Uiso   1.00
N137   N     0.93309   0.61821   0.57653   0.00000  Uiso   1.00
N138   N     0.73870   0.13153   0.21823   0.00000  Uiso   1.00
C139   C     0.29512   0.05665   0.61626   0.00000  Uiso   1.00
C140   C     0.24760   0.98958   0.69518   0.00000  Uiso   1.00
C141   C     0.28445   0.95203   0.78830   0.00000  Uiso   1.00
C142   C     0.23004   0.89204   0.84975   0.00000  Uiso   1.00
C143   C     0.16963   0.79122   0.97700   0.00000  Uiso   1.00
C144   C     0.23653   0.14731   0.60681   0.00000  Uiso   1.00
C145   C     0.26408   0.24238   0.62562   0.00000  Uiso   1.00
C146   C     0.20035   0.31518   0.61265   0.00000  Uiso   1.00
C147   C     0.12278   0.45924   0.60262   0.00000  Uiso   1.00
C148   C     0.29011   0.00582   0.50808   0.00000  Uiso   1.00
C149   C     0.36270   0.98195   0.44384   0.00000  Uiso   1.00
C150   C     0.34407   0.93565   0.34773   0.00000  Uiso   1.00
C151   C     0.34968   0.86004   0.18441   0.00000  Uiso   1.00
C152   C     0.13296   0.01689   0.55978   0.00000  Uiso   1.00
C153   C     0.15952   0.96799   0.66451   0.00000  Uiso   1.00
C154   C     0.10504   0.90804   0.72582   0.00000  Uiso   1.00
C155   C     0.14180   0.87040   0.81902   0.00000  Uiso   1.00
C156   C     0.14845   0.12572   0.57614   0.00000  Uiso   1.00
C157   C     0.08467   0.19839   0.56314   0.00000  Uiso   1.00
C158   C     0.11211   0.29354   0.58192   0.00000  Uiso   1.00
C159   C     0.20203   0.98423   0.47740   0.00000  Uiso   1.00
C160   C     0.18329   0.93796   0.38137   0.00000  Uiso   1.00
C161   C     0.25584   0.91401   0.31700   0.00000  Uiso   1.00
H162   H     0.36369   0.07347   0.64014   0.00000  Uiso   1.00
H163   H     0.35261   0.96877   0.81202   0.00000  Uiso   1.00
H164   H     0.33225   0.25907   0.64934   0.00000  Uiso   1.00
H165   H     0.43085   0.99868   0.46760   0.00000  Uiso   1.00
H166   H     0.30147   0.84319   0.98908   0.00000  Uiso   1.00
H167   H     0.25854   0.45531   0.64603   0.00000  Uiso   1.00
H168   H     0.46646   0.90623   0.26280   0.00000  Uiso   1.00
H169   H     0.06439   0.00008   0.53590   0.00000  Uiso   1.00
H170   H     0.03688   0.89134   0.70207   0.00000  Uiso   1.00
H171   H     0.01652   0.18165   0.53939   0.00000  Uiso   1.00
H172   H     0.11512   0.92126   0.35766   0.00000  Uiso   1.00
H173   H     0.04521   0.78035   0.89984   0.00000  Uiso   1.00
H174   H     0.00228   0.39248   0.55679   0.00000  Uiso   1.00
H175   H     0.21020   0.84339   0.17356   0.00000  Uiso   1.00
O176   O     0.16064   0.74159   0.05567   0.00000  Uiso   1.00
O177   O     0.10432   0.54468   0.60558   0.00000  Uiso   1.00
O178   O     0.37711   0.82428   0.10280   0.00000  Uiso   1.00
N179   N     0.24494   0.84330   0.94526   0.00000  Uiso   1.00
N180   N     0.20480   0.41561   0.62455   0.00000  Uiso   1.00
N181   N     0.39919   0.90228   0.26624   0.00000  Uiso   1.00
N182   N     0.10705   0.80949   0.89724   0.00000  Uiso   1.00
N183   N     0.06691   0.38179   0.57653   0.00000  Uiso   1.00
N184   N     0.26130   0.86847   0.21823   0.00000  Uiso   1.00
