data_job_05711
_audit_creation_date              2018-12-19
_audit_creation_method            'Materials Studio'
_symmetry_space_group_name_H-M    'P1'
_symmetry_Int_Tables_number       1
_symmetry_cell_setting            triclinic
loop_
_symmetry_equiv_pos_as_xyz
  x,y,z
_cell_length_a                    21.1983
_cell_length_b                    20.7397
_cell_length_c                    17.7167
_cell_angle_alpha                 90.0000
_cell_angle_beta                  135.9710
_cell_angle_gamma                 90.0000
loop_
_atom_site_label
_atom_site_type_symbol
_atom_site_fract_x
_atom_site_fract_y
_atom_site_fract_z
_atom_site_U_iso_or_equiv
_atom_site_adp_type
_atom_site_occupancy
C1     C     0.05683   0.32687   0.04682   0.00000  Uiso   1.00
C2     C     0.01810   0.36485   0.94721   0.00000  Uiso   1.00
C3     C     0.93595   0.39758   0.87603   0.00000  Uiso   1.00
C4     C     0.91264   0.42939   0.78980   0.00000  Uiso   1.00
C5     C     0.84384   0.48848   0.63729   0.00000  Uiso   1.00
C6     C     0.07400   0.25887   0.03214   0.00000  Uiso   1.00
C7     C     0.03886   0.20250   0.03238   0.00000  Uiso   1.00
C8     C     0.06262   0.14510   0.01766   0.00000  Uiso   1.00
C9     C     0.08066   0.03964   0.99710   0.00000  Uiso   1.00
C10    C     0.15010   0.35571   0.14290   0.00000  Uiso   1.00
C11    C     0.17897   0.38075   0.23630   0.00000  Uiso   1.00
C12    C     0.26681   0.40487   0.31485   0.00000  Uiso   1.00
C13    C     0.40301   0.44978   0.46625   0.00000  Uiso   1.00
C14    C     0.16150   0.32515   0.02026   0.00000  Uiso   1.00
C15    C     0.07496   0.36391   0.93279   0.00000  Uiso   1.00
C16    C     0.05177   0.39568   0.84665   0.00000  Uiso   1.00
C17    C     0.96960   0.42846   0.77535   0.00000  Uiso   1.00
C18    C     0.13085   0.25793   0.01772   0.00000  Uiso   1.00
C19    C     0.15467   0.20060   0.00300   0.00000  Uiso   1.00
C20    C     0.11958   0.14416   0.00322   0.00000  Uiso   1.00
C21    C     0.20696   0.35478   0.12848   0.00000  Uiso   1.00
C22    C     0.29478   0.37885   0.20691   0.00000  Uiso   1.00
C23    C     0.32377   0.40393   0.30040   0.00000  Uiso   1.00
H24    H     0.01256   0.32759   0.05805   0.00000  Uiso   1.00
H25    H     0.89197   0.39829   0.88721   0.00000  Uiso   1.00
H26    H     0.99487   0.20324   0.04356   0.00000  Uiso   1.00
H27    H     0.13495   0.38147   0.24743   0.00000  Uiso   1.00
H28    H     0.78333   0.47624   0.69142   0.00000  Uiso   1.00
H29    H     0.00033   0.06496   0.02112   0.00000  Uiso   1.00
H30    H     0.29572   0.44079   0.45103   0.00000  Uiso   1.00
H31    H     0.20577   0.32442   0.00903   0.00000  Uiso   1.00
H32    H     0.09578   0.39495   0.83550   0.00000  Uiso   1.00
H33    H     0.19868   0.19989   0.99185   0.00000  Uiso   1.00
H34    H     0.33876   0.37812   0.19572   0.00000  Uiso   1.00
H35    H     0.94874   0.47353   0.64945   0.00000  Uiso   1.00
H36    H     0.16575   0.06224   0.97916   0.00000  Uiso   1.00
H37    H     0.46114   0.43807   0.40906   0.00000  Uiso   1.00
O38    O     0.79018   0.52132   0.55715   0.00000  Uiso   1.00
O39    O     0.07489   0.98173   0.98972   0.00000  Uiso   1.00
O40    O     0.46243   0.47482   0.55375   0.00000  Uiso   1.00
N41    N     0.83736   0.46593   0.70537   0.00000  Uiso   1.00
N42    N     0.04023   0.08141   0.01360   0.00000  Uiso   1.00
N43    N     0.31641   0.43276   0.41555   0.00000  Uiso   1.00
N44    N     0.92637   0.46447   0.68279   0.00000  Uiso   1.00
N45    N     0.12924   0.07995   0.99102   0.00000  Uiso   1.00
N46    N     0.40542   0.43130   0.39296   0.00000  Uiso   1.00
C47    C     0.94317   0.82687   0.45318   0.00000  Uiso   1.00
C48    C     0.98190   0.86485   0.55279   0.00000  Uiso   1.00
C49    C     0.06405   0.89758   0.62397   0.00000  Uiso   1.00
C50    C     0.08736   0.92939   0.71020   0.00000  Uiso   1.00
C51    C     0.15616   0.98848   0.86271   0.00000  Uiso   1.00
C52    C     0.92600   0.75887   0.46786   0.00000  Uiso   1.00
C53    C     0.96114   0.70250   0.46762   0.00000  Uiso   1.00
C54    C     0.93738   0.64510   0.48234   0.00000  Uiso   1.00
C55    C     0.91934   0.53964   0.50290   0.00000  Uiso   1.00
C56    C     0.84990   0.85571   0.35710   0.00000  Uiso   1.00
C57    C     0.82103   0.88075   0.26370   0.00000  Uiso   1.00
C58    C     0.73319   0.90487   0.18515   0.00000  Uiso   1.00
C59    C     0.59699   0.94978   0.03375   0.00000  Uiso   1.00
C60    C     0.83850   0.82515   0.47974   0.00000  Uiso   1.00
C61    C     0.92504   0.86391   0.56721   0.00000  Uiso   1.00
C62    C     0.94823   0.89568   0.65335   0.00000  Uiso   1.00
C63    C     0.03040   0.92846   0.72465   0.00000  Uiso   1.00
C64    C     0.86915   0.75793   0.48228   0.00000  Uiso   1.00
C65    C     0.84533   0.70060   0.49700   0.00000  Uiso   1.00
C66    C     0.88042   0.64416   0.49678   0.00000  Uiso   1.00
C67    C     0.79304   0.85478   0.37152   0.00000  Uiso   1.00
C68    C     0.70522   0.87885   0.29309   0.00000  Uiso   1.00
C69    C     0.67623   0.90393   0.19960   0.00000  Uiso   1.00
H70    H     0.98744   0.82759   0.44195   0.00000  Uiso   1.00
H71    H     0.10803   0.89829   0.61279   0.00000  Uiso   1.00
H72    H     0.00513   0.70324   0.45644   0.00000  Uiso   1.00
H73    H     0.86505   0.88147   0.25257   0.00000  Uiso   1.00
H74    H     0.21667   0.97624   0.80858   0.00000  Uiso   1.00
H75    H     0.99967   0.56496   0.47888   0.00000  Uiso   1.00
H76    H     0.70428   0.94079   0.04897   0.00000  Uiso   1.00
H77    H     0.79423   0.82442   0.49097   0.00000  Uiso   1.00
H78    H     0.90422   0.89495   0.66450   0.00000  Uiso   1.00
H79    H     0.80132   0.69989   0.50815   0.00000  Uiso   1.00
H80    H     0.66124   0.87812   0.30428   0.00000  Uiso   1.00
H81    H     0.05126   0.97353   0.85055   0.00000  Uiso   1.00
H82    H     0.83425   0.56224   0.52084   0.00000  Uiso   1.00
H83    H     0.53886   0.93807   0.09094   0.00000  Uiso   1.00
O84    O     0.20982   0.02132   0.94285   0.00000  Uiso   1.00
O85    O     0.92511   0.48173   0.51028   0.00000  Uiso   1.00
O86    O     0.53757   0.97482   0.94625   0.00000  Uiso   1.00
N87    N     0.16264   0.96593   0.79463   0.00000  Uiso   1.00
N88    N     0.95977   0.58141   0.48640   0.00000  Uiso   1.00
N89    N     0.68359   0.93276   0.08445   0.00000  Uiso   1.00
N90    N     0.07363   0.96447   0.81721   0.00000  Uiso   1.00
N91    N     0.87076   0.57995   0.50898   0.00000  Uiso   1.00
N92    N     0.59458   0.93130   0.10704   0.00000  Uiso   1.00
C93    C     0.94317   0.67313   0.95318   0.00000  Uiso   1.00
C94    C     0.98190   0.63515   0.05279   0.00000  Uiso   1.00
C95    C     0.06405   0.60242   0.12397   0.00000  Uiso   1.00
C96    C     0.08736   0.57061   0.21020   0.00000  Uiso   1.00
C97    C     0.15616   0.51152   0.36271   0.00000  Uiso   1.00
C98    C     0.92600   0.74113   0.96786   0.00000  Uiso   1.00
C99    C     0.96114   0.79750   0.96762   0.00000  Uiso   1.00
C100   C     0.93738   0.85490   0.98234   0.00000  Uiso   1.00
C101   C     0.91934   0.96036   0.00290   0.00000  Uiso   1.00
C102   C     0.84990   0.64429   0.85710   0.00000  Uiso   1.00
C103   C     0.82103   0.61925   0.76370   0.00000  Uiso   1.00
C104   C     0.73319   0.59513   0.68515   0.00000  Uiso   1.00
C105   C     0.59699   0.55022   0.53375   0.00000  Uiso   1.00
C106   C     0.83850   0.67485   0.97974   0.00000  Uiso   1.00
C107   C     0.92504   0.63609   0.06721   0.00000  Uiso   1.00
C108   C     0.94823   0.60432   0.15335   0.00000  Uiso   1.00
C109   C     0.03040   0.57154   0.22465   0.00000  Uiso   1.00
C110   C     0.86915   0.74207   0.98228   0.00000  Uiso   1.00
C111   C     0.84533   0.79940   0.99700   0.00000  Uiso   1.00
C112   C     0.88042   0.85584   0.99678   0.00000  Uiso   1.00
C113   C     0.79304   0.64522   0.87152   0.00000  Uiso   1.00
C114   C     0.70522   0.62115   0.79309   0.00000  Uiso   1.00
C115   C     0.67623   0.59607   0.69960   0.00000  Uiso   1.00
H116   H     0.98744   0.67241   0.94195   0.00000  Uiso   1.00
H117   H     0.10803   0.60171   0.11279   0.00000  Uiso   1.00
H118   H     0.00513   0.79676   0.95644   0.00000  Uiso   1.00
H119   H     0.86505   0.61853   0.75257   0.00000  Uiso   1.00
H120   H     0.21667   0.52376   0.30858   0.00000  Uiso   1.00
H121   H     0.99967   0.93504   0.97888   0.00000  Uiso   1.00
H122   H     0.70428   0.55921   0.54897   0.00000  Uiso   1.00
H123   H     0.79423   0.67558   0.99097   0.00000  Uiso   1.00
H124   H     0.90422   0.60505   0.16450   0.00000  Uiso   1.00
H125   H     0.80132   0.80011   0.00815   0.00000  Uiso   1.00
H126   H     0.66124   0.62188   0.80428   0.00000  Uiso   1.00
H127   H     0.05126   0.52647   0.35055   0.00000  Uiso   1.00
H128   H     0.83425   0.93776   0.02084   0.00000  Uiso   1.00
H129   H     0.53886   0.56193   0.59094   0.00000  Uiso   1.00
O130   O     0.20982   0.47868   0.44285   0.00000  Uiso   1.00
O131   O     0.92511   0.01827   0.01028   0.00000  Uiso   1.00
O132   O     0.53757   0.52518   0.44625   0.00000  Uiso   1.00
N133   N     0.16264   0.53407   0.29463   0.00000  Uiso   1.00
N134   N     0.95977   0.91859   0.98640   0.00000  Uiso   1.00
N135   N     0.68359   0.56724   0.58445   0.00000  Uiso   1.00
N136   N     0.07363   0.53553   0.31721   0.00000  Uiso   1.00
N137   N     0.87076   0.92005   0.00898   0.00000  Uiso   1.00
N138   N     0.59458   0.56870   0.60704   0.00000  Uiso   1.00
C139   C     0.05683   0.17313   0.54682   0.00000  Uiso   1.00
C140   C     0.01810   0.13515   0.44721   0.00000  Uiso   1.00
C141   C     0.93595   0.10242   0.37603   0.00000  Uiso   1.00
C142   C     0.91264   0.07061   0.28980   0.00000  Uiso   1.00
C143   C     0.84384   0.01152   0.13729   0.00000  Uiso   1.00
C144   C     0.07400   0.24113   0.53214   0.00000  Uiso   1.00
C145   C     0.03886   0.29750   0.53238   0.00000  Uiso   1.00
C146   C     0.06262   0.35490   0.51766   0.00000  Uiso   1.00
C147   C     0.08066   0.46036   0.49710   0.00000  Uiso   1.00
C148   C     0.15010   0.14429   0.64290   0.00000  Uiso   1.00
C149   C     0.17897   0.11925   0.73630   0.00000  Uiso   1.00
C150   C     0.26681   0.09513   0.81485   0.00000  Uiso   1.00
C151   C     0.40301   0.05022   0.96625   0.00000  Uiso   1.00
C152   C     0.16150   0.17485   0.52026   0.00000  Uiso   1.00
C153   C     0.07496   0.13609   0.43279   0.00000  Uiso   1.00
C154   C     0.05177   0.10432   0.34665   0.00000  Uiso   1.00
C155   C     0.96960   0.07154   0.27535   0.00000  Uiso   1.00
C156   C     0.13085   0.24207   0.51772   0.00000  Uiso   1.00
C157   C     0.15467   0.29940   0.50300   0.00000  Uiso   1.00
C158   C     0.11958   0.35584   0.50322   0.00000  Uiso   1.00
C159   C     0.20696   0.14522   0.62848   0.00000  Uiso   1.00
C160   C     0.29478   0.12115   0.70691   0.00000  Uiso   1.00
C161   C     0.32377   0.09607   0.80040   0.00000  Uiso   1.00
H162   H     0.01256   0.17241   0.55805   0.00000  Uiso   1.00
H163   H     0.89197   0.10171   0.38721   0.00000  Uiso   1.00
H164   H     0.99487   0.29676   0.54356   0.00000  Uiso   1.00
H165   H     0.13495   0.11853   0.74743   0.00000  Uiso   1.00
H166   H     0.78333   0.02376   0.19142   0.00000  Uiso   1.00
H167   H     0.00033   0.43504   0.52112   0.00000  Uiso   1.00
H168   H     0.29572   0.05921   0.95103   0.00000  Uiso   1.00
H169   H     0.20577   0.17558   0.50903   0.00000  Uiso   1.00
H170   H     0.09578   0.10505   0.33550   0.00000  Uiso   1.00
H171   H     0.19868   0.30011   0.49185   0.00000  Uiso   1.00
H172   H     0.33876   0.12188   0.69572   0.00000  Uiso   1.00
H173   H     0.94874   0.02647   0.14945   0.00000  Uiso   1.00
H174   H     0.16575   0.43776   0.47916   0.00000  Uiso   1.00
H175   H     0.46114   0.06193   0.90906   0.00000  Uiso   1.00
O176   O     0.79018   0.97868   0.05715   0.00000  Uiso   1.00
O177   O     0.07489   0.51827   0.48972   0.00000  Uiso   1.00
O178   O     0.46243   0.02518   0.05375   0.00000  Uiso   1.00
N179   N     0.83736   0.03407   0.20537   0.00000  Uiso   1.00
N180   N     0.04023   0.41859   0.51360   0.00000  Uiso   1.00
N181   N     0.31641   0.06724   0.91555   0.00000  Uiso   1.00
N182   N     0.92637   0.03553   0.18279   0.00000  Uiso   1.00
N183   N     0.12924   0.42005   0.49102   0.00000  Uiso   1.00
N184   N     0.40542   0.06870   0.89296   0.00000  Uiso   1.00
