data_job_06720
_audit_creation_date              2018-12-19
_audit_creation_method            'Materials Studio'
_symmetry_space_group_name_H-M    'P1'
_symmetry_Int_Tables_number       1
_symmetry_cell_setting            triclinic
loop_
_symmetry_equiv_pos_as_xyz
  x,y,z
_cell_length_a                    19.8893
_cell_length_b                    20.1700
_cell_length_c                    22.7772
_cell_angle_alpha                 101.6473
_cell_angle_beta                  89.7819
_cell_angle_gamma                 68.3527
loop_
_atom_site_label
_atom_site_type_symbol
_atom_site_fract_x
_atom_site_fract_y
_atom_site_fract_z
_atom_site_U_iso_or_equiv
_atom_site_adp_type
_atom_site_occupancy
C1     C     0.90384   0.36621   0.60063   0.00000  Uiso   1.00
C2     C     0.94692   0.40389   0.63995   0.00000  Uiso   1.00
C3     C     0.93612   0.47736   0.64904   0.00000  Uiso   1.00
C4     C     0.98121   0.50125   0.68663   0.00000  Uiso   1.00
C5     C     0.03992   0.56704   0.74348   0.00000  Uiso   1.00
C6     C     0.95948   0.30342   0.55525   0.00000  Uiso   1.00
C7     C     0.95923   0.29242   0.49312   0.00000  Uiso   1.00
C8     C     0.01488   0.23172   0.45941   0.00000  Uiso   1.00
C9     C     0.09306   0.14151   0.38476   0.00000  Uiso   1.00
C10    C     0.87317   0.33086   0.64136   0.00000  Uiso   1.00
C11    C     0.80036   0.34289   0.65162   0.00000  Uiso   1.00
C12    C     0.78335   0.30528   0.69040   0.00000  Uiso   1.00
C13    C     0.72752   0.25765   0.74945   0.00000  Uiso   1.00
C14    C     0.00312   0.27799   0.65124   0.00000  Uiso   1.00
C15    C     0.00084   0.35597   0.66744   0.00000  Uiso   1.00
C16    C     0.04596   0.37976   0.70503   0.00000  Uiso   1.00
C17    C     0.03523   0.45325   0.71417   0.00000  Uiso   1.00
C18    C     0.01340   0.25551   0.58274   0.00000  Uiso   1.00
C19    C     0.06907   0.19481   0.54911   0.00000  Uiso   1.00
C20    C     0.06891   0.18372   0.48695   0.00000  Uiso   1.00
C21    C     0.92709   0.28294   0.66885   0.00000  Uiso   1.00
C22    C     0.91020   0.24529   0.70762   0.00000  Uiso   1.00
C23    C     0.83737   0.25727   0.71794   0.00000  Uiso   1.00
H24    H     0.86186   0.40351   0.57922   0.00000  Uiso   1.00
H25    H     0.89438   0.51443   0.62775   0.00000  Uiso   1.00
H26    H     0.91749   0.32950   0.47186   0.00000  Uiso   1.00
H27    H     0.75864   0.37998   0.63034   0.00000  Uiso   1.00
H28    H     0.95424   0.61626   0.69365   0.00000  Uiso   1.00
H29    H     0.00294   0.22633   0.36495   0.00000  Uiso   1.00
H30    H     0.66798   0.33276   0.69913   0.00000  Uiso   1.00
H31    H     0.04511   0.24068   0.67264   0.00000  Uiso   1.00
H32    H     0.08769   0.34266   0.72630   0.00000  Uiso   1.00
H33    H     0.11079   0.15774   0.57040   0.00000  Uiso   1.00
H34    H     0.95194   0.20821   0.72888   0.00000  Uiso   1.00
H35    H     0.11113   0.47685   0.77364   0.00000  Uiso   1.00
H36    H     0.15983   0.08691   0.44493   0.00000  Uiso   1.00
H37    H     0.82487   0.19335   0.77912   0.00000  Uiso   1.00
O38    O     0.05741   0.61657   0.76724   0.00000  Uiso   1.00
O39    O     0.12128   0.10499   0.33599   0.00000  Uiso   1.00
O40    O     0.68183   0.24463   0.77444   0.00000  Uiso   1.00
N41    N     0.98531   0.56945   0.70513   0.00000  Uiso   1.00
N42    N     0.03085   0.20490   0.39780   0.00000  Uiso   1.00
N43    N     0.71769   0.30439   0.71023   0.00000  Uiso   1.00
N44    N     0.06974   0.49444   0.74816   0.00000  Uiso   1.00
N45    N     0.11527   0.12988   0.44084   0.00000  Uiso   1.00
N46    N     0.80211   0.22937   0.75327   0.00000  Uiso   1.00
C47    C     0.81090   0.62551   0.21080   0.00000  Uiso   1.00
C48    C     0.76238   0.69765   0.25168   0.00000  Uiso   1.00
C49    C     0.78515   0.75149   0.28208   0.00000  Uiso   1.00
C50    C     0.73240   0.81349   0.31725   0.00000  Uiso   1.00
C51    C     0.66815   0.92429   0.38006   0.00000  Uiso   1.00
C52    C     0.79991   0.56552   0.23624   0.00000  Uiso   1.00
C53    C     0.85424   0.50826   0.25366   0.00000  Uiso   1.00
C54    C     0.83306   0.45903   0.27582   0.00000  Uiso   1.00
C55    C     0.82709   0.36467   0.31462   0.00000  Uiso   1.00
C56    C     0.77845   0.62321   0.15022   0.00000  Uiso   1.00
C57    C     0.81474   0.61444   0.09531   0.00000  Uiso   1.00
C58    C     0.77550   0.61376   0.04506   0.00000  Uiso   1.00
C59    C     0.73621   0.60898   0.95031   0.00000  Uiso   1.00
C60    C     0.67671   0.63987   0.21918   0.00000  Uiso   1.00
C61    C     0.68949   0.70544   0.25623   0.00000  Uiso   1.00
C62    C     0.63668   0.76738   0.29136   0.00000  Uiso   1.00
C63    C     0.65937   0.82130   0.32181   0.00000  Uiso   1.00
C64    C     0.72702   0.57331   0.24079   0.00000  Uiso   1.00
C65    C     0.70577   0.52415   0.26293   0.00000  Uiso   1.00
C66    C     0.76004   0.46684   0.28039   0.00000  Uiso   1.00
C67    C     0.70556   0.63101   0.15478   0.00000  Uiso   1.00
C68    C     0.66627   0.63033   0.10459   0.00000  Uiso   1.00
C69    C     0.70248   0.62157   0.04962   0.00000  Uiso   1.00
H70    H     0.86765   0.61944   0.20725   0.00000  Uiso   1.00
H71    H     0.84157   0.74543   0.27855   0.00000  Uiso   1.00
H72    H     0.91064   0.50224   0.25012   0.00000  Uiso   1.00
H73    H     0.87114   0.60841   0.09181   0.00000  Uiso   1.00
H74    H     0.78051   0.88855   0.35963   0.00000  Uiso   1.00
H75    H     0.92615   0.37575   0.29966   0.00000  Uiso   1.00
H76    H     0.84287   0.59962   0.96582   0.00000  Uiso   1.00
H77    H     0.61996   0.64594   0.22273   0.00000  Uiso   1.00
H78    H     0.58028   0.77340   0.29488   0.00000  Uiso   1.00
H79    H     0.64936   0.53020   0.26645   0.00000  Uiso   1.00
H80    H     0.60986   0.63637   0.10814   0.00000  Uiso   1.00
H81    H     0.56845   0.91124   0.37288   0.00000  Uiso   1.00
H82    H     0.71409   0.39844   0.31291   0.00000  Uiso   1.00
H83    H     0.63081   0.62232   0.97908   0.00000  Uiso   1.00
O84    O     0.65285   0.98325   0.41345   0.00000  Uiso   1.00
O85    O     0.84393   0.31047   0.33477   0.00000  Uiso   1.00
O86    O     0.73467   0.60419   0.89679   0.00000  Uiso   1.00
N87    N     0.73605   0.87641   0.35284   0.00000  Uiso   1.00
N88    N     0.87221   0.39697   0.29678   0.00000  Uiso   1.00
N89    N     0.79436   0.60626   0.98467   0.00000  Uiso   1.00
N90    N     0.62193   0.88862   0.35997   0.00000  Uiso   1.00
N91    N     0.75810   0.40919   0.30391   0.00000  Uiso   1.00
N92    N     0.68024   0.61847   0.99180   0.00000  Uiso   1.00
C93    C     0.33996   0.38801   0.41649   0.00000  Uiso   1.00
C94    C     0.34397   0.45688   0.40152   0.00000  Uiso   1.00
C95    C     0.34439   0.51746   0.44296   0.00000  Uiso   1.00
C96    C     0.34832   0.57495   0.42022   0.00000  Uiso   1.00
C97    C     0.35401   0.68236   0.40639   0.00000  Uiso   1.00
C98    C     0.27404   0.37878   0.38754   0.00000  Uiso   1.00
C99    C     0.21567   0.37367   0.41723   0.00000  Uiso   1.00
C100   C     0.16073   0.36540   0.38272   0.00000  Uiso   1.00
C101   C     0.05788   0.35150   0.34719   0.00000  Uiso   1.00
C102   C     0.40611   0.32452   0.38225   0.00000  Uiso   1.00
C103   C     0.45877   0.27379   0.40749   0.00000  Uiso   1.00
C104   C     0.51501   0.21982   0.36852   0.00000  Uiso   1.00
C105   C     0.61721   0.12169   0.32477   0.00000  Uiso   1.00
C106   C     0.34618   0.38238   0.30242   0.00000  Uiso   1.00
C107   C     0.34735   0.45382   0.33955   0.00000  Uiso   1.00
C108   C     0.35128   0.51123   0.31675   0.00000  Uiso   1.00
C109   C     0.35171   0.57188   0.35815   0.00000  Uiso   1.00
C110   C     0.27742   0.37572   0.32558   0.00000  Uiso   1.00
C111   C     0.22256   0.36744   0.29102   0.00000  Uiso   1.00
C112   C     0.16412   0.36233   0.32065   0.00000  Uiso   1.00
C113   C     0.40949   0.32146   0.32029   0.00000  Uiso   1.00
C114   C     0.46566   0.26756   0.28127   0.00000  Uiso   1.00
C115   C     0.51840   0.21676   0.30645   0.00000  Uiso   1.00
H116   H     0.33732   0.39040   0.46473   0.00000  Uiso   1.00
H117   H     0.34177   0.51981   0.49091   0.00000  Uiso   1.00
H118   H     0.21307   0.37604   0.46518   0.00000  Uiso   1.00
H119   H     0.45613   0.27617   0.45544   0.00000  Uiso   1.00
H120   H     0.34817   0.66195   0.49260   0.00000  Uiso   1.00
H121   H     0.07681   0.35877   0.43835   0.00000  Uiso   1.00
H122   H     0.58936   0.14819   0.41781   0.00000  Uiso   1.00
H123   H     0.34881   0.38000   0.25417   0.00000  Uiso   1.00
H124   H     0.35390   0.50884   0.26879   0.00000  Uiso   1.00
H125   H     0.22520   0.36507   0.24307   0.00000  Uiso   1.00
H126   H     0.46826   0.26521   0.23333   0.00000  Uiso   1.00
H127   H     0.35801   0.65305   0.31233   0.00000  Uiso   1.00
H128   H     0.08666   0.34987   0.25808   0.00000  Uiso   1.00
H129   H     0.59920   0.13929   0.23753   0.00000  Uiso   1.00
O130   O     0.35620   0.74246   0.41588   0.00000  Uiso   1.00
O131   O     0.00020   0.34469   0.34471   0.00000  Uiso   1.00
O132   O     0.67265   0.06841   0.31776   0.00000  Uiso   1.00
N133   N     0.34980   0.64217   0.44817   0.00000  Uiso   1.00
N134   N     0.09610   0.35873   0.39745   0.00000  Uiso   1.00
N135   N     0.57527   0.16184   0.37824   0.00000  Uiso   1.00
N136   N     0.35510   0.63738   0.35116   0.00000  Uiso   1.00
N137   N     0.10139   0.35394   0.30045   0.00000  Uiso   1.00
N138   N     0.58057   0.15705   0.28124   0.00000  Uiso   1.00
C139   C     0.05210   0.01593   0.18383   0.00000  Uiso   1.00
C140   C     0.98229   0.04117   0.22455   0.00000  Uiso   1.00
C141   C     0.95136   0.10796   0.26503   0.00000  Uiso   1.00
C142   C     0.88737   0.12068   0.29814   0.00000  Uiso   1.00
C143   C     0.78380   0.16784   0.36244   0.00000  Uiso   1.00
C144   C     0.03199   0.99677   0.11983   0.00000  Uiso   1.00
C145   C     0.04285   0.02621   0.07225   0.00000  Uiso   1.00
C146   C     0.02071   0.00155   0.01720   0.00000  Uiso   1.00
C147   C     0.99435   0.97973   0.91891   0.00000  Uiso   1.00
C148   C     0.10185   0.94393   0.19806   0.00000  Uiso   1.00
C149   C     0.17146   0.92894   0.21626   0.00000  Uiso   1.00
C150   C     0.20815   0.85978   0.22706   0.00000  Uiso   1.00
C151   C     0.29025   0.75593   0.25024   0.00000  Uiso   1.00
C152   C     0.99349   0.91976   0.17064   0.00000  Uiso   1.00
C153   C     0.95045   0.98894   0.21739   0.00000  Uiso   1.00
C154   C     0.88650   0.00156   0.25045   0.00000  Uiso   1.00
C155   C     0.85548   0.06835   0.29097   0.00000  Uiso   1.00
C156   C     0.00015   0.94454   0.11266   0.00000  Uiso   1.00
C157   C     0.97800   0.91982   0.05767   0.00000  Uiso   1.00
C158   C     0.98882   0.94922   0.01003   0.00000  Uiso   1.00
C159   C     0.07001   0.89170   0.19090   0.00000  Uiso   1.00
C160   C     0.10660   0.82255   0.20167   0.00000  Uiso   1.00
C161   C     0.17625   0.80745   0.21988   0.00000  Uiso   1.00
H162   H     0.07689   0.05659   0.18940   0.00000  Uiso   1.00
H163   H     0.97601   0.14837   0.27056   0.00000  Uiso   1.00
H164   H     0.06750   0.06663   0.07781   0.00000  Uiso   1.00
H165   H     0.19608   0.96937   0.22179   0.00000  Uiso   1.00
H166   H     0.85011   0.22710   0.35736   0.00000  Uiso   1.00
H167   H     0.04304   0.05473   0.95094   0.00000  Uiso   1.00
H168   H     0.31419   0.84965   0.25456   0.00000  Uiso   1.00
H169   H     0.96870   0.87909   0.16507   0.00000  Uiso   1.00
H170   H     0.86188   0.96113   0.24489   0.00000  Uiso   1.00
H171   H     0.95337   0.87939   0.05214   0.00000  Uiso   1.00
H172   H     0.08195   0.78214   0.19613   0.00000  Uiso   1.00
H173   H     0.75747   0.07513   0.33653   0.00000  Uiso   1.00
H174   H     0.95041   0.90276   0.93010   0.00000  Uiso   1.00
H175   H     0.22155   0.69768   0.23372   0.00000  Uiso   1.00
O176   O     0.73546   0.20829   0.39988   0.00000  Uiso   1.00
O177   O     0.98859   0.98214   0.86667   0.00000  Uiso   1.00
O178   O     0.34433   0.71308   0.26501   0.00000  Uiso   1.00
N179   N     0.84297   0.18007   0.34151   0.00000  Uiso   1.00
N180   N     0.02334   0.01892   0.96153   0.00000  Uiso   1.00
N181   N     0.27685   0.82718   0.24537   0.00000  Uiso   1.00
N182   N     0.79313   0.09829   0.33030   0.00000  Uiso   1.00
N183   N     0.97350   0.93715   0.95032   0.00000  Uiso   1.00
N184   N     0.22700   0.74541   0.23416   0.00000  Uiso   1.00
C185   C     0.30540   0.82027   0.64037   0.00000  Uiso   1.00
C186   C     0.34969   0.81344   0.69490   0.00000  Uiso   1.00
C187   C     0.33280   0.86394   0.74942   0.00000  Uiso   1.00
C188   C     0.38023   0.84764   0.79370   0.00000  Uiso   1.00
C189   C     0.43954   0.84684   0.87990   0.00000  Uiso   1.00
C190   C     0.28758   0.75172   0.62540   0.00000  Uiso   1.00
C191   C     0.21847   0.75033   0.62147   0.00000  Uiso   1.00
C192   C     0.21362   0.68208   0.60725   0.00000  Uiso   1.00
C193   C     0.17650   0.58546   0.58549   0.00000  Uiso   1.00
C194   C     0.35721   0.81426   0.58828   0.00000  Uiso   1.00
C195   C     0.34666   0.86544   0.55313   0.00000  Uiso   1.00
C196   C     0.40043   0.84984   0.50764   0.00000  Uiso   1.00
C197   C     0.47144   0.85031   0.42825   0.00000  Uiso   1.00
C198   C     0.41964   0.70153   0.62208   0.00000  Uiso   1.00
C199   C     0.41174   0.74894   0.68497   0.00000  Uiso   1.00
C200   C     0.45920   0.73257   0.72918   0.00000  Uiso   1.00
C201   C     0.44239   0.78304   0.78375   0.00000  Uiso   1.00
C202   C     0.34963   0.68723   0.61547   0.00000  Uiso   1.00
C203   C     0.34487   0.61896   0.60123   0.00000  Uiso   1.00
C204   C     0.27578   0.61747   0.59729   0.00000  Uiso   1.00
C205   C     0.41927   0.74977   0.57834   0.00000  Uiso   1.00
C206   C     0.47306   0.73407   0.53289   0.00000  Uiso   1.00
C207   C     0.46259   0.78522   0.49768   0.00000  Uiso   1.00
H208   H     0.25708   0.87048   0.64811   0.00000  Uiso   1.00
H209   H     0.28477   0.91384   0.75709   0.00000  Uiso   1.00
H210   H     0.17046   0.80025   0.62916   0.00000  Uiso   1.00
H211   H     0.29863   0.91535   0.56083   0.00000  Uiso   1.00
H212   H     0.34282   0.93347   0.87355   0.00000  Uiso   1.00
H213   H     0.10180   0.69396   0.60378   0.00000  Uiso   1.00
H214   H     0.37206   0.93666   0.45969   0.00000  Uiso   1.00
H215   H     0.46795   0.65131   0.61434   0.00000  Uiso   1.00
H216   H     0.50722   0.68265   0.72148   0.00000  Uiso   1.00
H217   H     0.39291   0.56906   0.59355   0.00000  Uiso   1.00
H218   H     0.52107   0.68416   0.52522   0.00000  Uiso   1.00
H219   H     0.52336   0.74582   0.84464   0.00000  Uiso   1.00
H220   H     0.28234   0.50631   0.57487   0.00000  Uiso   1.00
H221   H     0.55260   0.74901   0.43078   0.00000  Uiso   1.00
O222   O     0.45510   0.86421   0.93019   0.00000  Uiso   1.00
O223   O     0.13889   0.54998   0.57625   0.00000  Uiso   1.00
O224   O     0.49347   0.86840   0.38721   0.00000  Uiso   1.00
N225   N     0.37993   0.88501   0.85204   0.00000  Uiso   1.00
N226   N     0.15459   0.66108   0.59983   0.00000  Uiso   1.00
N227   N     0.40725   0.88798   0.46511   0.00000  Uiso   1.00
N228   N     0.47708   0.78404   0.83648   0.00000  Uiso   1.00
N229   N     0.25174   0.56012   0.58427   0.00000  Uiso   1.00
N230   N     0.50440   0.78701   0.44955   0.00000  Uiso   1.00
C231   C     0.62139   0.15503   0.92767   0.00000  Uiso   1.00
C232   C     0.59593   0.23584   0.92636   0.00000  Uiso   1.00
C233   C     0.60025   0.29073   0.97216   0.00000  Uiso   1.00
C234   C     0.57400   0.36122   0.96225   0.00000  Uiso   1.00
C235   C     0.53899   0.48442   0.96838   0.00000  Uiso   1.00
C236   C     0.67542   0.11409   0.87264   0.00000  Uiso   1.00
C237   C     0.74657   0.06659   0.87328   0.00000  Uiso   1.00
C238   C     0.78724   0.03457   0.81815   0.00000  Uiso   1.00
C239   C     0.87563   0.96870   0.74087   0.00000  Uiso   1.00
C240   C     0.55562   0.13405   0.91615   0.00000  Uiso   1.00
C241   C     0.52604   0.10332   0.95336   0.00000  Uiso   1.00
C242   C     0.46586   0.08809   0.93485   0.00000  Uiso   1.00
C243   C     0.36823   0.05322   0.92513   0.00000  Uiso   1.00
C244   C     0.56711   0.18261   0.82862   0.00000  Uiso   1.00
C245   C     0.56645   0.25082   0.87255   0.00000  Uiso   1.00
C246   C     0.54019   0.32124   0.86257   0.00000  Uiso   1.00
C247   C     0.54446   0.37622   0.90835   0.00000  Uiso   1.00
C248   C     0.64594   0.12906   0.81884   0.00000  Uiso   1.00
C249   C     0.68652   0.09710   0.76369   0.00000  Uiso   1.00
C250   C     0.75771   0.04958   0.76425   0.00000  Uiso   1.00
C251   C     0.52613   0.14903   0.86234   0.00000  Uiso   1.00
C252   C     0.46599   0.13384   0.84377   0.00000  Uiso   1.00
C253   C     0.43632   0.10310   0.88095   0.00000  Uiso   1.00
H254   H     0.64435   0.14336   0.96956   0.00000  Uiso   1.00
H255   H     0.62307   0.27911   0.01379   0.00000  Uiso   1.00
H256   H     0.76937   0.05500   0.91492   0.00000  Uiso   1.00
H257   H     0.54887   0.09174   0.99499   0.00000  Uiso   1.00
H258   H     0.58651   0.43622   0.03909   0.00000  Uiso   1.00
H259   H     0.89498   0.96366   0.83062   0.00000  Uiso   1.00
H260   H     0.43002   0.04111   0.99947   0.00000  Uiso   1.00
H261   H     0.54415   0.19427   0.78673   0.00000  Uiso   1.00
H262   H     0.51738   0.33282   0.82093   0.00000  Uiso   1.00
H263   H     0.66368   0.10871   0.72206   0.00000  Uiso   1.00
H264   H     0.44318   0.14544   0.80213   0.00000  Uiso   1.00
H265   H     0.50073   0.47981   0.88256   0.00000  Uiso   1.00
H266   H     0.80920   0.00724   0.67409   0.00000  Uiso   1.00
H267   H     0.34424   0.08470   0.84293   0.00000  Uiso   1.00
O268   O     0.52784   0.54824   0.98661   0.00000  Uiso   1.00
O269   O     0.93254   0.92824   0.71311   0.00000  Uiso   1.00
O270   O     0.32252   0.02986   0.93463   0.00000  Uiso   1.00
N271   N     0.56998   0.42747   0.99756   0.00000  Uiso   1.00
N272   N     0.85839   0.98566   0.80266   0.00000  Uiso   1.00
N273   N     0.42370   0.05805   0.96050   0.00000  Uiso   1.00
N274   N     0.52382   0.45092   0.91333   0.00000  Uiso   1.00
N275   N     0.81223   0.00911   0.71843   0.00000  Uiso   1.00
N276   N     0.37754   0.08150   0.87628   0.00000  Uiso   1.00
C277   C     0.04285   0.78172   0.41152   0.00000  Uiso   1.00
C278   C     0.02951   0.74619   0.34930   0.00000  Uiso   1.00
C279   C     0.05136   0.67162   0.32608   0.00000  Uiso   1.00
C280   C     0.03392   0.65009   0.26825   0.00000  Uiso   1.00
C281   C     0.01894   0.58712   0.17672   0.00000  Uiso   1.00
C282   C     0.96831   0.83321   0.44209   0.00000  Uiso   1.00
C283   C     0.93872   0.83180   0.49689   0.00000  Uiso   1.00
C284   C     0.86977   0.88352   0.51718   0.00000  Uiso   1.00
C285   C     0.75981   0.95568   0.56974   0.00000  Uiso   1.00
C286   C     0.08286   0.83044   0.40109   0.00000  Uiso   1.00
C287   C     0.14958   0.82672   0.42143   0.00000  Uiso   1.00
C288   C     0.17706   0.87613   0.40720   0.00000  Uiso   1.00
C289   C     0.24495   0.94400   0.39610   0.00000  Uiso   1.00
C290   C     0.97302   0.87609   0.35012   0.00000  Uiso   1.00
C291   C     0.99158   0.79745   0.31595   0.00000  Uiso   1.00
C292   C     0.97410   0.77603   0.25814   0.00000  Uiso   1.00
C293   C     0.99592   0.70144   0.23483   0.00000  Uiso   1.00
C294   C     0.93038   0.88446   0.40875   0.00000  Uiso   1.00
C295   C     0.86146   0.93621   0.42896   0.00000  Uiso   1.00
C296   C     0.83177   0.93487   0.48377   0.00000  Uiso   1.00
C297   C     0.04494   0.88170   0.36774   0.00000  Uiso   1.00
C298   C     0.07232   0.93113   0.35349   0.00000  Uiso   1.00
C299   C     0.13906   0.92748   0.37379   0.00000  Uiso   1.00
H300   H     0.07238   0.74182   0.43749   0.00000  Uiso   1.00
H301   H     0.08071   0.63196   0.35190   0.00000  Uiso   1.00
H302   H     0.96809   0.79213   0.52269   0.00000  Uiso   1.00
H303   H     0.17892   0.78705   0.44723   0.00000  Uiso   1.00
H304   H     0.07320   0.53278   0.24232   0.00000  Uiso   1.00
H305   H     0.83574   0.87050   0.60244   0.00000  Uiso   1.00
H306   H     0.28031   0.85980   0.44333   0.00000  Uiso   1.00
H307   H     0.94348   0.91601   0.32415   0.00000  Uiso   1.00
H308   H     0.94474   0.81571   0.23235   0.00000  Uiso   1.00
H309   H     0.83212   0.97587   0.40314   0.00000  Uiso   1.00
H310   H     0.04295   0.97079   0.32768   0.00000  Uiso   1.00
H311   H     0.96284   0.68192   0.14528   0.00000  Uiso   1.00
H312   H     0.72538   0.01964   0.50541   0.00000  Uiso   1.00
H313   H     0.16995   0.00893   0.34629   0.00000  Uiso   1.00
O314   O     0.02115   0.53823   0.13546   0.00000  Uiso   1.00
O315   O     0.70963   0.98131   0.60794   0.00000  Uiso   1.00
O316   O     0.29289   0.96726   0.39917   0.00000  Uiso   1.00
N317   N     0.04706   0.58164   0.23207   0.00000  Uiso   1.00
N318   N     0.82505   0.89739   0.56877   0.00000  Uiso   1.00
N319   N     0.24068   0.88739   0.42002   0.00000  Uiso   1.00
N320   N     0.98768   0.66189   0.17986   0.00000  Uiso   1.00
N321   N     0.76567   0.97763   0.51655   0.00000  Uiso   1.00
N322   N     0.18129   0.96764   0.36781   0.00000  Uiso   1.00
C323   C     0.34623   0.24664   0.71440   0.00000  Uiso   1.00
C324   C     0.42052   0.24084   0.69087   0.00000  Uiso   1.00
C325   C     0.47988   0.17636   0.66987   0.00000  Uiso   1.00
C326   C     0.54300   0.18265   0.65027   0.00000  Uiso   1.00
C327   C     0.65780   0.16325   0.61348   0.00000  Uiso   1.00
C328   C     0.29157   0.29064   0.67638   0.00000  Uiso   1.00
C329   C     0.24250   0.26802   0.64321   0.00000  Uiso   1.00
C330   C     0.19706   0.31624   0.61142   0.00000  Uiso   1.00
C331   C     0.11163   0.37417   0.55217   0.00000  Uiso   1.00
C332   C     0.33108   0.29468   0.77770   0.00000  Uiso   1.00
C333   C     0.31522   0.27548   0.82972   0.00000  Uiso   1.00
C334   C     0.30303   0.32711   0.88323   0.00000  Uiso   1.00
C335   C     0.27895   0.39132   0.98130   0.00000  Uiso   1.00
C336   C     0.35277   0.37249   0.71694   0.00000  Uiso   1.00
C337   C     0.42407   0.30920   0.69224   0.00000  Uiso   1.00
C338   C     0.48711   0.31559   0.67267   0.00000  Uiso   1.00
C339   C     0.54656   0.25113   0.65165   0.00000  Uiso   1.00
C340   C     0.29512   0.35899   0.67775   0.00000  Uiso   1.00
C341   C     0.24973   0.40725   0.64601   0.00000  Uiso   1.00
C342   C     0.20062   0.38472   0.61279   0.00000  Uiso   1.00
C343   C     0.33463   0.36304   0.77907   0.00000  Uiso   1.00
C344   C     0.32246   0.41471   0.83251   0.00000  Uiso   1.00
C345   C     0.30659   0.39559   0.88460   0.00000  Uiso   1.00
H346   H     0.34346   0.19343   0.71333   0.00000  Uiso   1.00
H347   H     0.47711   0.12347   0.66881   0.00000  Uiso   1.00
H348   H     0.23976   0.21513   0.64216   0.00000  Uiso   1.00
H349   H     0.31248   0.22258   0.82863   0.00000  Uiso   1.00
H350   H     0.62684   0.07606   0.62003   0.00000  Uiso   1.00
H351   H     0.12636   0.26932   0.56385   0.00000  Uiso   1.00
H352   H     0.27969   0.28504   0.95708   0.00000  Uiso   1.00
H353   H     0.35553   0.42571   0.71800   0.00000  Uiso   1.00
H354   H     0.48984   0.36850   0.67374   0.00000  Uiso   1.00
H355   H     0.25250   0.46015   0.64708   0.00000  Uiso   1.00
H356   H     0.32521   0.46760   0.83356   0.00000  Uiso   1.00
H357   H     0.63717   0.27493   0.62403   0.00000  Uiso   1.00
H358   H     0.13670   0.46819   0.56785   0.00000  Uiso   1.00
H359   H     0.29003   0.48391   0.96107   0.00000  Uiso   1.00
O360   O     0.72013   0.13367   0.59281   0.00000  Uiso   1.00
O361   O     0.06352   0.38723   0.51911   0.00000  Uiso   1.00
O362   O     0.26469   0.40785   0.03501   0.00000  Uiso   1.00
N363   N     0.61084   0.13071   0.62706   0.00000  Uiso   1.00
N364   N     0.14294   0.31140   0.57452   0.00000  Uiso   1.00
N365   N     0.28627   0.32610   0.94216   0.00000  Uiso   1.00
N366   N     0.61640   0.23772   0.62921   0.00000  Uiso   1.00
N367   N     0.14850   0.41841   0.57668   0.00000  Uiso   1.00
N368   N     0.29183   0.43311   0.94431   0.00000  Uiso   1.00
C369   C     0.64791   0.72181   0.61384   0.00000  Uiso   1.00
C370   C     0.64216   0.65927   0.63885   0.00000  Uiso   1.00
C371   C     0.62793   0.60052   0.60641   0.00000  Uiso   1.00
C372   C     0.62486   0.54900   0.63748   0.00000  Uiso   1.00
C373   C     0.61433   0.45079   0.66698   0.00000  Uiso   1.00
C374   C     0.72245   0.72323   0.62740   0.00000  Uiso   1.00
C375   C     0.77572   0.71827   0.58534   0.00000  Uiso   1.00
C376   C     0.84024   0.72061   0.60678   0.00000  Uiso   1.00
C377   C     0.95434   0.72175   0.61851   0.00000  Uiso   1.00
C378   C     0.59273   0.79185   0.65263   0.00000  Uiso   1.00
C379   C     0.53695   0.84460   0.63177   0.00000  Uiso   1.00
C380   C     0.49227   0.90473   0.67445   0.00000  Uiso   1.00
C381   C     0.40496   0.01242   0.72534   0.00000  Uiso   1.00
C382   C     0.66777   0.73481   0.72673   0.00000  Uiso   1.00
C383   C     0.65295   0.66632   0.70017   0.00000  Uiso   1.00
C384   C     0.64990   0.61489   0.73130   0.00000  Uiso   1.00
C385   C     0.63566   0.55607   0.69891   0.00000  Uiso   1.00
C386   C     0.73324   0.73029   0.68872   0.00000  Uiso   1.00
C387   C     0.79769   0.73264   0.71023   0.00000  Uiso   1.00
C388   C     0.85105   0.72768   0.66820   0.00000  Uiso   1.00
C389   C     0.60352   0.79891   0.71394   0.00000  Uiso   1.00
C390   C     0.55892   0.85897   0.75666   0.00000  Uiso   1.00
C391   C     0.50307   0.91180   0.73587   0.00000  Uiso   1.00
H392   H     0.63952   0.71632   0.56611   0.00000  Uiso   1.00
H393   H     0.61959   0.59507   0.55896   0.00000  Uiso   1.00
H394   H     0.76736   0.71281   0.53789   0.00000  Uiso   1.00
H395   H     0.52862   0.83912   0.58432   0.00000  Uiso   1.00
H396   H     0.60228   0.46374   0.57807   0.00000  Uiso   1.00
H397   H     0.91385   0.71203   0.53365   0.00000  Uiso   1.00
H398   H     0.41042   0.97838   0.63154   0.00000  Uiso   1.00
H399   H     0.67617   0.74030   0.77446   0.00000  Uiso   1.00
H400   H     0.65825   0.62037   0.77875   0.00000  Uiso   1.00
H401   H     0.80602   0.73811   0.75768   0.00000  Uiso   1.00
H402   H     0.56728   0.86442   0.80410   0.00000  Uiso   1.00
H403   H     0.63366   0.48427   0.75646   0.00000  Uiso   1.00
H404   H     0.94523   0.73256   0.71203   0.00000  Uiso   1.00
H405   H     0.44180   0.99891   0.80993   0.00000  Uiso   1.00
O406   O     0.60555   0.39466   0.66632   0.00000  Uiso   1.00
O407   O     0.01430   0.72042   0.60804   0.00000  Uiso   1.00
O408   O     0.35382   0.06986   0.73648   0.00000  Uiso   1.00
N409   N     0.61211   0.48504   0.61947   0.00000  Uiso   1.00
N410   N     0.90341   0.71716   0.57793   0.00000  Uiso   1.00
N411   N     0.43276   0.96619   0.66946   0.00000  Uiso   1.00
N412   N     0.62900   0.49608   0.71546   0.00000  Uiso   1.00
N413   N     0.92030   0.72821   0.67392   0.00000  Uiso   1.00
N414   N     0.44965   0.97724   0.76545   0.00000  Uiso   1.00
C415   C     0.97368   0.22949   0.91049   0.00000  Uiso   1.00
C416   C     0.03211   0.19584   0.85790   0.00000  Uiso   1.00
C417   C     0.06180   0.12247   0.82930   0.00000  Uiso   1.00
C418   C     0.11464   0.10259   0.78210   0.00000  Uiso   1.00
C419   C     0.20200   0.04247   0.70318   0.00000  Uiso   1.00
C420   C     0.00537   0.26831   0.96068   0.00000  Uiso   1.00
C421   C     0.01257   0.25589   0.01850   0.00000  Uiso   1.00
C422   C     0.04290   0.29703   0.05782   0.00000  Uiso   1.00
C423   C     0.08870   0.34946   0.13848   0.00000  Uiso   1.00
C424   C     0.91169   0.28952   0.89031   0.00000  Uiso   1.00
C425   C     0.84012   0.29494   0.88897   0.00000  Uiso   1.00
C426   C     0.79157   0.35395   0.86906   0.00000  Uiso   1.00
C427   C     0.69193   0.43931   0.84046   0.00000  Uiso   1.00
C428   C     0.01472   0.32464   0.87751   0.00000  Uiso   1.00
C429   C     0.05440   0.24752   0.83999   0.00000  Uiso   1.00
C430   C     0.10721   0.22775   0.79282   0.00000  Uiso   1.00
C431   C     0.13698   0.15436   0.76415   0.00000  Uiso   1.00
C432   C     0.02767   0.31999   0.94277   0.00000  Uiso   1.00
C433   C     0.05798   0.36116   0.98201   0.00000  Uiso   1.00
C434   C     0.06523   0.34880   0.03988   0.00000  Uiso   1.00
C435   C     0.93399   0.34120   0.87239   0.00000  Uiso   1.00
C436   C     0.88554   0.40021   0.85248   0.00000  Uiso   1.00
C437   C     0.81391   0.40572   0.85112   0.00000  Uiso   1.00
H438   H     0.95632   0.18925   0.92444   0.00000  Uiso   1.00
H439   H     0.04454   0.08249   0.84318   0.00000  Uiso   1.00
H440   H     0.99531   0.21589   0.03235   0.00000  Uiso   1.00
H441   H     0.82289   0.25494   0.90284   0.00000  Uiso   1.00
H442   H     0.15219   0.98691   0.74521   0.00000  Uiso   1.00
H443   H     0.04836   0.26822   0.14408   0.00000  Uiso   1.00
H444   H     0.68478   0.35055   0.87099   0.00000  Uiso   1.00
H445   H     0.03208   0.36488   0.86357   0.00000  Uiso   1.00
H446   H     0.12445   0.26775   0.77896   0.00000  Uiso   1.00
H447   H     0.07523   0.40116   0.96814   0.00000  Uiso   1.00
H448   H     0.90281   0.44020   0.83863   0.00000  Uiso   1.00
H449   H     0.21705   0.13728   0.69309   0.00000  Uiso   1.00
H450   H     0.11323   0.41859   0.09197   0.00000  Uiso   1.00
H451   H     0.74965   0.50092   0.81887   0.00000  Uiso   1.00
O452   O     0.24404   0.99503   0.66460   0.00000  Uiso   1.00
O453   O     0.10781   0.36410   0.18792   0.00000  Uiso   1.00
O454   O     0.63081   0.47211   0.82962   0.00000  Uiso   1.00
N455   N     0.15477   0.03563   0.74454   0.00000  Uiso   1.00
N456   N     0.05771   0.29863   0.11747   0.00000  Uiso   1.00
N457   N     0.71779   0.37561   0.86216   0.00000  Uiso   1.00
N458   N     0.18967   0.11654   0.71650   0.00000  Uiso   1.00
N459   N     0.09261   0.37954   0.08942   0.00000  Uiso   1.00
N460   N     0.75269   0.45652   0.83412   0.00000  Uiso   1.00
C461   C     0.64020   0.28692   0.18699   0.00000  Uiso   1.00
C462   C     0.56986   0.29191   0.15826   0.00000  Uiso   1.00
C463   C     0.55189   0.23311   0.13163   0.00000  Uiso   1.00
C464   C     0.48496   0.24912   0.10789   0.00000  Uiso   1.00
C465   C     0.38294   0.24588   0.06282   0.00000  Uiso   1.00
C466   C     0.67345   0.32844   0.15490   0.00000  Uiso   1.00
C467   C     0.74258   0.30036   0.12546   0.00000  Uiso   1.00
C468   C     0.76285   0.34714   0.09890   0.00000  Uiso   1.00
C469   C     0.82167   0.40064   0.04865   0.00000  Uiso   1.00
C470   C     0.61773   0.33154   0.25137   0.00000  Uiso   1.00
C471   C     0.64004   0.30607   0.30304   0.00000  Uiso   1.00
C472   C     0.61341   0.35545   0.35771   0.00000  Uiso   1.00
C473   C     0.58572   0.41375   0.45724   0.00000  Uiso   1.00
C474   C     0.55328   0.41991   0.19218   0.00000  Uiso   1.00
C475   C     0.52265   0.36415   0.16107   0.00000  Uiso   1.00
C476   C     0.45573   0.38025   0.13737   0.00000  Uiso   1.00
C477   C     0.43766   0.32149   0.11072   0.00000  Uiso   1.00
C478   C     0.62624   0.40068   0.15771   0.00000  Uiso   1.00
C479   C     0.64642   0.44751   0.13120   0.00000  Uiso   1.00
C480   C     0.71556   0.41951   0.10172   0.00000  Uiso   1.00
C481   C     0.57052   0.40378   0.25419   0.00000  Uiso   1.00
C482   C     0.54386   0.45321   0.30878   0.00000  Uiso   1.00
C483   C     0.56612   0.42782   0.36053   0.00000  Uiso   1.00
H484   H     0.67696   0.23068   0.18480   0.00000  Uiso   1.00
H485   H     0.58845   0.17721   0.12945   0.00000  Uiso   1.00
H486   H     0.77911   0.24446   0.12329   0.00000  Uiso   1.00
H487   H     0.67657   0.25016   0.30084   0.00000  Uiso   1.00
H488   H     0.46951   0.14980   0.06932   0.00000  Uiso   1.00
H489   H     0.87153   0.29160   0.05634   0.00000  Uiso   1.00
H490   H     0.65532   0.30362   0.43075   0.00000  Uiso   1.00
H491   H     0.51653   0.47616   0.19437   0.00000  Uiso   1.00
H492   H     0.41921   0.43616   0.13956   0.00000  Uiso   1.00
H493   H     0.60987   0.50341   0.13339   0.00000  Uiso   1.00
H494   H     0.50733   0.50911   0.31094   0.00000  Uiso   1.00
H495   H     0.33215   0.35997   0.07752   0.00000  Uiso   1.00
H496   H     0.73417   0.50177   0.06454   0.00000  Uiso   1.00
H497   H     0.51795   0.51379   0.43895   0.00000  Uiso   1.00
O498   O     0.33971   0.22414   0.03717   0.00000  Uiso   1.00
O499   O     0.86716   0.41018   0.02015   0.00000  Uiso   1.00
O500   O     0.58348   0.42595   0.51136   0.00000  Uiso   1.00
N501   N     0.45053   0.20475   0.07879   0.00000  Uiso   1.00
N502   N     0.82639   0.33732   0.06664   0.00000  Uiso   1.00
N503   N     0.62427   0.34856   0.41668   0.00000  Uiso   1.00
N504   N     0.37661   0.31784   0.08320   0.00000  Uiso   1.00
N505   N     0.75248   0.45041   0.07105   0.00000  Uiso   1.00
N506   N     0.55035   0.46166   0.42109   0.00000  Uiso   1.00
C507   C     0.43652   0.92071   0.09763   0.00000  Uiso   1.00
C508   C     0.44474   0.85078   0.11798   0.00000  Uiso   1.00
C509   C     0.45158   0.78476   0.08055   0.00000  Uiso   1.00
C510   C     0.45849   0.72724   0.10790   0.00000  Uiso   1.00
C511   C     0.47120   0.61741   0.12998   0.00000  Uiso   1.00
C512   C     0.36669   0.97933   0.13114   0.00000  Uiso   1.00
C513   C     0.30793   0.02140   0.10477   0.00000  Uiso   1.00
C514   C     0.24915   0.07210   0.14321   0.00000  Uiso   1.00
C515   C     0.14072   0.16188   0.18573   0.00000  Uiso   1.00
C516   C     0.49820   0.94249   0.12269   0.00000  Uiso   1.00
C517   C     0.55000   0.95359   0.08922   0.00000  Uiso   1.00
C518   C     0.60193   0.97330   0.12054   0.00000  Uiso   1.00
C519   C     0.69769   0.00587   0.14993   0.00000  Uiso   1.00
C520   C     0.43663   0.93598   0.21278   0.00000  Uiso   1.00
C521   C     0.44479   0.85908   0.18052   0.00000  Uiso   1.00
C522   C     0.45170   0.80165   0.20794   0.00000  Uiso   1.00
C523   C     0.45855   0.73555   0.17055   0.00000  Uiso   1.00
C524   C     0.36675   0.98763   0.19368   0.00000  Uiso   1.00
C525   C     0.30805   0.03829   0.23217   0.00000  Uiso   1.00
C526   C     0.24921   0.08041   0.20587   0.00000  Uiso   1.00
C527   C     0.49826   0.95078   0.18523   0.00000  Uiso   1.00
C528   C     0.55012   0.97048   0.21661   0.00000  Uiso   1.00
C529   C     0.60199   0.98161   0.18319   0.00000  Uiso   1.00
H530   H     0.43647   0.91426   0.04894   0.00000  Uiso   1.00
H531   H     0.45152   0.77836   0.03215   0.00000  Uiso   1.00
H532   H     0.30790   0.01497   0.05637   0.00000  Uiso   1.00
H533   H     0.54994   0.94717   0.04082   0.00000  Uiso   1.00
H534   H     0.46821   0.63136   0.04111   0.00000  Uiso   1.00
H535   H     0.16538   0.13028   0.09219   0.00000  Uiso   1.00
H536   H     0.67577   0.98731   0.05939   0.00000  Uiso   1.00
H537   H     0.43667   0.94244   0.26147   0.00000  Uiso   1.00
H538   H     0.45174   0.80808   0.25634   0.00000  Uiso   1.00
H539   H     0.30811   0.04469   0.28056   0.00000  Uiso   1.00
H540   H     0.55015   0.97689   0.26501   0.00000  Uiso   1.00
H541   H     0.46839   0.65548   0.22307   0.00000  Uiso   1.00
H542   H     0.16555   0.15440   0.27415   0.00000  Uiso   1.00
H543   H     0.67594   0.01143   0.24135   0.00000  Uiso   1.00
O544   O     0.47818   0.55454   0.12488   0.00000  Uiso   1.00
O545   O     0.08089   0.20911   0.19190   0.00000  Uiso   1.00
O546   O     0.75050   0.02153   0.14886   0.00000  Uiso   1.00
N547   N     0.46620   0.65547   0.08464   0.00000  Uiso   1.00
N548   N     0.18307   0.12192   0.13240   0.00000  Uiso   1.00
N549   N     0.66022   0.98828   0.10173   0.00000  Uiso   1.00
N550   N     0.46630   0.66845   0.18255   0.00000  Uiso   1.00
N551   N     0.18316   0.13490   0.23031   0.00000  Uiso   1.00
N552   N     0.66031   0.00126   0.19964   0.00000  Uiso   1.00
