data_job_01991
_audit_creation_date              2018-12-19
_audit_creation_method            'Materials Studio'
_symmetry_space_group_name_H-M    'P1'
_symmetry_Int_Tables_number       1
_symmetry_cell_setting            triclinic
loop_
_symmetry_equiv_pos_as_xyz
  x,y,z
_cell_length_a                    33.2925
_cell_length_b                    23.3832
_cell_length_c                    12.1013
_cell_angle_alpha                 90.0000
_cell_angle_beta                  90.0000
_cell_angle_gamma                 90.0000
loop_
_atom_site_label
_atom_site_type_symbol
_atom_site_fract_x
_atom_site_fract_y
_atom_site_fract_z
_atom_site_U_iso_or_equiv
_atom_site_adp_type
_atom_site_occupancy
C1     C     0.66040   0.42360   0.61319   0.00000  Uiso   1.00
C2     C     0.61590   0.42479   0.58341   0.00000  Uiso   1.00
C3     C     0.60023   0.42439   0.47714   0.00000  Uiso   1.00
C4     C     0.55869   0.42567   0.46730   0.00000  Uiso   1.00
C5     C     0.49339   0.42731   0.40689   0.00000  Uiso   1.00
C6     C     0.66775   0.47609   0.68516   0.00000  Uiso   1.00
C7     C     0.69569   0.51883   0.66445   0.00000  Uiso   1.00
C8     C     0.69780   0.56329   0.74027   0.00000  Uiso   1.00
C9     C     0.71302   0.64456   0.83787   0.00000  Uiso   1.00
C10    C     0.66608   0.37195   0.68852   0.00000  Uiso   1.00
C11    C     0.69262   0.32712   0.67065   0.00000  Uiso   1.00
C12    C     0.69333   0.28391   0.74932   0.00000  Uiso   1.00
C13    C     0.70596   0.20347   0.85214   0.00000  Uiso   1.00
C14    C     0.61449   0.42657   0.78468   0.00000  Uiso   1.00
C15    C     0.59097   0.42641   0.67656   0.00000  Uiso   1.00
C16    C     0.54944   0.42769   0.66688   0.00000  Uiso   1.00
C17    C     0.53371   0.42729   0.56061   0.00000  Uiso   1.00
C18    C     0.64282   0.47771   0.77830   0.00000  Uiso   1.00
C19    C     0.64489   0.52212   0.85418   0.00000  Uiso   1.00
C20    C     0.67282   0.56491   0.83358   0.00000  Uiso   1.00
C21    C     0.64115   0.37357   0.78167   0.00000  Uiso   1.00
C22    C     0.64182   0.33042   0.86038   0.00000  Uiso   1.00
C23    C     0.66835   0.28553   0.84264   0.00000  Uiso   1.00
H24    H     0.67982   0.42234   0.54068   0.00000  Uiso   1.00
H25    H     0.61954   0.42315   0.40508   0.00000  Uiso   1.00
H26    H     0.71498   0.51756   0.59236   0.00000  Uiso   1.00
H27    H     0.71191   0.32589   0.59856   0.00000  Uiso   1.00
H28    H     0.54172   0.42478   0.29582   0.00000  Uiso   1.00
H29    H     0.74297   0.62384   0.69074   0.00000  Uiso   1.00
H30    H     0.73650   0.21966   0.70382   0.00000  Uiso   1.00
H31    H     0.59508   0.42783   0.85720   0.00000  Uiso   1.00
H32    H     0.53015   0.42894   0.73897   0.00000  Uiso   1.00
H33    H     0.62559   0.52336   0.92625   0.00000  Uiso   1.00
H34    H     0.62252   0.33168   0.93246   0.00000  Uiso   1.00
H35    H     0.46917   0.42948   0.56682   0.00000  Uiso   1.00
H36    H     0.67042   0.62855   0.96174   0.00000  Uiso   1.00
H37    H     0.66395   0.22436   0.97482   0.00000  Uiso   1.00
O38    O     0.46426   0.42778   0.34783   0.00000  Uiso   1.00
O39    O     0.72831   0.68894   0.86596   0.00000  Uiso   1.00
O40    O     0.71981   0.15866   0.88311   0.00000  Uiso   1.00
N41    N     0.53355   0.42572   0.37583   0.00000  Uiso   1.00
N42    N     0.72171   0.61184   0.74504   0.00000  Uiso   1.00
N43    N     0.71567   0.23397   0.75728   0.00000  Uiso   1.00
N44    N     0.49451   0.42825   0.52165   0.00000  Uiso   1.00
N45    N     0.68267   0.61437   0.89086   0.00000  Uiso   1.00
N46    N     0.67663   0.23650   0.90311   0.00000  Uiso   1.00
C47    C     0.16040   0.92360   0.61319   0.00000  Uiso   1.00
C48    C     0.11590   0.92479   0.58341   0.00000  Uiso   1.00
C49    C     0.10023   0.92439   0.47714   0.00000  Uiso   1.00
C50    C     0.05869   0.92567   0.46730   0.00000  Uiso   1.00
C51    C     0.99339   0.92731   0.40689   0.00000  Uiso   1.00
C52    C     0.16775   0.97609   0.68516   0.00000  Uiso   1.00
C53    C     0.19569   0.01883   0.66445   0.00000  Uiso   1.00
C54    C     0.19780   0.06329   0.74027   0.00000  Uiso   1.00
C55    C     0.21302   0.14456   0.83787   0.00000  Uiso   1.00
C56    C     0.16608   0.87195   0.68852   0.00000  Uiso   1.00
C57    C     0.19262   0.82712   0.67065   0.00000  Uiso   1.00
C58    C     0.19333   0.78391   0.74932   0.00000  Uiso   1.00
C59    C     0.20596   0.70347   0.85214   0.00000  Uiso   1.00
C60    C     0.11449   0.92657   0.78468   0.00000  Uiso   1.00
C61    C     0.09097   0.92641   0.67656   0.00000  Uiso   1.00
C62    C     0.04944   0.92769   0.66688   0.00000  Uiso   1.00
C63    C     0.03371   0.92729   0.56061   0.00000  Uiso   1.00
C64    C     0.14282   0.97771   0.77830   0.00000  Uiso   1.00
C65    C     0.14489   0.02212   0.85418   0.00000  Uiso   1.00
C66    C     0.17282   0.06491   0.83358   0.00000  Uiso   1.00
C67    C     0.14115   0.87357   0.78167   0.00000  Uiso   1.00
C68    C     0.14182   0.83042   0.86038   0.00000  Uiso   1.00
C69    C     0.16835   0.78553   0.84264   0.00000  Uiso   1.00
H70    H     0.17982   0.92234   0.54068   0.00000  Uiso   1.00
H71    H     0.11954   0.92315   0.40508   0.00000  Uiso   1.00
H72    H     0.21498   0.01756   0.59236   0.00000  Uiso   1.00
H73    H     0.21191   0.82589   0.59856   0.00000  Uiso   1.00
H74    H     0.04172   0.92478   0.29582   0.00000  Uiso   1.00
H75    H     0.24297   0.12384   0.69074   0.00000  Uiso   1.00
H76    H     0.23650   0.71966   0.70382   0.00000  Uiso   1.00
H77    H     0.09508   0.92783   0.85720   0.00000  Uiso   1.00
H78    H     0.03015   0.92894   0.73897   0.00000  Uiso   1.00
H79    H     0.12559   0.02336   0.92625   0.00000  Uiso   1.00
H80    H     0.12252   0.83168   0.93246   0.00000  Uiso   1.00
H81    H     0.96917   0.92948   0.56682   0.00000  Uiso   1.00
H82    H     0.17042   0.12855   0.96174   0.00000  Uiso   1.00
H83    H     0.16395   0.72436   0.97482   0.00000  Uiso   1.00
O84    O     0.96426   0.92778   0.34783   0.00000  Uiso   1.00
O85    O     0.22831   0.18894   0.86596   0.00000  Uiso   1.00
O86    O     0.21981   0.65866   0.88311   0.00000  Uiso   1.00
N87    N     0.03355   0.92572   0.37583   0.00000  Uiso   1.00
N88    N     0.22171   0.11184   0.74504   0.00000  Uiso   1.00
N89    N     0.21567   0.73397   0.75728   0.00000  Uiso   1.00
N90    N     0.99451   0.92825   0.52165   0.00000  Uiso   1.00
N91    N     0.18267   0.11437   0.89086   0.00000  Uiso   1.00
N92    N     0.17663   0.73650   0.90311   0.00000  Uiso   1.00
C93    C     0.33960   0.57640   0.11319   0.00000  Uiso   1.00
C94    C     0.38410   0.57521   0.08341   0.00000  Uiso   1.00
C95    C     0.39977   0.57561   0.97714   0.00000  Uiso   1.00
C96    C     0.44131   0.57433   0.96730   0.00000  Uiso   1.00
C97    C     0.50661   0.57269   0.90689   0.00000  Uiso   1.00
C98    C     0.33225   0.52391   0.18516   0.00000  Uiso   1.00
C99    C     0.30431   0.48117   0.16445   0.00000  Uiso   1.00
C100   C     0.30220   0.43671   0.24027   0.00000  Uiso   1.00
C101   C     0.28698   0.35544   0.33787   0.00000  Uiso   1.00
C102   C     0.33392   0.62805   0.18852   0.00000  Uiso   1.00
C103   C     0.30738   0.67288   0.17065   0.00000  Uiso   1.00
C104   C     0.30667   0.71609   0.24932   0.00000  Uiso   1.00
C105   C     0.29404   0.79653   0.35214   0.00000  Uiso   1.00
C106   C     0.38551   0.57343   0.28468   0.00000  Uiso   1.00
C107   C     0.40903   0.57359   0.17656   0.00000  Uiso   1.00
C108   C     0.45056   0.57231   0.16688   0.00000  Uiso   1.00
C109   C     0.46629   0.57271   0.06061   0.00000  Uiso   1.00
C110   C     0.35718   0.52229   0.27830   0.00000  Uiso   1.00
C111   C     0.35511   0.47788   0.35418   0.00000  Uiso   1.00
C112   C     0.32718   0.43509   0.33358   0.00000  Uiso   1.00
C113   C     0.35885   0.62643   0.28167   0.00000  Uiso   1.00
C114   C     0.35818   0.66958   0.36038   0.00000  Uiso   1.00
C115   C     0.33165   0.71447   0.34264   0.00000  Uiso   1.00
H116   H     0.32018   0.57766   0.04068   0.00000  Uiso   1.00
H117   H     0.38046   0.57685   0.90508   0.00000  Uiso   1.00
H118   H     0.28502   0.48244   0.09236   0.00000  Uiso   1.00
H119   H     0.28809   0.67411   0.09856   0.00000  Uiso   1.00
H120   H     0.45828   0.57522   0.79582   0.00000  Uiso   1.00
H121   H     0.25703   0.37616   0.19074   0.00000  Uiso   1.00
H122   H     0.26350   0.78034   0.20382   0.00000  Uiso   1.00
H123   H     0.40492   0.57217   0.35720   0.00000  Uiso   1.00
H124   H     0.46985   0.57106   0.23897   0.00000  Uiso   1.00
H125   H     0.37441   0.47664   0.42625   0.00000  Uiso   1.00
H126   H     0.37748   0.66832   0.43246   0.00000  Uiso   1.00
H127   H     0.53083   0.57052   0.06682   0.00000  Uiso   1.00
H128   H     0.32958   0.37145   0.46174   0.00000  Uiso   1.00
H129   H     0.33605   0.77564   0.47482   0.00000  Uiso   1.00
O130   O     0.53574   0.57222   0.84783   0.00000  Uiso   1.00
O131   O     0.27169   0.31106   0.36596   0.00000  Uiso   1.00
O132   O     0.28019   0.84134   0.38311   0.00000  Uiso   1.00
N133   N     0.46645   0.57428   0.87583   0.00000  Uiso   1.00
N134   N     0.27829   0.38816   0.24504   0.00000  Uiso   1.00
N135   N     0.28433   0.76603   0.25728   0.00000  Uiso   1.00
N136   N     0.50549   0.57175   0.02165   0.00000  Uiso   1.00
N137   N     0.31733   0.38563   0.39086   0.00000  Uiso   1.00
N138   N     0.32337   0.76350   0.40311   0.00000  Uiso   1.00
C139   C     0.83960   0.07640   0.11319   0.00000  Uiso   1.00
C140   C     0.88410   0.07521   0.08341   0.00000  Uiso   1.00
C141   C     0.89977   0.07561   0.97714   0.00000  Uiso   1.00
C142   C     0.94131   0.07433   0.96730   0.00000  Uiso   1.00
C143   C     0.00661   0.07269   0.90689   0.00000  Uiso   1.00
C144   C     0.83225   0.02391   0.18516   0.00000  Uiso   1.00
C145   C     0.80431   0.98117   0.16445   0.00000  Uiso   1.00
C146   C     0.80220   0.93671   0.24027   0.00000  Uiso   1.00
C147   C     0.78698   0.85544   0.33787   0.00000  Uiso   1.00
C148   C     0.83392   0.12805   0.18852   0.00000  Uiso   1.00
C149   C     0.80738   0.17288   0.17065   0.00000  Uiso   1.00
C150   C     0.80667   0.21609   0.24932   0.00000  Uiso   1.00
C151   C     0.79404   0.29653   0.35214   0.00000  Uiso   1.00
C152   C     0.88551   0.07343   0.28468   0.00000  Uiso   1.00
C153   C     0.90903   0.07359   0.17656   0.00000  Uiso   1.00
C154   C     0.95056   0.07231   0.16688   0.00000  Uiso   1.00
C155   C     0.96629   0.07271   0.06061   0.00000  Uiso   1.00
C156   C     0.85718   0.02229   0.27830   0.00000  Uiso   1.00
C157   C     0.85511   0.97788   0.35418   0.00000  Uiso   1.00
C158   C     0.82718   0.93509   0.33358   0.00000  Uiso   1.00
C159   C     0.85885   0.12643   0.28167   0.00000  Uiso   1.00
C160   C     0.85818   0.16958   0.36038   0.00000  Uiso   1.00
C161   C     0.83165   0.21447   0.34264   0.00000  Uiso   1.00
H162   H     0.82018   0.07766   0.04068   0.00000  Uiso   1.00
H163   H     0.88046   0.07685   0.90508   0.00000  Uiso   1.00
H164   H     0.78502   0.98244   0.09236   0.00000  Uiso   1.00
H165   H     0.78809   0.17411   0.09856   0.00000  Uiso   1.00
H166   H     0.95828   0.07522   0.79582   0.00000  Uiso   1.00
H167   H     0.75703   0.87616   0.19074   0.00000  Uiso   1.00
H168   H     0.76350   0.28034   0.20382   0.00000  Uiso   1.00
H169   H     0.90492   0.07217   0.35720   0.00000  Uiso   1.00
H170   H     0.96985   0.07106   0.23897   0.00000  Uiso   1.00
H171   H     0.87441   0.97664   0.42625   0.00000  Uiso   1.00
H172   H     0.87748   0.16832   0.43246   0.00000  Uiso   1.00
H173   H     0.03083   0.07052   0.06682   0.00000  Uiso   1.00
H174   H     0.82958   0.87145   0.46174   0.00000  Uiso   1.00
H175   H     0.83605   0.27564   0.47482   0.00000  Uiso   1.00
O176   O     0.03574   0.07222   0.84783   0.00000  Uiso   1.00
O177   O     0.77169   0.81106   0.36596   0.00000  Uiso   1.00
O178   O     0.78019   0.34134   0.38311   0.00000  Uiso   1.00
N179   N     0.96645   0.07428   0.87583   0.00000  Uiso   1.00
N180   N     0.77829   0.88816   0.24504   0.00000  Uiso   1.00
N181   N     0.78433   0.26603   0.25728   0.00000  Uiso   1.00
N182   N     0.00549   0.07175   0.02165   0.00000  Uiso   1.00
N183   N     0.81733   0.88563   0.39086   0.00000  Uiso   1.00
N184   N     0.82337   0.26350   0.40311   0.00000  Uiso   1.00
C185   C     0.33960   0.42360   0.88681   0.00000  Uiso   1.00
C186   C     0.38410   0.42479   0.91659   0.00000  Uiso   1.00
C187   C     0.39977   0.42439   0.02286   0.00000  Uiso   1.00
C188   C     0.44131   0.42567   0.03270   0.00000  Uiso   1.00
C189   C     0.50661   0.42731   0.09311   0.00000  Uiso   1.00
C190   C     0.33225   0.47609   0.81484   0.00000  Uiso   1.00
C191   C     0.30431   0.51883   0.83555   0.00000  Uiso   1.00
C192   C     0.30220   0.56329   0.75973   0.00000  Uiso   1.00
C193   C     0.28698   0.64456   0.66213   0.00000  Uiso   1.00
C194   C     0.33392   0.37195   0.81148   0.00000  Uiso   1.00
C195   C     0.30738   0.32712   0.82935   0.00000  Uiso   1.00
C196   C     0.30667   0.28391   0.75068   0.00000  Uiso   1.00
C197   C     0.29404   0.20347   0.64786   0.00000  Uiso   1.00
C198   C     0.38551   0.42657   0.71532   0.00000  Uiso   1.00
C199   C     0.40903   0.42641   0.82344   0.00000  Uiso   1.00
C200   C     0.45056   0.42769   0.83312   0.00000  Uiso   1.00
C201   C     0.46629   0.42729   0.93939   0.00000  Uiso   1.00
C202   C     0.35718   0.47771   0.72170   0.00000  Uiso   1.00
C203   C     0.35511   0.52212   0.64582   0.00000  Uiso   1.00
C204   C     0.32718   0.56491   0.66642   0.00000  Uiso   1.00
C205   C     0.35885   0.37357   0.71833   0.00000  Uiso   1.00
C206   C     0.35818   0.33042   0.63962   0.00000  Uiso   1.00
C207   C     0.33165   0.28553   0.65736   0.00000  Uiso   1.00
H208   H     0.32018   0.42234   0.95932   0.00000  Uiso   1.00
H209   H     0.38046   0.42315   0.09492   0.00000  Uiso   1.00
H210   H     0.28502   0.51756   0.90764   0.00000  Uiso   1.00
H211   H     0.28809   0.32589   0.90144   0.00000  Uiso   1.00
H212   H     0.45828   0.42478   0.20418   0.00000  Uiso   1.00
H213   H     0.25703   0.62384   0.80926   0.00000  Uiso   1.00
H214   H     0.26350   0.21966   0.79618   0.00000  Uiso   1.00
H215   H     0.40492   0.42783   0.64280   0.00000  Uiso   1.00
H216   H     0.46985   0.42894   0.76103   0.00000  Uiso   1.00
H217   H     0.37441   0.52336   0.57375   0.00000  Uiso   1.00
H218   H     0.37748   0.33168   0.56754   0.00000  Uiso   1.00
H219   H     0.53083   0.42948   0.93318   0.00000  Uiso   1.00
H220   H     0.32958   0.62855   0.53826   0.00000  Uiso   1.00
H221   H     0.33605   0.22436   0.52518   0.00000  Uiso   1.00
O222   O     0.53574   0.42778   0.15217   0.00000  Uiso   1.00
O223   O     0.27169   0.68894   0.63404   0.00000  Uiso   1.00
O224   O     0.28019   0.15866   0.61689   0.00000  Uiso   1.00
N225   N     0.46645   0.42572   0.12417   0.00000  Uiso   1.00
N226   N     0.27829   0.61184   0.75496   0.00000  Uiso   1.00
N227   N     0.28433   0.23397   0.74272   0.00000  Uiso   1.00
N228   N     0.50549   0.42825   0.97835   0.00000  Uiso   1.00
N229   N     0.31733   0.61437   0.60914   0.00000  Uiso   1.00
N230   N     0.32337   0.23650   0.59689   0.00000  Uiso   1.00
C231   C     0.83960   0.92360   0.88681   0.00000  Uiso   1.00
C232   C     0.88410   0.92479   0.91659   0.00000  Uiso   1.00
C233   C     0.89977   0.92439   0.02286   0.00000  Uiso   1.00
C234   C     0.94131   0.92567   0.03270   0.00000  Uiso   1.00
C235   C     0.00661   0.92731   0.09311   0.00000  Uiso   1.00
C236   C     0.83225   0.97609   0.81484   0.00000  Uiso   1.00
C237   C     0.80431   0.01883   0.83555   0.00000  Uiso   1.00
C238   C     0.80220   0.06329   0.75973   0.00000  Uiso   1.00
C239   C     0.78698   0.14456   0.66213   0.00000  Uiso   1.00
C240   C     0.83392   0.87195   0.81148   0.00000  Uiso   1.00
C241   C     0.80738   0.82712   0.82935   0.00000  Uiso   1.00
C242   C     0.80667   0.78391   0.75068   0.00000  Uiso   1.00
C243   C     0.79404   0.70347   0.64786   0.00000  Uiso   1.00
C244   C     0.88551   0.92657   0.71532   0.00000  Uiso   1.00
C245   C     0.90903   0.92641   0.82344   0.00000  Uiso   1.00
C246   C     0.95056   0.92769   0.83312   0.00000  Uiso   1.00
C247   C     0.96629   0.92729   0.93939   0.00000  Uiso   1.00
C248   C     0.85718   0.97771   0.72170   0.00000  Uiso   1.00
C249   C     0.85511   0.02212   0.64582   0.00000  Uiso   1.00
C250   C     0.82718   0.06491   0.66642   0.00000  Uiso   1.00
C251   C     0.85885   0.87357   0.71833   0.00000  Uiso   1.00
C252   C     0.85818   0.83042   0.63962   0.00000  Uiso   1.00
C253   C     0.83165   0.78553   0.65736   0.00000  Uiso   1.00
H254   H     0.82018   0.92234   0.95932   0.00000  Uiso   1.00
H255   H     0.88046   0.92315   0.09492   0.00000  Uiso   1.00
H256   H     0.78502   0.01756   0.90764   0.00000  Uiso   1.00
H257   H     0.78809   0.82589   0.90144   0.00000  Uiso   1.00
H258   H     0.95828   0.92478   0.20418   0.00000  Uiso   1.00
H259   H     0.75703   0.12384   0.80926   0.00000  Uiso   1.00
H260   H     0.76350   0.71966   0.79618   0.00000  Uiso   1.00
H261   H     0.90492   0.92783   0.64280   0.00000  Uiso   1.00
H262   H     0.96985   0.92894   0.76103   0.00000  Uiso   1.00
H263   H     0.87441   0.02336   0.57375   0.00000  Uiso   1.00
H264   H     0.87748   0.83168   0.56754   0.00000  Uiso   1.00
H265   H     0.03083   0.92948   0.93318   0.00000  Uiso   1.00
H266   H     0.82958   0.12855   0.53826   0.00000  Uiso   1.00
H267   H     0.83605   0.72436   0.52518   0.00000  Uiso   1.00
O268   O     0.03574   0.92778   0.15217   0.00000  Uiso   1.00
O269   O     0.77169   0.18894   0.63404   0.00000  Uiso   1.00
O270   O     0.78019   0.65866   0.61689   0.00000  Uiso   1.00
N271   N     0.96645   0.92572   0.12417   0.00000  Uiso   1.00
N272   N     0.77829   0.11184   0.75496   0.00000  Uiso   1.00
N273   N     0.78433   0.73397   0.74272   0.00000  Uiso   1.00
N274   N     0.00549   0.92825   0.97835   0.00000  Uiso   1.00
N275   N     0.81733   0.11437   0.60914   0.00000  Uiso   1.00
N276   N     0.82337   0.73650   0.59689   0.00000  Uiso   1.00
C277   C     0.66040   0.57640   0.38681   0.00000  Uiso   1.00
C278   C     0.61590   0.57521   0.41659   0.00000  Uiso   1.00
C279   C     0.60023   0.57561   0.52286   0.00000  Uiso   1.00
C280   C     0.55869   0.57433   0.53270   0.00000  Uiso   1.00
C281   C     0.49339   0.57269   0.59311   0.00000  Uiso   1.00
C282   C     0.66775   0.52391   0.31484   0.00000  Uiso   1.00
C283   C     0.69569   0.48117   0.33555   0.00000  Uiso   1.00
C284   C     0.69780   0.43671   0.25973   0.00000  Uiso   1.00
C285   C     0.71302   0.35544   0.16213   0.00000  Uiso   1.00
C286   C     0.66608   0.62805   0.31148   0.00000  Uiso   1.00
C287   C     0.69262   0.67288   0.32935   0.00000  Uiso   1.00
C288   C     0.69333   0.71609   0.25068   0.00000  Uiso   1.00
C289   C     0.70596   0.79653   0.14786   0.00000  Uiso   1.00
C290   C     0.61449   0.57343   0.21532   0.00000  Uiso   1.00
C291   C     0.59097   0.57359   0.32344   0.00000  Uiso   1.00
C292   C     0.54944   0.57231   0.33312   0.00000  Uiso   1.00
C293   C     0.53371   0.57271   0.43939   0.00000  Uiso   1.00
C294   C     0.64282   0.52229   0.22170   0.00000  Uiso   1.00
C295   C     0.64489   0.47788   0.14582   0.00000  Uiso   1.00
C296   C     0.67282   0.43509   0.16642   0.00000  Uiso   1.00
C297   C     0.64115   0.62643   0.21833   0.00000  Uiso   1.00
C298   C     0.64182   0.66958   0.13962   0.00000  Uiso   1.00
C299   C     0.66835   0.71447   0.15736   0.00000  Uiso   1.00
H300   H     0.67982   0.57766   0.45932   0.00000  Uiso   1.00
H301   H     0.61954   0.57685   0.59492   0.00000  Uiso   1.00
H302   H     0.71498   0.48244   0.40764   0.00000  Uiso   1.00
H303   H     0.71191   0.67411   0.40144   0.00000  Uiso   1.00
H304   H     0.54172   0.57522   0.70418   0.00000  Uiso   1.00
H305   H     0.74297   0.37616   0.30926   0.00000  Uiso   1.00
H306   H     0.73650   0.78034   0.29618   0.00000  Uiso   1.00
H307   H     0.59508   0.57217   0.14280   0.00000  Uiso   1.00
H308   H     0.53015   0.57106   0.26103   0.00000  Uiso   1.00
H309   H     0.62559   0.47664   0.07375   0.00000  Uiso   1.00
H310   H     0.62252   0.66832   0.06754   0.00000  Uiso   1.00
H311   H     0.46917   0.57052   0.43318   0.00000  Uiso   1.00
H312   H     0.67042   0.37145   0.03826   0.00000  Uiso   1.00
H313   H     0.66395   0.77564   0.02518   0.00000  Uiso   1.00
O314   O     0.46426   0.57222   0.65217   0.00000  Uiso   1.00
O315   O     0.72831   0.31106   0.13404   0.00000  Uiso   1.00
O316   O     0.71981   0.84134   0.11689   0.00000  Uiso   1.00
N317   N     0.53355   0.57428   0.62417   0.00000  Uiso   1.00
N318   N     0.72171   0.38816   0.25496   0.00000  Uiso   1.00
N319   N     0.71567   0.76603   0.24272   0.00000  Uiso   1.00
N320   N     0.49451   0.57175   0.47835   0.00000  Uiso   1.00
N321   N     0.68267   0.38563   0.10914   0.00000  Uiso   1.00
N322   N     0.67663   0.76350   0.09689   0.00000  Uiso   1.00
C323   C     0.16040   0.07640   0.38681   0.00000  Uiso   1.00
C324   C     0.11590   0.07521   0.41659   0.00000  Uiso   1.00
C325   C     0.10023   0.07561   0.52286   0.00000  Uiso   1.00
C326   C     0.05869   0.07433   0.53270   0.00000  Uiso   1.00
C327   C     0.99339   0.07269   0.59311   0.00000  Uiso   1.00
C328   C     0.16775   0.02391   0.31484   0.00000  Uiso   1.00
C329   C     0.19569   0.98117   0.33555   0.00000  Uiso   1.00
C330   C     0.19780   0.93671   0.25973   0.00000  Uiso   1.00
C331   C     0.21302   0.85544   0.16213   0.00000  Uiso   1.00
C332   C     0.16608   0.12805   0.31148   0.00000  Uiso   1.00
C333   C     0.19262   0.17288   0.32935   0.00000  Uiso   1.00
C334   C     0.19333   0.21609   0.25068   0.00000  Uiso   1.00
C335   C     0.20596   0.29653   0.14786   0.00000  Uiso   1.00
C336   C     0.11449   0.07343   0.21532   0.00000  Uiso   1.00
C337   C     0.09097   0.07359   0.32344   0.00000  Uiso   1.00
C338   C     0.04944   0.07231   0.33312   0.00000  Uiso   1.00
C339   C     0.03371   0.07271   0.43939   0.00000  Uiso   1.00
C340   C     0.14282   0.02229   0.22170   0.00000  Uiso   1.00
C341   C     0.14489   0.97788   0.14582   0.00000  Uiso   1.00
C342   C     0.17282   0.93509   0.16642   0.00000  Uiso   1.00
C343   C     0.14115   0.12643   0.21833   0.00000  Uiso   1.00
C344   C     0.14182   0.16958   0.13962   0.00000  Uiso   1.00
C345   C     0.16835   0.21447   0.15736   0.00000  Uiso   1.00
H346   H     0.17982   0.07766   0.45932   0.00000  Uiso   1.00
H347   H     0.11954   0.07685   0.59492   0.00000  Uiso   1.00
H348   H     0.21498   0.98244   0.40764   0.00000  Uiso   1.00
H349   H     0.21191   0.17411   0.40144   0.00000  Uiso   1.00
H350   H     0.04172   0.07522   0.70418   0.00000  Uiso   1.00
H351   H     0.24297   0.87616   0.30926   0.00000  Uiso   1.00
H352   H     0.23650   0.28034   0.29618   0.00000  Uiso   1.00
H353   H     0.09508   0.07217   0.14280   0.00000  Uiso   1.00
H354   H     0.03015   0.07106   0.26103   0.00000  Uiso   1.00
H355   H     0.12559   0.97664   0.07375   0.00000  Uiso   1.00
H356   H     0.12252   0.16832   0.06754   0.00000  Uiso   1.00
H357   H     0.96917   0.07052   0.43318   0.00000  Uiso   1.00
H358   H     0.17042   0.87145   0.03826   0.00000  Uiso   1.00
H359   H     0.16395   0.27564   0.02518   0.00000  Uiso   1.00
O360   O     0.96426   0.07222   0.65217   0.00000  Uiso   1.00
O361   O     0.22831   0.81106   0.13404   0.00000  Uiso   1.00
O362   O     0.21981   0.34134   0.11689   0.00000  Uiso   1.00
N363   N     0.03355   0.07428   0.62417   0.00000  Uiso   1.00
N364   N     0.22171   0.88816   0.25496   0.00000  Uiso   1.00
N365   N     0.21567   0.26603   0.24272   0.00000  Uiso   1.00
N366   N     0.99451   0.07175   0.47835   0.00000  Uiso   1.00
N367   N     0.18267   0.88563   0.10914   0.00000  Uiso   1.00
N368   N     0.17663   0.26350   0.09689   0.00000  Uiso   1.00
