data_job_04512
_audit_creation_date              2018-12-19
_audit_creation_method            'Materials Studio'
_symmetry_space_group_name_H-M    'P1'
_symmetry_Int_Tables_number       1
_symmetry_cell_setting            triclinic
loop_
_symmetry_equiv_pos_as_xyz
  x,y,z
_cell_length_a                    9.9855
_cell_length_b                    16.2775
_cell_length_c                    16.7596
_cell_angle_alpha                 110.2000
_cell_angle_beta                  75.7880
_cell_angle_gamma                 74.2213
loop_
_atom_site_label
_atom_site_type_symbol
_atom_site_fract_x
_atom_site_fract_y
_atom_site_fract_z
_atom_site_U_iso_or_equiv
_atom_site_adp_type
_atom_site_occupancy
C1     C     0.99817   0.30840   0.48148   0.00000  Uiso   1.00
C2     C     0.84414   0.30819   0.48522   0.00000  Uiso   1.00
C3     C     0.70702   0.38130   0.54659   0.00000  Uiso   1.00
C4     C     0.57876   0.36738   0.53884   0.00000  Uiso   1.00
C5     C     0.33826   0.37982   0.55484   0.00000  Uiso   1.00
C6     C     0.07895   0.22022   0.49092   0.00000  Uiso   1.00
C7     C     0.13927   0.21938   0.55707   0.00000  Uiso   1.00
C8     C     0.20869   0.13140   0.55410   0.00000  Uiso   1.00
C9     C     0.33283   0.00727   0.57890   0.00000  Uiso   1.00
C10    C     0.08244   0.29073   0.38408   0.00000  Uiso   1.00
C11    C     0.14575   0.34916   0.36039   0.00000  Uiso   1.00
C12    C     0.21815   0.32054   0.26747   0.00000  Uiso   1.00
C13    C     0.34771   0.30589   0.12639   0.00000  Uiso   1.00
C14    C     0.01423   0.15366   0.35858   0.00000  Uiso   1.00
C15    C     0.85286   0.22414   0.41847   0.00000  Uiso   1.00
C16    C     0.72478   0.21010   0.41062   0.00000  Uiso   1.00
C17    C     0.58750   0.28318   0.47197   0.00000  Uiso   1.00
C18    C     0.08767   0.13618   0.42417   0.00000  Uiso   1.00
C19    C     0.15703   0.04818   0.42110   0.00000  Uiso   1.00
C20    C     0.21743   0.04720   0.48723   0.00000  Uiso   1.00
C21    C     0.09116   0.20669   0.31732   0.00000  Uiso   1.00
C22    C     0.16349   0.17796   0.22442   0.00000  Uiso   1.00
C23    C     0.22689   0.23634   0.20060   0.00000  Uiso   1.00
H24    H     0.99139   0.37383   0.53345   0.00000  Uiso   1.00
H25    H     0.70032   0.44633   0.59825   0.00000  Uiso   1.00
H26    H     0.13252   0.28443   0.60871   0.00000  Uiso   1.00
H27    H     0.13898   0.41419   0.41207   0.00000  Uiso   1.00
H28    H     0.38146   0.48963   0.64067   0.00000  Uiso   1.00
H29    H     0.29281   0.14826   0.66272   0.00000  Uiso   1.00
H30    H     0.30644   0.42189   0.24806   0.00000  Uiso   1.00
H31    H     0.02102   0.08822   0.30661   0.00000  Uiso   1.00
H32    H     0.73156   0.14506   0.35896   0.00000  Uiso   1.00
H33    H     0.16376   0.98316   0.36943   0.00000  Uiso   1.00
H34    H     0.17022   0.11292   0.17278   0.00000  Uiso   1.00
H35    H     0.40681   0.24511   0.44646   0.00000  Uiso   1.00
H36    H     0.31818   0.90373   0.46851   0.00000  Uiso   1.00
H37    H     0.33180   0.17736   0.05384   0.00000  Uiso   1.00
O38    O     0.20319   0.40990   0.58211   0.00000  Uiso   1.00
O39    O     0.39887   0.96203   0.61103   0.00000  Uiso   1.00
O40    O     0.41675   0.32103   0.06701   0.00000  Uiso   1.00
N41    N     0.42715   0.42429   0.58777   0.00000  Uiso   1.00
N42    N     0.27919   0.10513   0.60839   0.00000  Uiso   1.00
N43    N     0.29197   0.36094   0.22072   0.00000  Uiso   1.00
N44    N     0.44079   0.29272   0.48326   0.00000  Uiso   1.00
N45    N     0.29283   0.97355   0.50389   0.00000  Uiso   1.00
N46    N     0.30561   0.22936   0.11621   0.00000  Uiso   1.00
C47    C     0.11399   0.68390   0.98616   0.00000  Uiso   1.00
C48    C     0.95231   0.75445   0.04495   0.00000  Uiso   1.00
C49    C     0.82482   0.74040   0.03584   0.00000  Uiso   1.00
C50    C     0.68712   0.81356   0.09630   0.00000  Uiso   1.00
C51    C     0.43754   0.91033   0.17734   0.00000  Uiso   1.00
C52    C     0.19227   0.73677   0.94550   0.00000  Uiso   1.00
C53    C     0.26657   0.70783   0.85276   0.00000  Uiso   1.00
C54    C     0.33089   0.76610   0.82950   0.00000  Uiso   1.00
C55    C     0.45397   0.83538   0.75614   0.00000  Uiso   1.00
C56    C     0.18515   0.66664   0.05272   0.00000  Uiso   1.00
C57    C     0.25350   0.57875   0.05013   0.00000  Uiso   1.00
C58    C     0.31186   0.57798   0.11713   0.00000  Uiso   1.00
C59    C     0.42388   0.53838   0.21026   0.00000  Uiso   1.00
C60    C     0.09613   0.83881   0.10975   0.00000  Uiso   1.00
C61    C     0.94261   0.83860   0.11208   0.00000  Uiso   1.00
C62    C     0.80506   0.91179   0.17257   0.00000  Uiso   1.00
C63    C     0.67740   0.89785   0.16355   0.00000  Uiso   1.00
C64    C     0.18258   0.82091   0.01262   0.00000  Uiso   1.00
C65    C     0.24681   0.87923   0.98949   0.00000  Uiso   1.00
C66    C     0.32118   0.85040   0.89674   0.00000  Uiso   1.00
C67    C     0.17545   0.75079   0.11985   0.00000  Uiso   1.00
C68    C     0.23373   0.75015   0.18686   0.00000  Uiso   1.00
C69    C     0.30215   0.66228   0.18438   0.00000  Uiso   1.00
H70    H     0.12155   0.61839   0.93390   0.00000  Uiso   1.00
H71    H     0.83238   0.67527   0.98388   0.00000  Uiso   1.00
H72    H     0.27407   0.64271   0.80083   0.00000  Uiso   1.00
H73    H     0.26099   0.51365   0.99817   0.00000  Uiso   1.00
H74    H     0.50750   0.77546   0.06887   0.00000  Uiso   1.00
H75    H     0.43888   0.70678   0.68291   0.00000  Uiso   1.00
H76    H     0.41130   0.43463   0.09904   0.00000  Uiso   1.00
H77    H     0.08859   0.90433   0.16201   0.00000  Uiso   1.00
H78    H     0.79760   0.97690   0.22451   0.00000  Uiso   1.00
H79    H     0.23929   0.94434   0.04145   0.00000  Uiso   1.00
H80    H     0.22621   0.81528   0.23880   0.00000  Uiso   1.00
H81    H     0.47927   0.02027   0.26417   0.00000  Uiso   1.00
H82    H     0.41066   0.95159   0.87820   0.00000  Uiso   1.00
H83    H     0.38307   0.67945   0.29434   0.00000  Uiso   1.00
O84    O     0.30256   0.94046   0.20349   0.00000  Uiso   1.00
O85    O     0.52452   0.85034   0.69713   0.00000  Uiso   1.00
O86    O     0.48832   0.49330   0.24309   0.00000  Uiso   1.00
N87    N     0.54079   0.82311   0.10627   0.00000  Uiso   1.00
N88    N     0.41155   0.75890   0.74541   0.00000  Uiso   1.00
N89    N     0.38580   0.50447   0.13445   0.00000  Uiso   1.00
N90    N     0.52560   0.95484   0.21136   0.00000  Uiso   1.00
N91    N     0.39636   0.89064   0.85050   0.00000  Uiso   1.00
N92    N     0.37061   0.63620   0.23954   0.00000  Uiso   1.00
C93    C     0.00183   0.69160   0.51852   0.00000  Uiso   1.00
C94    C     0.15586   0.69181   0.51478   0.00000  Uiso   1.00
C95    C     0.29298   0.61870   0.45341   0.00000  Uiso   1.00
C96    C     0.42124   0.63262   0.46116   0.00000  Uiso   1.00
C97    C     0.66174   0.62018   0.44516   0.00000  Uiso   1.00
C98    C     0.92105   0.77978   0.50908   0.00000  Uiso   1.00
C99    C     0.86073   0.78062   0.44293   0.00000  Uiso   1.00
C100   C     0.79131   0.86860   0.44590   0.00000  Uiso   1.00
C101   C     0.66717   0.99273   0.42110   0.00000  Uiso   1.00
C102   C     0.91756   0.70927   0.61592   0.00000  Uiso   1.00
C103   C     0.85425   0.65084   0.63961   0.00000  Uiso   1.00
C104   C     0.78185   0.67946   0.73253   0.00000  Uiso   1.00
C105   C     0.65229   0.69411   0.87361   0.00000  Uiso   1.00
C106   C     0.98577   0.84634   0.64142   0.00000  Uiso   1.00
C107   C     0.14714   0.77586   0.58153   0.00000  Uiso   1.00
C108   C     0.27522   0.78990   0.58938   0.00000  Uiso   1.00
C109   C     0.41250   0.71682   0.52803   0.00000  Uiso   1.00
C110   C     0.91233   0.86382   0.57583   0.00000  Uiso   1.00
C111   C     0.84297   0.95182   0.57890   0.00000  Uiso   1.00
C112   C     0.78257   0.95280   0.51277   0.00000  Uiso   1.00
C113   C     0.90884   0.79331   0.68268   0.00000  Uiso   1.00
C114   C     0.83651   0.82204   0.77558   0.00000  Uiso   1.00
C115   C     0.77311   0.76366   0.79940   0.00000  Uiso   1.00
H116   H     0.00861   0.62617   0.46655   0.00000  Uiso   1.00
H117   H     0.29968   0.55367   0.40175   0.00000  Uiso   1.00
H118   H     0.86748   0.71557   0.39129   0.00000  Uiso   1.00
H119   H     0.86102   0.58581   0.58793   0.00000  Uiso   1.00
H120   H     0.61854   0.51037   0.35933   0.00000  Uiso   1.00
H121   H     0.70719   0.85174   0.33728   0.00000  Uiso   1.00
H122   H     0.69356   0.57811   0.75194   0.00000  Uiso   1.00
H123   H     0.97898   0.91178   0.69339   0.00000  Uiso   1.00
H124   H     0.26844   0.85494   0.64104   0.00000  Uiso   1.00
H125   H     0.83624   0.01684   0.63057   0.00000  Uiso   1.00
H126   H     0.82978   0.88708   0.82722   0.00000  Uiso   1.00
H127   H     0.59319   0.75489   0.55354   0.00000  Uiso   1.00
H128   H     0.68182   0.09627   0.53149   0.00000  Uiso   1.00
H129   H     0.66820   0.82264   0.94616   0.00000  Uiso   1.00
O130   O     0.79681   0.59010   0.41789   0.00000  Uiso   1.00
O131   O     0.60113   0.03797   0.38897   0.00000  Uiso   1.00
O132   O     0.58325   0.67897   0.93299   0.00000  Uiso   1.00
N133   N     0.57285   0.57571   0.41223   0.00000  Uiso   1.00
N134   N     0.72081   0.89487   0.39161   0.00000  Uiso   1.00
N135   N     0.70803   0.63906   0.77928   0.00000  Uiso   1.00
N136   N     0.55921   0.70728   0.51674   0.00000  Uiso   1.00
N137   N     0.70717   0.02645   0.49611   0.00000  Uiso   1.00
N138   N     0.69439   0.77064   0.88379   0.00000  Uiso   1.00
C139   C     0.88601   0.31610   0.01384   0.00000  Uiso   1.00
C140   C     0.04769   0.24555   0.95505   0.00000  Uiso   1.00
C141   C     0.17518   0.25960   0.96416   0.00000  Uiso   1.00
C142   C     0.31288   0.18644   0.90370   0.00000  Uiso   1.00
C143   C     0.56246   0.08967   0.82266   0.00000  Uiso   1.00
C144   C     0.80773   0.26323   0.05450   0.00000  Uiso   1.00
C145   C     0.73343   0.29217   0.14724   0.00000  Uiso   1.00
C146   C     0.66911   0.23390   0.17050   0.00000  Uiso   1.00
C147   C     0.54603   0.16462   0.24386   0.00000  Uiso   1.00
C148   C     0.81485   0.33336   0.94728   0.00000  Uiso   1.00
C149   C     0.74650   0.42125   0.94987   0.00000  Uiso   1.00
C150   C     0.68814   0.42202   0.88287   0.00000  Uiso   1.00
C151   C     0.57612   0.46162   0.78974   0.00000  Uiso   1.00
C152   C     0.90387   0.16119   0.89025   0.00000  Uiso   1.00
C153   C     0.05739   0.16140   0.88792   0.00000  Uiso   1.00
C154   C     0.19494   0.08821   0.82743   0.00000  Uiso   1.00
C155   C     0.32260   0.10215   0.83645   0.00000  Uiso   1.00
C156   C     0.81742   0.17909   0.98738   0.00000  Uiso   1.00
C157   C     0.75319   0.12077   0.01051   0.00000  Uiso   1.00
C158   C     0.67882   0.14960   0.10326   0.00000  Uiso   1.00
C159   C     0.82455   0.24921   0.88015   0.00000  Uiso   1.00
C160   C     0.76627   0.24985   0.81314   0.00000  Uiso   1.00
C161   C     0.69785   0.33772   0.81562   0.00000  Uiso   1.00
H162   H     0.87845   0.38161   0.06610   0.00000  Uiso   1.00
H163   H     0.16762   0.32473   0.01612   0.00000  Uiso   1.00
H164   H     0.72593   0.35729   0.19917   0.00000  Uiso   1.00
H165   H     0.73901   0.48635   0.00183   0.00000  Uiso   1.00
H166   H     0.49250   0.22454   0.93113   0.00000  Uiso   1.00
H167   H     0.56112   0.29322   0.31709   0.00000  Uiso   1.00
H168   H     0.58870   0.56537   0.90096   0.00000  Uiso   1.00
H169   H     0.91141   0.09567   0.83799   0.00000  Uiso   1.00
H170   H     0.20240   0.02310   0.77549   0.00000  Uiso   1.00
H171   H     0.76071   0.05566   0.95855   0.00000  Uiso   1.00
H172   H     0.77379   0.18472   0.76120   0.00000  Uiso   1.00
H173   H     0.52073   0.97973   0.73583   0.00000  Uiso   1.00
H174   H     0.58934   0.04841   0.12180   0.00000  Uiso   1.00
H175   H     0.61693   0.32055   0.70566   0.00000  Uiso   1.00
O176   O     0.69744   0.05954   0.79651   0.00000  Uiso   1.00
O177   O     0.47548   0.14966   0.30287   0.00000  Uiso   1.00
O178   O     0.51168   0.50670   0.75691   0.00000  Uiso   1.00
N179   N     0.45921   0.17689   0.89373   0.00000  Uiso   1.00
N180   N     0.58845   0.24110   0.25459   0.00000  Uiso   1.00
N181   N     0.61420   0.49553   0.86555   0.00000  Uiso   1.00
N182   N     0.47440   0.04516   0.78864   0.00000  Uiso   1.00
N183   N     0.60364   0.10936   0.14950   0.00000  Uiso   1.00
N184   N     0.62939   0.36380   0.76046   0.00000  Uiso   1.00
