data_job_05783
_audit_creation_date              2018-12-19
_audit_creation_method            'Materials Studio'
_symmetry_space_group_name_H-M    'P1'
_symmetry_Int_Tables_number       1
_symmetry_cell_setting            triclinic
loop_
_symmetry_equiv_pos_as_xyz
  x,y,z
_cell_length_a                    9.8707
_cell_length_b                    32.0739
_cell_length_c                    9.5440
_cell_angle_alpha                 90.0000
_cell_angle_beta                  90.0000
_cell_angle_gamma                 90.0000
loop_
_atom_site_label
_atom_site_type_symbol
_atom_site_fract_x
_atom_site_fract_y
_atom_site_fract_z
_atom_site_U_iso_or_equiv
_atom_site_adp_type
_atom_site_occupancy
C1     C     0.28916   0.83153   0.27073   0.00000  Uiso   1.00
C2     C     0.42956   0.81588   0.31172   0.00000  Uiso   1.00
C3     C     0.45657   0.78284   0.40136   0.00000  Uiso   1.00
C4     C     0.59184   0.77340   0.42554   0.00000  Uiso   1.00
C5     C     0.79396   0.74565   0.49887   0.00000  Uiso   1.00
C6     C     0.28588   0.87764   0.30953   0.00000  Uiso   1.00
C7     C     0.19206   0.89653   0.39731   0.00000  Uiso   1.00
C8     C     0.20637   0.93907   0.41963   0.00000  Uiso   1.00
C9     C     0.18536   0.00721   0.48947   0.00000  Uiso   1.00
C10    C     0.28376   0.82984   0.11116   0.00000  Uiso   1.00
C11    C     0.18815   0.80855   0.03213   0.00000  Uiso   1.00
C12    C     0.20065   0.81087   0.88743   0.00000  Uiso   1.00
C13    C     0.17635   0.80479   0.64927   0.00000  Uiso   1.00
C14    C     0.48136   0.87352   0.15429   0.00000  Uiso   1.00
C15    C     0.53395   0.83869   0.24848   0.00000  Uiso   1.00
C16    C     0.66922   0.82930   0.27253   0.00000  Uiso   1.00
C17    C     0.69642   0.79625   0.36218   0.00000  Uiso   1.00
C18    C     0.39027   0.90045   0.24629   0.00000  Uiso   1.00
C19    C     0.40471   0.94298   0.26848   0.00000  Uiso   1.00
C20    C     0.31095   0.96192   0.35627   0.00000  Uiso   1.00
C21    C     0.38816   0.85265   0.04791   0.00000  Uiso   1.00
C22    C     0.40080   0.85500   0.90330   0.00000  Uiso   1.00
C23    C     0.30523   0.83371   0.82407   0.00000  Uiso   1.00
H24    H     0.20789   0.81378   0.31997   0.00000  Uiso   1.00
H25    H     0.37575   0.76521   0.45029   0.00000  Uiso   1.00
H26    H     0.11128   0.87887   0.44622   0.00000  Uiso   1.00
H27    H     0.10738   0.79090   0.08111   0.00000  Uiso   1.00
H28    H     0.60791   0.72142   0.56692   0.00000  Uiso   1.00
H29    H     0.05022   0.96109   0.55831   0.00000  Uiso   1.00
H30    H     0.04198   0.77560   0.78839   0.00000  Uiso   1.00
H31    H     0.56264   0.89128   0.10505   0.00000  Uiso   1.00
H32    H     0.74998   0.84695   0.22357   0.00000  Uiso   1.00
H33    H     0.48550   0.96062   0.21951   0.00000  Uiso   1.00
H34    H     0.48160   0.87265   0.85440   0.00000  Uiso   1.00
H35    H     0.91164   0.78777   0.38291   0.00000  Uiso   1.00
H36    H     0.35395   0.02744   0.37430   0.00000  Uiso   1.00
H37    H     0.34571   0.84195   0.60438   0.00000  Uiso   1.00
O38    O     0.87661   0.72405   0.55680   0.00000  Uiso   1.00
O39    O     0.14493   0.03849   0.54548   0.00000  Uiso   1.00
O40    O     0.13413   0.79513   0.53537   0.00000  Uiso   1.00
N41    N     0.65368   0.74311   0.50733   0.00000  Uiso   1.00
N42    N     0.13229   0.96719   0.49930   0.00000  Uiso   1.00
N43    N     0.12456   0.79378   0.77949   0.00000  Uiso   1.00
N44    N     0.81712   0.77882   0.40831   0.00000  Uiso   1.00
N45    N     0.29573   0.00289   0.40028   0.00000  Uiso   1.00
N46    N     0.28800   0.82948   0.68047   0.00000  Uiso   1.00
C47    C     0.71084   0.16847   0.27073   0.00000  Uiso   1.00
C48    C     0.57044   0.18412   0.31172   0.00000  Uiso   1.00
C49    C     0.54343   0.21716   0.40136   0.00000  Uiso   1.00
C50    C     0.40816   0.22660   0.42554   0.00000  Uiso   1.00
C51    C     0.20604   0.25435   0.49887   0.00000  Uiso   1.00
C52    C     0.71412   0.12236   0.30953   0.00000  Uiso   1.00
C53    C     0.80794   0.10347   0.39731   0.00000  Uiso   1.00
C54    C     0.79363   0.06093   0.41963   0.00000  Uiso   1.00
C55    C     0.81464   0.99279   0.48947   0.00000  Uiso   1.00
C56    C     0.71624   0.17016   0.11116   0.00000  Uiso   1.00
C57    C     0.81185   0.19145   0.03213   0.00000  Uiso   1.00
C58    C     0.79935   0.18913   0.88743   0.00000  Uiso   1.00
C59    C     0.82365   0.19521   0.64927   0.00000  Uiso   1.00
C60    C     0.51864   0.12648   0.15429   0.00000  Uiso   1.00
C61    C     0.46605   0.16131   0.24848   0.00000  Uiso   1.00
C62    C     0.33078   0.17070   0.27253   0.00000  Uiso   1.00
C63    C     0.30358   0.20375   0.36218   0.00000  Uiso   1.00
C64    C     0.60973   0.09955   0.24629   0.00000  Uiso   1.00
C65    C     0.59529   0.05702   0.26848   0.00000  Uiso   1.00
C66    C     0.68905   0.03808   0.35627   0.00000  Uiso   1.00
C67    C     0.61184   0.14735   0.04791   0.00000  Uiso   1.00
C68    C     0.59920   0.14500   0.90330   0.00000  Uiso   1.00
C69    C     0.69477   0.16629   0.82407   0.00000  Uiso   1.00
H70    H     0.79211   0.18622   0.31997   0.00000  Uiso   1.00
H71    H     0.62425   0.23479   0.45029   0.00000  Uiso   1.00
H72    H     0.88872   0.12113   0.44622   0.00000  Uiso   1.00
H73    H     0.89262   0.20910   0.08111   0.00000  Uiso   1.00
H74    H     0.39209   0.27858   0.56692   0.00000  Uiso   1.00
H75    H     0.94978   0.03891   0.55831   0.00000  Uiso   1.00
H76    H     0.95802   0.22440   0.78839   0.00000  Uiso   1.00
H77    H     0.43736   0.10872   0.10505   0.00000  Uiso   1.00
H78    H     0.25002   0.15305   0.22357   0.00000  Uiso   1.00
H79    H     0.51450   0.03938   0.21951   0.00000  Uiso   1.00
H80    H     0.51840   0.12735   0.85440   0.00000  Uiso   1.00
H81    H     0.08836   0.21223   0.38291   0.00000  Uiso   1.00
H82    H     0.64605   0.97256   0.37430   0.00000  Uiso   1.00
H83    H     0.65429   0.15805   0.60438   0.00000  Uiso   1.00
O84    O     0.12339   0.27595   0.55680   0.00000  Uiso   1.00
O85    O     0.85507   0.96151   0.54548   0.00000  Uiso   1.00
O86    O     0.86587   0.20487   0.53537   0.00000  Uiso   1.00
N87    N     0.34632   0.25689   0.50733   0.00000  Uiso   1.00
N88    N     0.86771   0.03281   0.49930   0.00000  Uiso   1.00
N89    N     0.87544   0.20622   0.77949   0.00000  Uiso   1.00
N90    N     0.18288   0.22118   0.40831   0.00000  Uiso   1.00
N91    N     0.70427   0.99711   0.40028   0.00000  Uiso   1.00
N92    N     0.71200   0.17052   0.68047   0.00000  Uiso   1.00
C93    C     0.28916   0.66847   0.77073   0.00000  Uiso   1.00
C94    C     0.42956   0.68412   0.81172   0.00000  Uiso   1.00
C95    C     0.45657   0.71716   0.90136   0.00000  Uiso   1.00
C96    C     0.59184   0.72660   0.92554   0.00000  Uiso   1.00
C97    C     0.79396   0.75435   0.99887   0.00000  Uiso   1.00
C98    C     0.28588   0.62236   0.80953   0.00000  Uiso   1.00
C99    C     0.19206   0.60347   0.89731   0.00000  Uiso   1.00
C100   C     0.20637   0.56093   0.91963   0.00000  Uiso   1.00
C101   C     0.18536   0.49279   0.98947   0.00000  Uiso   1.00
C102   C     0.28376   0.67016   0.61116   0.00000  Uiso   1.00
C103   C     0.18815   0.69145   0.53213   0.00000  Uiso   1.00
C104   C     0.20065   0.68913   0.38743   0.00000  Uiso   1.00
C105   C     0.17635   0.69521   0.14927   0.00000  Uiso   1.00
C106   C     0.48136   0.62648   0.65429   0.00000  Uiso   1.00
C107   C     0.53395   0.66131   0.74848   0.00000  Uiso   1.00
C108   C     0.66922   0.67070   0.77253   0.00000  Uiso   1.00
C109   C     0.69642   0.70375   0.86218   0.00000  Uiso   1.00
C110   C     0.39027   0.59955   0.74629   0.00000  Uiso   1.00
C111   C     0.40471   0.55702   0.76848   0.00000  Uiso   1.00
C112   C     0.31095   0.53808   0.85627   0.00000  Uiso   1.00
C113   C     0.38816   0.64735   0.54791   0.00000  Uiso   1.00
C114   C     0.40080   0.64500   0.40330   0.00000  Uiso   1.00
C115   C     0.30523   0.66629   0.32407   0.00000  Uiso   1.00
H116   H     0.20789   0.68622   0.81997   0.00000  Uiso   1.00
H117   H     0.37575   0.73479   0.95029   0.00000  Uiso   1.00
H118   H     0.11128   0.62113   0.94622   0.00000  Uiso   1.00
H119   H     0.10738   0.70910   0.58111   0.00000  Uiso   1.00
H120   H     0.60791   0.77858   0.06692   0.00000  Uiso   1.00
H121   H     0.05022   0.53891   0.05831   0.00000  Uiso   1.00
H122   H     0.04198   0.72440   0.28839   0.00000  Uiso   1.00
H123   H     0.56264   0.60872   0.60505   0.00000  Uiso   1.00
H124   H     0.74998   0.65305   0.72357   0.00000  Uiso   1.00
H125   H     0.48550   0.53938   0.71951   0.00000  Uiso   1.00
H126   H     0.48160   0.62735   0.35440   0.00000  Uiso   1.00
H127   H     0.91164   0.71223   0.88291   0.00000  Uiso   1.00
H128   H     0.35395   0.47256   0.87430   0.00000  Uiso   1.00
H129   H     0.34571   0.65805   0.10438   0.00000  Uiso   1.00
O130   O     0.87661   0.77595   0.05680   0.00000  Uiso   1.00
O131   O     0.14493   0.46151   0.04548   0.00000  Uiso   1.00
O132   O     0.13413   0.70487   0.03537   0.00000  Uiso   1.00
N133   N     0.65368   0.75689   0.00733   0.00000  Uiso   1.00
N134   N     0.13229   0.53281   0.99930   0.00000  Uiso   1.00
N135   N     0.12456   0.70622   0.27949   0.00000  Uiso   1.00
N136   N     0.81712   0.72118   0.90831   0.00000  Uiso   1.00
N137   N     0.29573   0.49711   0.90028   0.00000  Uiso   1.00
N138   N     0.28800   0.67052   0.18047   0.00000  Uiso   1.00
C139   C     0.71084   0.33153   0.77073   0.00000  Uiso   1.00
C140   C     0.57044   0.31588   0.81172   0.00000  Uiso   1.00
C141   C     0.54343   0.28284   0.90136   0.00000  Uiso   1.00
C142   C     0.40816   0.27340   0.92554   0.00000  Uiso   1.00
C143   C     0.20604   0.24565   0.99887   0.00000  Uiso   1.00
C144   C     0.71412   0.37764   0.80953   0.00000  Uiso   1.00
C145   C     0.80794   0.39653   0.89731   0.00000  Uiso   1.00
C146   C     0.79363   0.43907   0.91963   0.00000  Uiso   1.00
C147   C     0.81464   0.50721   0.98947   0.00000  Uiso   1.00
C148   C     0.71624   0.32984   0.61116   0.00000  Uiso   1.00
C149   C     0.81185   0.30855   0.53213   0.00000  Uiso   1.00
C150   C     0.79935   0.31087   0.38743   0.00000  Uiso   1.00
C151   C     0.82365   0.30479   0.14927   0.00000  Uiso   1.00
C152   C     0.51864   0.37352   0.65429   0.00000  Uiso   1.00
C153   C     0.46605   0.33869   0.74848   0.00000  Uiso   1.00
C154   C     0.33078   0.32930   0.77253   0.00000  Uiso   1.00
C155   C     0.30358   0.29625   0.86218   0.00000  Uiso   1.00
C156   C     0.60973   0.40045   0.74629   0.00000  Uiso   1.00
C157   C     0.59529   0.44298   0.76848   0.00000  Uiso   1.00
C158   C     0.68905   0.46192   0.85627   0.00000  Uiso   1.00
C159   C     0.61184   0.35265   0.54791   0.00000  Uiso   1.00
C160   C     0.59920   0.35500   0.40330   0.00000  Uiso   1.00
C161   C     0.69477   0.33371   0.32407   0.00000  Uiso   1.00
H162   H     0.79211   0.31378   0.81997   0.00000  Uiso   1.00
H163   H     0.62425   0.26521   0.95029   0.00000  Uiso   1.00
H164   H     0.88872   0.37887   0.94622   0.00000  Uiso   1.00
H165   H     0.89262   0.29090   0.58111   0.00000  Uiso   1.00
H166   H     0.39209   0.22142   0.06692   0.00000  Uiso   1.00
H167   H     0.94978   0.46109   0.05831   0.00000  Uiso   1.00
H168   H     0.95802   0.27560   0.28839   0.00000  Uiso   1.00
H169   H     0.43736   0.39128   0.60505   0.00000  Uiso   1.00
H170   H     0.25002   0.34695   0.72357   0.00000  Uiso   1.00
H171   H     0.51450   0.46062   0.71951   0.00000  Uiso   1.00
H172   H     0.51840   0.37265   0.35440   0.00000  Uiso   1.00
H173   H     0.08836   0.28777   0.88291   0.00000  Uiso   1.00
H174   H     0.64605   0.52744   0.87430   0.00000  Uiso   1.00
H175   H     0.65429   0.34195   0.10438   0.00000  Uiso   1.00
O176   O     0.12339   0.22405   0.05680   0.00000  Uiso   1.00
O177   O     0.85507   0.53849   0.04548   0.00000  Uiso   1.00
O178   O     0.86587   0.29513   0.03537   0.00000  Uiso   1.00
N179   N     0.34632   0.24311   0.00733   0.00000  Uiso   1.00
N180   N     0.86771   0.46719   0.99930   0.00000  Uiso   1.00
N181   N     0.87544   0.29378   0.27949   0.00000  Uiso   1.00
N182   N     0.18288   0.27882   0.90831   0.00000  Uiso   1.00
N183   N     0.70427   0.50289   0.90028   0.00000  Uiso   1.00
N184   N     0.71200   0.32948   0.18047   0.00000  Uiso   1.00
