data_job_05369
_audit_creation_date              2018-12-19
_audit_creation_method            'Materials Studio'
_symmetry_space_group_name_H-M    'P1'
_symmetry_Int_Tables_number       1
_symmetry_cell_setting            triclinic
loop_
_symmetry_equiv_pos_as_xyz
  x,y,z
_cell_length_a                    12.6082
_cell_length_b                    21.1434
_cell_length_c                    27.0848
_cell_angle_alpha                 90.0000
_cell_angle_beta                  75.8107
_cell_angle_gamma                 90.0000
loop_
_atom_site_label
_atom_site_type_symbol
_atom_site_fract_x
_atom_site_fract_y
_atom_site_fract_z
_atom_site_U_iso_or_equiv
_atom_site_adp_type
_atom_site_occupancy
C1     C     0.85981   0.62839   0.40219   0.00000  Uiso   1.00
C2     C     0.75628   0.66831   0.41003   0.00000  Uiso   1.00
C3     C     0.67517   0.67309   0.45494   0.00000  Uiso   1.00
C4     C     0.58689   0.71209   0.45435   0.00000  Uiso   1.00
C5     C     0.42715   0.76903   0.47320   0.00000  Uiso   1.00
C6     C     0.85934   0.58468   0.35746   0.00000  Uiso   1.00
C7     C     0.86490   0.51914   0.35818   0.00000  Uiso   1.00
C8     C     0.86339   0.48773   0.31334   0.00000  Uiso   1.00
C9     C     0.86373   0.41483   0.25057   0.00000  Uiso   1.00
C10    C     0.95520   0.67381   0.38363   0.00000  Uiso   1.00
C11    C     0.04138   0.68321   0.40634   0.00000  Uiso   1.00
C12    C     0.12060   0.72684   0.38353   0.00000  Uiso   1.00
C13    C     0.26978   0.79234   0.36139   0.00000  Uiso   1.00
C14    C     0.84727   0.68915   0.32128   0.00000  Uiso   1.00
C15    C     0.74947   0.70131   0.36608   0.00000  Uiso   1.00
C16    C     0.66129   0.74031   0.36542   0.00000  Uiso   1.00
C17    C     0.58007   0.74515   0.41033   0.00000  Uiso   1.00
C18    C     0.85253   0.61767   0.31352   0.00000  Uiso   1.00
C19    C     0.85102   0.58636   0.26866   0.00000  Uiso   1.00
C20    C     0.85657   0.52079   0.26931   0.00000  Uiso   1.00
C21    C     0.94839   0.70682   0.33969   0.00000  Uiso   1.00
C22    C     0.02750   0.75043   0.31683   0.00000  Uiso   1.00
C23    C     0.11377   0.75990   0.33950   0.00000  Uiso   1.00
H24    H     0.86511   0.60270   0.43641   0.00000  Uiso   1.00
H25    H     0.68047   0.64754   0.48894   0.00000  Uiso   1.00
H26    H     0.87018   0.49362   0.39220   0.00000  Uiso   1.00
H27    H     0.04662   0.65767   0.44035   0.00000  Uiso   1.00
H28    H     0.47273   0.71180   0.52780   0.00000  Uiso   1.00
H29    H     0.87278   0.38723   0.32380   0.00000  Uiso   1.00
H30    H     0.24486   0.73317   0.42535   0.00000  Uiso   1.00
H31    H     0.84196   0.71484   0.28706   0.00000  Uiso   1.00
H32    H     0.65604   0.76584   0.33141   0.00000  Uiso   1.00
H33    H     0.84575   0.61191   0.23466   0.00000  Uiso   1.00
H34    H     0.02220   0.77596   0.28282   0.00000  Uiso   1.00
H35    H     0.45291   0.80781   0.39994   0.00000  Uiso   1.00
H36    H     0.85296   0.48324   0.19594   0.00000  Uiso   1.00
H37    H     0.22503   0.82918   0.29749   0.00000  Uiso   1.00
O38    O     0.34092   0.79131   0.49573   0.00000  Uiso   1.00
O39    O     0.86579   0.36550   0.22809   0.00000  Uiso   1.00
O40    O     0.35393   0.81936   0.36132   0.00000  Uiso   1.00
N41    N     0.49359   0.72740   0.49163   0.00000  Uiso   1.00
N42    N     0.86760   0.42396   0.30090   0.00000  Uiso   1.00
N43    N     0.21547   0.74736   0.39583   0.00000  Uiso   1.00
N44    N     0.48292   0.77907   0.42283   0.00000  Uiso   1.00
N45    N     0.85693   0.47562   0.23210   0.00000  Uiso   1.00
N46    N     0.20480   0.79903   0.32703   0.00000  Uiso   1.00
C47    C     0.35981   0.12839   0.40219   0.00000  Uiso   1.00
C48    C     0.25628   0.16831   0.41003   0.00000  Uiso   1.00
C49    C     0.17517   0.17309   0.45494   0.00000  Uiso   1.00
C50    C     0.08689   0.21209   0.45435   0.00000  Uiso   1.00
C51    C     0.92715   0.26903   0.47320   0.00000  Uiso   1.00
C52    C     0.35934   0.08468   0.35746   0.00000  Uiso   1.00
C53    C     0.36490   0.01914   0.35818   0.00000  Uiso   1.00
C54    C     0.36339   0.98773   0.31334   0.00000  Uiso   1.00
C55    C     0.36373   0.91483   0.25057   0.00000  Uiso   1.00
C56    C     0.45520   0.17381   0.38363   0.00000  Uiso   1.00
C57    C     0.54138   0.18321   0.40634   0.00000  Uiso   1.00
C58    C     0.62060   0.22684   0.38353   0.00000  Uiso   1.00
C59    C     0.76978   0.29234   0.36139   0.00000  Uiso   1.00
C60    C     0.34727   0.18915   0.32128   0.00000  Uiso   1.00
C61    C     0.24947   0.20131   0.36608   0.00000  Uiso   1.00
C62    C     0.16129   0.24031   0.36542   0.00000  Uiso   1.00
C63    C     0.08007   0.24515   0.41033   0.00000  Uiso   1.00
C64    C     0.35253   0.11767   0.31352   0.00000  Uiso   1.00
C65    C     0.35102   0.08636   0.26866   0.00000  Uiso   1.00
C66    C     0.35657   0.02079   0.26931   0.00000  Uiso   1.00
C67    C     0.44839   0.20682   0.33969   0.00000  Uiso   1.00
C68    C     0.52750   0.25043   0.31683   0.00000  Uiso   1.00
C69    C     0.61377   0.25990   0.33950   0.00000  Uiso   1.00
H70    H     0.36511   0.10270   0.43641   0.00000  Uiso   1.00
H71    H     0.18047   0.14754   0.48894   0.00000  Uiso   1.00
H72    H     0.37018   0.99362   0.39220   0.00000  Uiso   1.00
H73    H     0.54662   0.15767   0.44035   0.00000  Uiso   1.00
H74    H     0.97273   0.21180   0.52780   0.00000  Uiso   1.00
H75    H     0.37278   0.88723   0.32380   0.00000  Uiso   1.00
H76    H     0.74486   0.23317   0.42535   0.00000  Uiso   1.00
H77    H     0.34196   0.21484   0.28706   0.00000  Uiso   1.00
H78    H     0.15604   0.26584   0.33141   0.00000  Uiso   1.00
H79    H     0.34575   0.11191   0.23466   0.00000  Uiso   1.00
H80    H     0.52220   0.27596   0.28282   0.00000  Uiso   1.00
H81    H     0.95291   0.30781   0.39994   0.00000  Uiso   1.00
H82    H     0.35296   0.98324   0.19594   0.00000  Uiso   1.00
H83    H     0.72503   0.32918   0.29749   0.00000  Uiso   1.00
O84    O     0.84092   0.29131   0.49573   0.00000  Uiso   1.00
O85    O     0.36579   0.86550   0.22809   0.00000  Uiso   1.00
O86    O     0.85393   0.31936   0.36132   0.00000  Uiso   1.00
N87    N     0.99359   0.22740   0.49163   0.00000  Uiso   1.00
N88    N     0.36760   0.92396   0.30090   0.00000  Uiso   1.00
N89    N     0.71547   0.24736   0.39583   0.00000  Uiso   1.00
N90    N     0.98292   0.27907   0.42283   0.00000  Uiso   1.00
N91    N     0.35693   0.97562   0.23210   0.00000  Uiso   1.00
N92    N     0.70480   0.29903   0.32703   0.00000  Uiso   1.00
C93    C     0.14019   0.62839   0.09781   0.00000  Uiso   1.00
C94    C     0.24372   0.66831   0.08997   0.00000  Uiso   1.00
C95    C     0.32483   0.67309   0.04506   0.00000  Uiso   1.00
C96    C     0.41311   0.71209   0.04565   0.00000  Uiso   1.00
C97    C     0.57285   0.76903   0.02680   0.00000  Uiso   1.00
C98    C     0.14066   0.58468   0.14254   0.00000  Uiso   1.00
C99    C     0.13510   0.51914   0.14182   0.00000  Uiso   1.00
C100   C     0.13661   0.48773   0.18666   0.00000  Uiso   1.00
C101   C     0.13627   0.41483   0.24943   0.00000  Uiso   1.00
C102   C     0.04480   0.67381   0.11637   0.00000  Uiso   1.00
C103   C     0.95862   0.68321   0.09366   0.00000  Uiso   1.00
C104   C     0.87940   0.72684   0.11647   0.00000  Uiso   1.00
C105   C     0.73022   0.79234   0.13861   0.00000  Uiso   1.00
C106   C     0.15273   0.68915   0.17872   0.00000  Uiso   1.00
C107   C     0.25053   0.70131   0.13392   0.00000  Uiso   1.00
C108   C     0.33871   0.74031   0.13458   0.00000  Uiso   1.00
C109   C     0.41993   0.74515   0.08967   0.00000  Uiso   1.00
C110   C     0.14747   0.61767   0.18648   0.00000  Uiso   1.00
C111   C     0.14898   0.58636   0.23134   0.00000  Uiso   1.00
C112   C     0.14343   0.52079   0.23069   0.00000  Uiso   1.00
C113   C     0.05161   0.70682   0.16031   0.00000  Uiso   1.00
C114   C     0.97250   0.75043   0.18317   0.00000  Uiso   1.00
C115   C     0.88623   0.75990   0.16050   0.00000  Uiso   1.00
H116   H     0.13489   0.60270   0.06359   0.00000  Uiso   1.00
H117   H     0.31953   0.64754   0.01106   0.00000  Uiso   1.00
H118   H     0.12982   0.49362   0.10780   0.00000  Uiso   1.00
H119   H     0.95338   0.65767   0.05965   0.00000  Uiso   1.00
H120   H     0.52727   0.71180   0.97220   0.00000  Uiso   1.00
H121   H     0.12722   0.38723   0.17620   0.00000  Uiso   1.00
H122   H     0.75514   0.73317   0.07465   0.00000  Uiso   1.00
H123   H     0.15804   0.71484   0.21294   0.00000  Uiso   1.00
H124   H     0.34396   0.76584   0.16859   0.00000  Uiso   1.00
H125   H     0.15425   0.61191   0.26534   0.00000  Uiso   1.00
H126   H     0.97780   0.77596   0.21718   0.00000  Uiso   1.00
H127   H     0.54709   0.80781   0.10006   0.00000  Uiso   1.00
H128   H     0.14704   0.48324   0.30406   0.00000  Uiso   1.00
H129   H     0.77497   0.82918   0.20251   0.00000  Uiso   1.00
O130   O     0.65908   0.79131   0.00427   0.00000  Uiso   1.00
O131   O     0.13421   0.36550   0.27191   0.00000  Uiso   1.00
O132   O     0.64607   0.81936   0.13868   0.00000  Uiso   1.00
N133   N     0.50641   0.72740   0.00837   0.00000  Uiso   1.00
N134   N     0.13240   0.42396   0.19910   0.00000  Uiso   1.00
N135   N     0.78453   0.74736   0.10417   0.00000  Uiso   1.00
N136   N     0.51708   0.77907   0.07717   0.00000  Uiso   1.00
N137   N     0.14307   0.47562   0.26790   0.00000  Uiso   1.00
N138   N     0.79520   0.79903   0.17297   0.00000  Uiso   1.00
C139   C     0.64019   0.12839   0.09781   0.00000  Uiso   1.00
C140   C     0.74372   0.16831   0.08997   0.00000  Uiso   1.00
C141   C     0.82483   0.17309   0.04506   0.00000  Uiso   1.00
C142   C     0.91311   0.21209   0.04565   0.00000  Uiso   1.00
C143   C     0.07285   0.26903   0.02680   0.00000  Uiso   1.00
C144   C     0.64066   0.08468   0.14254   0.00000  Uiso   1.00
C145   C     0.63510   0.01914   0.14182   0.00000  Uiso   1.00
C146   C     0.63661   0.98773   0.18666   0.00000  Uiso   1.00
C147   C     0.63627   0.91483   0.24943   0.00000  Uiso   1.00
C148   C     0.54480   0.17381   0.11637   0.00000  Uiso   1.00
C149   C     0.45862   0.18321   0.09366   0.00000  Uiso   1.00
C150   C     0.37940   0.22684   0.11647   0.00000  Uiso   1.00
C151   C     0.23022   0.29234   0.13861   0.00000  Uiso   1.00
C152   C     0.65273   0.18915   0.17872   0.00000  Uiso   1.00
C153   C     0.75053   0.20131   0.13392   0.00000  Uiso   1.00
C154   C     0.83871   0.24031   0.13458   0.00000  Uiso   1.00
C155   C     0.91993   0.24515   0.08967   0.00000  Uiso   1.00
C156   C     0.64747   0.11767   0.18648   0.00000  Uiso   1.00
C157   C     0.64898   0.08636   0.23134   0.00000  Uiso   1.00
C158   C     0.64343   0.02079   0.23069   0.00000  Uiso   1.00
C159   C     0.55161   0.20682   0.16031   0.00000  Uiso   1.00
C160   C     0.47250   0.25043   0.18317   0.00000  Uiso   1.00
C161   C     0.38623   0.25990   0.16050   0.00000  Uiso   1.00
H162   H     0.63489   0.10270   0.06359   0.00000  Uiso   1.00
H163   H     0.81953   0.14754   0.01106   0.00000  Uiso   1.00
H164   H     0.62982   0.99362   0.10780   0.00000  Uiso   1.00
H165   H     0.45338   0.15767   0.05965   0.00000  Uiso   1.00
H166   H     0.02727   0.21180   0.97220   0.00000  Uiso   1.00
H167   H     0.62722   0.88723   0.17620   0.00000  Uiso   1.00
H168   H     0.25514   0.23317   0.07465   0.00000  Uiso   1.00
H169   H     0.65804   0.21484   0.21294   0.00000  Uiso   1.00
H170   H     0.84396   0.26584   0.16859   0.00000  Uiso   1.00
H171   H     0.65425   0.11191   0.26534   0.00000  Uiso   1.00
H172   H     0.47780   0.27596   0.21718   0.00000  Uiso   1.00
H173   H     0.04709   0.30781   0.10006   0.00000  Uiso   1.00
H174   H     0.64704   0.98324   0.30406   0.00000  Uiso   1.00
H175   H     0.27497   0.32918   0.20251   0.00000  Uiso   1.00
O176   O     0.15908   0.29131   0.00427   0.00000  Uiso   1.00
O177   O     0.63421   0.86550   0.27191   0.00000  Uiso   1.00
O178   O     0.14607   0.31936   0.13868   0.00000  Uiso   1.00
N179   N     0.00641   0.22740   0.00837   0.00000  Uiso   1.00
N180   N     0.63240   0.92396   0.19910   0.00000  Uiso   1.00
N181   N     0.28453   0.24736   0.10417   0.00000  Uiso   1.00
N182   N     0.01708   0.27907   0.07717   0.00000  Uiso   1.00
N183   N     0.64307   0.97562   0.26790   0.00000  Uiso   1.00
N184   N     0.29520   0.29903   0.17297   0.00000  Uiso   1.00
C185   C     0.14019   0.37161   0.59781   0.00000  Uiso   1.00
C186   C     0.24372   0.33169   0.58997   0.00000  Uiso   1.00
C187   C     0.32483   0.32691   0.54506   0.00000  Uiso   1.00
C188   C     0.41311   0.28791   0.54565   0.00000  Uiso   1.00
C189   C     0.57285   0.23097   0.52680   0.00000  Uiso   1.00
C190   C     0.14066   0.41532   0.64254   0.00000  Uiso   1.00
C191   C     0.13510   0.48086   0.64182   0.00000  Uiso   1.00
C192   C     0.13661   0.51227   0.68666   0.00000  Uiso   1.00
C193   C     0.13627   0.58517   0.74943   0.00000  Uiso   1.00
C194   C     0.04480   0.32619   0.61637   0.00000  Uiso   1.00
C195   C     0.95862   0.31679   0.59366   0.00000  Uiso   1.00
C196   C     0.87940   0.27316   0.61647   0.00000  Uiso   1.00
C197   C     0.73022   0.20766   0.63861   0.00000  Uiso   1.00
C198   C     0.15273   0.31085   0.67872   0.00000  Uiso   1.00
C199   C     0.25053   0.29869   0.63392   0.00000  Uiso   1.00
C200   C     0.33871   0.25969   0.63458   0.00000  Uiso   1.00
C201   C     0.41993   0.25485   0.58967   0.00000  Uiso   1.00
C202   C     0.14747   0.38233   0.68648   0.00000  Uiso   1.00
C203   C     0.14898   0.41364   0.73134   0.00000  Uiso   1.00
C204   C     0.14343   0.47921   0.73069   0.00000  Uiso   1.00
C205   C     0.05161   0.29318   0.66031   0.00000  Uiso   1.00
C206   C     0.97250   0.24957   0.68317   0.00000  Uiso   1.00
C207   C     0.88623   0.24010   0.66050   0.00000  Uiso   1.00
H208   H     0.13489   0.39730   0.56359   0.00000  Uiso   1.00
H209   H     0.31953   0.35246   0.51106   0.00000  Uiso   1.00
H210   H     0.12982   0.50638   0.60780   0.00000  Uiso   1.00
H211   H     0.95338   0.34233   0.55965   0.00000  Uiso   1.00
H212   H     0.52727   0.28820   0.47220   0.00000  Uiso   1.00
H213   H     0.12722   0.61277   0.67620   0.00000  Uiso   1.00
H214   H     0.75514   0.26683   0.57465   0.00000  Uiso   1.00
H215   H     0.15804   0.28516   0.71294   0.00000  Uiso   1.00
H216   H     0.34396   0.23416   0.66859   0.00000  Uiso   1.00
H217   H     0.15425   0.38809   0.76534   0.00000  Uiso   1.00
H218   H     0.97780   0.22404   0.71718   0.00000  Uiso   1.00
H219   H     0.54709   0.19219   0.60006   0.00000  Uiso   1.00
H220   H     0.14704   0.51676   0.80406   0.00000  Uiso   1.00
H221   H     0.77497   0.17082   0.70251   0.00000  Uiso   1.00
O222   O     0.65908   0.20869   0.50427   0.00000  Uiso   1.00
O223   O     0.13421   0.63450   0.77191   0.00000  Uiso   1.00
O224   O     0.64607   0.18064   0.63868   0.00000  Uiso   1.00
N225   N     0.50641   0.27260   0.50837   0.00000  Uiso   1.00
N226   N     0.13240   0.57604   0.69910   0.00000  Uiso   1.00
N227   N     0.78453   0.25264   0.60417   0.00000  Uiso   1.00
N228   N     0.51708   0.22093   0.57717   0.00000  Uiso   1.00
N229   N     0.14307   0.52438   0.76790   0.00000  Uiso   1.00
N230   N     0.79520   0.20097   0.67297   0.00000  Uiso   1.00
C231   C     0.64019   0.87161   0.59781   0.00000  Uiso   1.00
C232   C     0.74372   0.83169   0.58997   0.00000  Uiso   1.00
C233   C     0.82483   0.82691   0.54506   0.00000  Uiso   1.00
C234   C     0.91311   0.78791   0.54565   0.00000  Uiso   1.00
C235   C     0.07285   0.73097   0.52680   0.00000  Uiso   1.00
C236   C     0.64066   0.91532   0.64254   0.00000  Uiso   1.00
C237   C     0.63510   0.98086   0.64182   0.00000  Uiso   1.00
C238   C     0.63661   0.01227   0.68666   0.00000  Uiso   1.00
C239   C     0.63627   0.08517   0.74943   0.00000  Uiso   1.00
C240   C     0.54480   0.82619   0.61637   0.00000  Uiso   1.00
C241   C     0.45862   0.81679   0.59366   0.00000  Uiso   1.00
C242   C     0.37940   0.77316   0.61647   0.00000  Uiso   1.00
C243   C     0.23022   0.70766   0.63861   0.00000  Uiso   1.00
C244   C     0.65273   0.81085   0.67872   0.00000  Uiso   1.00
C245   C     0.75053   0.79869   0.63392   0.00000  Uiso   1.00
C246   C     0.83871   0.75969   0.63458   0.00000  Uiso   1.00
C247   C     0.91993   0.75485   0.58967   0.00000  Uiso   1.00
C248   C     0.64747   0.88233   0.68648   0.00000  Uiso   1.00
C249   C     0.64898   0.91364   0.73134   0.00000  Uiso   1.00
C250   C     0.64343   0.97921   0.73069   0.00000  Uiso   1.00
C251   C     0.55161   0.79318   0.66031   0.00000  Uiso   1.00
C252   C     0.47250   0.74957   0.68317   0.00000  Uiso   1.00
C253   C     0.38623   0.74010   0.66050   0.00000  Uiso   1.00
H254   H     0.63489   0.89730   0.56359   0.00000  Uiso   1.00
H255   H     0.81953   0.85246   0.51106   0.00000  Uiso   1.00
H256   H     0.62982   0.00638   0.60780   0.00000  Uiso   1.00
H257   H     0.45338   0.84233   0.55965   0.00000  Uiso   1.00
H258   H     0.02727   0.78820   0.47220   0.00000  Uiso   1.00
H259   H     0.62722   0.11277   0.67620   0.00000  Uiso   1.00
H260   H     0.25514   0.76683   0.57465   0.00000  Uiso   1.00
H261   H     0.65804   0.78516   0.71294   0.00000  Uiso   1.00
H262   H     0.84396   0.73416   0.66859   0.00000  Uiso   1.00
H263   H     0.65425   0.88809   0.76534   0.00000  Uiso   1.00
H264   H     0.47780   0.72404   0.71718   0.00000  Uiso   1.00
H265   H     0.04709   0.69219   0.60006   0.00000  Uiso   1.00
H266   H     0.64704   0.01676   0.80406   0.00000  Uiso   1.00
H267   H     0.27497   0.67082   0.70251   0.00000  Uiso   1.00
O268   O     0.15908   0.70869   0.50427   0.00000  Uiso   1.00
O269   O     0.63421   0.13450   0.77191   0.00000  Uiso   1.00
O270   O     0.14607   0.68064   0.63868   0.00000  Uiso   1.00
N271   N     0.00641   0.77260   0.50837   0.00000  Uiso   1.00
N272   N     0.63240   0.07604   0.69910   0.00000  Uiso   1.00
N273   N     0.28453   0.75264   0.60417   0.00000  Uiso   1.00
N274   N     0.01708   0.72093   0.57717   0.00000  Uiso   1.00
N275   N     0.64307   0.02438   0.76790   0.00000  Uiso   1.00
N276   N     0.29520   0.70097   0.67297   0.00000  Uiso   1.00
C277   C     0.85981   0.37161   0.90219   0.00000  Uiso   1.00
C278   C     0.75628   0.33169   0.91003   0.00000  Uiso   1.00
C279   C     0.67517   0.32691   0.95494   0.00000  Uiso   1.00
C280   C     0.58689   0.28791   0.95435   0.00000  Uiso   1.00
C281   C     0.42715   0.23097   0.97320   0.00000  Uiso   1.00
C282   C     0.85934   0.41532   0.85746   0.00000  Uiso   1.00
C283   C     0.86490   0.48086   0.85818   0.00000  Uiso   1.00
C284   C     0.86339   0.51227   0.81334   0.00000  Uiso   1.00
C285   C     0.86373   0.58517   0.75057   0.00000  Uiso   1.00
C286   C     0.95520   0.32619   0.88363   0.00000  Uiso   1.00
C287   C     0.04138   0.31679   0.90634   0.00000  Uiso   1.00
C288   C     0.12060   0.27316   0.88353   0.00000  Uiso   1.00
C289   C     0.26978   0.20766   0.86139   0.00000  Uiso   1.00
C290   C     0.84727   0.31085   0.82128   0.00000  Uiso   1.00
C291   C     0.74947   0.29869   0.86608   0.00000  Uiso   1.00
C292   C     0.66129   0.25969   0.86542   0.00000  Uiso   1.00
C293   C     0.58007   0.25485   0.91033   0.00000  Uiso   1.00
C294   C     0.85253   0.38233   0.81352   0.00000  Uiso   1.00
C295   C     0.85102   0.41364   0.76866   0.00000  Uiso   1.00
C296   C     0.85657   0.47921   0.76931   0.00000  Uiso   1.00
C297   C     0.94839   0.29318   0.83969   0.00000  Uiso   1.00
C298   C     0.02750   0.24957   0.81683   0.00000  Uiso   1.00
C299   C     0.11377   0.24010   0.83950   0.00000  Uiso   1.00
H300   H     0.86511   0.39730   0.93641   0.00000  Uiso   1.00
H301   H     0.68047   0.35246   0.98894   0.00000  Uiso   1.00
H302   H     0.87018   0.50638   0.89220   0.00000  Uiso   1.00
H303   H     0.04662   0.34233   0.94035   0.00000  Uiso   1.00
H304   H     0.47273   0.28820   0.02780   0.00000  Uiso   1.00
H305   H     0.87278   0.61277   0.82380   0.00000  Uiso   1.00
H306   H     0.24486   0.26683   0.92535   0.00000  Uiso   1.00
H307   H     0.84196   0.28516   0.78706   0.00000  Uiso   1.00
H308   H     0.65604   0.23416   0.83141   0.00000  Uiso   1.00
H309   H     0.84575   0.38809   0.73466   0.00000  Uiso   1.00
H310   H     0.02220   0.22404   0.78282   0.00000  Uiso   1.00
H311   H     0.45291   0.19219   0.89994   0.00000  Uiso   1.00
H312   H     0.85296   0.51676   0.69594   0.00000  Uiso   1.00
H313   H     0.22503   0.17082   0.79749   0.00000  Uiso   1.00
O314   O     0.34092   0.20869   0.99573   0.00000  Uiso   1.00
O315   O     0.86579   0.63450   0.72809   0.00000  Uiso   1.00
O316   O     0.35393   0.18064   0.86132   0.00000  Uiso   1.00
N317   N     0.49359   0.27260   0.99163   0.00000  Uiso   1.00
N318   N     0.86760   0.57604   0.80090   0.00000  Uiso   1.00
N319   N     0.21547   0.25264   0.89583   0.00000  Uiso   1.00
N320   N     0.48292   0.22093   0.92283   0.00000  Uiso   1.00
N321   N     0.85693   0.52438   0.73210   0.00000  Uiso   1.00
N322   N     0.20480   0.20097   0.82703   0.00000  Uiso   1.00
C323   C     0.35981   0.87161   0.90219   0.00000  Uiso   1.00
C324   C     0.25628   0.83169   0.91003   0.00000  Uiso   1.00
C325   C     0.17517   0.82691   0.95494   0.00000  Uiso   1.00
C326   C     0.08689   0.78791   0.95435   0.00000  Uiso   1.00
C327   C     0.92715   0.73097   0.97320   0.00000  Uiso   1.00
C328   C     0.35934   0.91532   0.85746   0.00000  Uiso   1.00
C329   C     0.36490   0.98086   0.85818   0.00000  Uiso   1.00
C330   C     0.36339   0.01227   0.81334   0.00000  Uiso   1.00
C331   C     0.36373   0.08517   0.75057   0.00000  Uiso   1.00
C332   C     0.45520   0.82619   0.88363   0.00000  Uiso   1.00
C333   C     0.54138   0.81679   0.90634   0.00000  Uiso   1.00
C334   C     0.62060   0.77316   0.88353   0.00000  Uiso   1.00
C335   C     0.76978   0.70766   0.86139   0.00000  Uiso   1.00
C336   C     0.34727   0.81085   0.82128   0.00000  Uiso   1.00
C337   C     0.24947   0.79869   0.86608   0.00000  Uiso   1.00
C338   C     0.16129   0.75969   0.86542   0.00000  Uiso   1.00
C339   C     0.08007   0.75485   0.91033   0.00000  Uiso   1.00
C340   C     0.35253   0.88233   0.81352   0.00000  Uiso   1.00
C341   C     0.35102   0.91364   0.76866   0.00000  Uiso   1.00
C342   C     0.35657   0.97921   0.76931   0.00000  Uiso   1.00
C343   C     0.44839   0.79318   0.83969   0.00000  Uiso   1.00
C344   C     0.52750   0.74957   0.81683   0.00000  Uiso   1.00
C345   C     0.61377   0.74010   0.83950   0.00000  Uiso   1.00
H346   H     0.36511   0.89730   0.93641   0.00000  Uiso   1.00
H347   H     0.18047   0.85246   0.98894   0.00000  Uiso   1.00
H348   H     0.37018   0.00638   0.89220   0.00000  Uiso   1.00
H349   H     0.54662   0.84233   0.94035   0.00000  Uiso   1.00
H350   H     0.97273   0.78820   0.02780   0.00000  Uiso   1.00
H351   H     0.37278   0.11277   0.82380   0.00000  Uiso   1.00
H352   H     0.74486   0.76683   0.92535   0.00000  Uiso   1.00
H353   H     0.34196   0.78516   0.78706   0.00000  Uiso   1.00
H354   H     0.15604   0.73416   0.83141   0.00000  Uiso   1.00
H355   H     0.34575   0.88809   0.73466   0.00000  Uiso   1.00
H356   H     0.52220   0.72404   0.78282   0.00000  Uiso   1.00
H357   H     0.95291   0.69219   0.89994   0.00000  Uiso   1.00
H358   H     0.35296   0.01676   0.69594   0.00000  Uiso   1.00
H359   H     0.72503   0.67082   0.79749   0.00000  Uiso   1.00
O360   O     0.84092   0.70869   0.99573   0.00000  Uiso   1.00
O361   O     0.36579   0.13450   0.72809   0.00000  Uiso   1.00
O362   O     0.85393   0.68064   0.86132   0.00000  Uiso   1.00
N363   N     0.99359   0.77260   0.99163   0.00000  Uiso   1.00
N364   N     0.36760   0.07604   0.80090   0.00000  Uiso   1.00
N365   N     0.71547   0.75264   0.89583   0.00000  Uiso   1.00
N366   N     0.98292   0.72093   0.92283   0.00000  Uiso   1.00
N367   N     0.35693   0.02438   0.73210   0.00000  Uiso   1.00
N368   N     0.70480   0.70097   0.82703   0.00000  Uiso   1.00
