data_job_02404
_audit_creation_date              2018-12-19
_audit_creation_method            'Materials Studio'
_symmetry_space_group_name_H-M    'P1'
_symmetry_Int_Tables_number       1
_symmetry_cell_setting            triclinic
loop_
_symmetry_equiv_pos_as_xyz
  x,y,z
_cell_length_a                    21.8075
_cell_length_b                    18.1060
_cell_length_c                    14.6100
_cell_angle_alpha                 90.0000
_cell_angle_beta                  64.2656
_cell_angle_gamma                 90.0000
loop_
_atom_site_label
_atom_site_type_symbol
_atom_site_fract_x
_atom_site_fract_y
_atom_site_fract_z
_atom_site_U_iso_or_equiv
_atom_site_adp_type
_atom_site_occupancy
C1     C     0.74816   0.99373   0.34716   0.00000  Uiso   1.00
C2     C     0.72464   0.06468   0.31589   0.00000  Uiso   1.00
C3     C     0.74411   0.08854   0.21688   0.00000  Uiso   1.00
C4     C     0.71696   0.15498   0.20418   0.00000  Uiso   1.00
C5     C     0.68731   0.25892   0.14294   0.00000  Uiso   1.00
C6     C     0.77947   0.01718   0.41786   0.00000  Uiso   1.00
C7     C     0.84503   0.00109   0.40459   0.00000  Uiso   1.00
C8     C     0.86403   0.02754   0.47774   0.00000  Uiso   1.00
C9     C     0.91948   0.05768   0.57485   0.00000  Uiso   1.00
C10    C     0.68361   0.95113   0.41294   0.00000  Uiso   1.00
C11    C     0.66859   0.87951   0.39555   0.00000  Uiso   1.00
C12    C     0.60689   0.85035   0.46458   0.00000  Uiso   1.00
C13    C     0.51351   0.77795   0.55405   0.00000  Uiso   1.00
C14    C     0.66532   0.06930   0.50067   0.00000  Uiso   1.00
C15    C     0.67965   0.10573   0.39927   0.00000  Uiso   1.00
C16    C     0.65246   0.17215   0.38672   0.00000  Uiso   1.00
C17    C     0.67188   0.19610   0.28771   0.00000  Uiso   1.00
C18    C     0.73447   0.05822   0.50124   0.00000  Uiso   1.00
C19    C     0.75338   0.08470   0.57443   0.00000  Uiso   1.00
C20    C     0.81895   0.06866   0.56127   0.00000  Uiso   1.00
C21    C     0.63861   0.99218   0.49632   0.00000  Uiso   1.00
C22    C     0.57693   0.96312   0.56539   0.00000  Uiso   1.00
C23    C     0.56181   0.89147   0.54811   0.00000  Uiso   1.00
H24    H     0.78320   0.96178   0.28225   0.00000  Uiso   1.00
H25    H     0.77894   0.05676   0.15237   0.00000  Uiso   1.00
H26    H     0.87984   0.96932   0.34006   0.00000  Uiso   1.00
H27    H     0.70342   0.84776   0.33102   0.00000  Uiso   1.00
H28    H     0.75440   0.18018   0.04515   0.00000  Uiso   1.00
H29    H     0.96715   0.99579   0.44092   0.00000  Uiso   1.00
H30    H     0.59513   0.73945   0.42186   0.00000  Uiso   1.00
H31    H     0.63029   0.10126   0.56559   0.00000  Uiso   1.00
H32    H     0.61764   0.20390   0.45126   0.00000  Uiso   1.00
H33    H     0.71854   0.11646   0.63895   0.00000  Uiso   1.00
H34    H     0.54212   0.99490   0.62991   0.00000  Uiso   1.00
H35    H     0.62348   0.29961   0.28775   0.00000  Uiso   1.00
H36    H     0.83623   0.11521   0.68351   0.00000  Uiso   1.00
H37    H     0.46421   0.85888   0.66445   0.00000  Uiso   1.00
O38    O     0.68340   0.30491   0.08613   0.00000  Uiso   1.00
O39    O     0.96251   0.06297   0.60536   0.00000  Uiso   1.00
O40    O     0.47443   0.72668   0.58036   0.00000  Uiso   1.00
N41    N     0.72531   0.19420   0.11794   0.00000  Uiso   1.00
N42    N     0.92422   0.02181   0.48794   0.00000  Uiso   1.00
N43    N     0.57643   0.78215   0.47014   0.00000  Uiso   1.00
N44    N     0.65487   0.25846   0.24847   0.00000  Uiso   1.00
N45    N     0.85378   0.08607   0.61848   0.00000  Uiso   1.00
N46    N     0.50598   0.84641   0.60068   0.00000  Uiso   1.00
C47    C     0.24816   0.49373   0.34716   0.00000  Uiso   1.00
C48    C     0.22464   0.56468   0.31589   0.00000  Uiso   1.00
C49    C     0.24411   0.58854   0.21688   0.00000  Uiso   1.00
C50    C     0.21696   0.65498   0.20418   0.00000  Uiso   1.00
C51    C     0.18731   0.75892   0.14294   0.00000  Uiso   1.00
C52    C     0.27947   0.51718   0.41786   0.00000  Uiso   1.00
C53    C     0.34503   0.50109   0.40459   0.00000  Uiso   1.00
C54    C     0.36403   0.52754   0.47774   0.00000  Uiso   1.00
C55    C     0.41948   0.55768   0.57485   0.00000  Uiso   1.00
C56    C     0.18361   0.45113   0.41294   0.00000  Uiso   1.00
C57    C     0.16859   0.37951   0.39555   0.00000  Uiso   1.00
C58    C     0.10689   0.35035   0.46458   0.00000  Uiso   1.00
C59    C     0.01351   0.27795   0.55405   0.00000  Uiso   1.00
C60    C     0.16532   0.56930   0.50067   0.00000  Uiso   1.00
C61    C     0.17965   0.60573   0.39927   0.00000  Uiso   1.00
C62    C     0.15246   0.67215   0.38672   0.00000  Uiso   1.00
C63    C     0.17188   0.69610   0.28771   0.00000  Uiso   1.00
C64    C     0.23447   0.55822   0.50124   0.00000  Uiso   1.00
C65    C     0.25338   0.58470   0.57443   0.00000  Uiso   1.00
C66    C     0.31895   0.56866   0.56127   0.00000  Uiso   1.00
C67    C     0.13861   0.49218   0.49632   0.00000  Uiso   1.00
C68    C     0.07693   0.46312   0.56539   0.00000  Uiso   1.00
C69    C     0.06181   0.39147   0.54811   0.00000  Uiso   1.00
H70    H     0.28320   0.46178   0.28225   0.00000  Uiso   1.00
H71    H     0.27894   0.55676   0.15237   0.00000  Uiso   1.00
H72    H     0.37984   0.46932   0.34006   0.00000  Uiso   1.00
H73    H     0.20342   0.34776   0.33102   0.00000  Uiso   1.00
H74    H     0.25440   0.68018   0.04515   0.00000  Uiso   1.00
H75    H     0.46715   0.49579   0.44092   0.00000  Uiso   1.00
H76    H     0.09513   0.23945   0.42186   0.00000  Uiso   1.00
H77    H     0.13029   0.60126   0.56559   0.00000  Uiso   1.00
H78    H     0.11764   0.70390   0.45126   0.00000  Uiso   1.00
H79    H     0.21854   0.61646   0.63895   0.00000  Uiso   1.00
H80    H     0.04212   0.49490   0.62991   0.00000  Uiso   1.00
H81    H     0.12348   0.79961   0.28775   0.00000  Uiso   1.00
H82    H     0.33623   0.61521   0.68351   0.00000  Uiso   1.00
H83    H     0.96421   0.35888   0.66445   0.00000  Uiso   1.00
O84    O     0.18340   0.80491   0.08613   0.00000  Uiso   1.00
O85    O     0.46251   0.56297   0.60536   0.00000  Uiso   1.00
O86    O     0.97443   0.22668   0.58036   0.00000  Uiso   1.00
N87    N     0.22531   0.69420   0.11794   0.00000  Uiso   1.00
N88    N     0.42422   0.52181   0.48794   0.00000  Uiso   1.00
N89    N     0.07643   0.28215   0.47014   0.00000  Uiso   1.00
N90    N     0.15487   0.75846   0.24847   0.00000  Uiso   1.00
N91    N     0.35378   0.58607   0.61848   0.00000  Uiso   1.00
N92    N     0.00598   0.34641   0.60068   0.00000  Uiso   1.00
C93    C     0.25184   0.99373   0.15284   0.00000  Uiso   1.00
C94    C     0.27536   0.06468   0.18411   0.00000  Uiso   1.00
C95    C     0.25589   0.08854   0.28312   0.00000  Uiso   1.00
C96    C     0.28304   0.15498   0.29582   0.00000  Uiso   1.00
C97    C     0.31269   0.25892   0.35706   0.00000  Uiso   1.00
C98    C     0.22053   0.01718   0.08214   0.00000  Uiso   1.00
C99    C     0.15497   0.00109   0.09541   0.00000  Uiso   1.00
C100   C     0.13597   0.02754   0.02226   0.00000  Uiso   1.00
C101   C     0.08052   0.05768   0.92515   0.00000  Uiso   1.00
C102   C     0.31639   0.95113   0.08706   0.00000  Uiso   1.00
C103   C     0.33141   0.87951   0.10445   0.00000  Uiso   1.00
C104   C     0.39311   0.85035   0.03542   0.00000  Uiso   1.00
C105   C     0.48649   0.77795   0.94595   0.00000  Uiso   1.00
C106   C     0.33468   0.06930   0.99933   0.00000  Uiso   1.00
C107   C     0.32035   0.10573   0.10073   0.00000  Uiso   1.00
C108   C     0.34754   0.17215   0.11328   0.00000  Uiso   1.00
C109   C     0.32812   0.19610   0.21229   0.00000  Uiso   1.00
C110   C     0.26553   0.05822   0.99876   0.00000  Uiso   1.00
C111   C     0.24662   0.08470   0.92557   0.00000  Uiso   1.00
C112   C     0.18105   0.06866   0.93873   0.00000  Uiso   1.00
C113   C     0.36139   0.99218   0.00368   0.00000  Uiso   1.00
C114   C     0.42307   0.96312   0.93461   0.00000  Uiso   1.00
C115   C     0.43819   0.89147   0.95189   0.00000  Uiso   1.00
H116   H     0.21680   0.96178   0.21775   0.00000  Uiso   1.00
H117   H     0.22106   0.05676   0.34763   0.00000  Uiso   1.00
H118   H     0.12016   0.96932   0.15994   0.00000  Uiso   1.00
H119   H     0.29658   0.84776   0.16898   0.00000  Uiso   1.00
H120   H     0.24560   0.18018   0.45485   0.00000  Uiso   1.00
H121   H     0.03285   0.99579   0.05908   0.00000  Uiso   1.00
H122   H     0.40487   0.73945   0.07814   0.00000  Uiso   1.00
H123   H     0.36971   0.10126   0.93441   0.00000  Uiso   1.00
H124   H     0.38236   0.20390   0.04874   0.00000  Uiso   1.00
H125   H     0.28146   0.11646   0.86105   0.00000  Uiso   1.00
H126   H     0.45788   0.99490   0.87009   0.00000  Uiso   1.00
H127   H     0.37652   0.29961   0.21225   0.00000  Uiso   1.00
H128   H     0.16377   0.11521   0.81649   0.00000  Uiso   1.00
H129   H     0.53579   0.85888   0.83555   0.00000  Uiso   1.00
O130   O     0.31660   0.30491   0.41387   0.00000  Uiso   1.00
O131   O     0.03749   0.06297   0.89464   0.00000  Uiso   1.00
O132   O     0.52557   0.72668   0.91964   0.00000  Uiso   1.00
N133   N     0.27469   0.19420   0.38206   0.00000  Uiso   1.00
N134   N     0.07578   0.02181   0.01206   0.00000  Uiso   1.00
N135   N     0.42357   0.78215   0.02986   0.00000  Uiso   1.00
N136   N     0.34513   0.25846   0.25153   0.00000  Uiso   1.00
N137   N     0.14622   0.08607   0.88152   0.00000  Uiso   1.00
N138   N     0.49402   0.84641   0.89932   0.00000  Uiso   1.00
C139   C     0.75184   0.49373   0.15284   0.00000  Uiso   1.00
C140   C     0.77536   0.56468   0.18411   0.00000  Uiso   1.00
C141   C     0.75589   0.58854   0.28312   0.00000  Uiso   1.00
C142   C     0.78304   0.65498   0.29582   0.00000  Uiso   1.00
C143   C     0.81269   0.75892   0.35706   0.00000  Uiso   1.00
C144   C     0.72053   0.51718   0.08214   0.00000  Uiso   1.00
C145   C     0.65497   0.50109   0.09541   0.00000  Uiso   1.00
C146   C     0.63597   0.52754   0.02226   0.00000  Uiso   1.00
C147   C     0.58052   0.55768   0.92515   0.00000  Uiso   1.00
C148   C     0.81639   0.45113   0.08706   0.00000  Uiso   1.00
C149   C     0.83141   0.37951   0.10445   0.00000  Uiso   1.00
C150   C     0.89311   0.35035   0.03542   0.00000  Uiso   1.00
C151   C     0.98649   0.27795   0.94595   0.00000  Uiso   1.00
C152   C     0.83468   0.56930   0.99933   0.00000  Uiso   1.00
C153   C     0.82035   0.60573   0.10073   0.00000  Uiso   1.00
C154   C     0.84754   0.67215   0.11328   0.00000  Uiso   1.00
C155   C     0.82812   0.69610   0.21229   0.00000  Uiso   1.00
C156   C     0.76553   0.55822   0.99876   0.00000  Uiso   1.00
C157   C     0.74662   0.58470   0.92557   0.00000  Uiso   1.00
C158   C     0.68105   0.56866   0.93873   0.00000  Uiso   1.00
C159   C     0.86139   0.49218   0.00368   0.00000  Uiso   1.00
C160   C     0.92307   0.46312   0.93461   0.00000  Uiso   1.00
C161   C     0.93819   0.39147   0.95189   0.00000  Uiso   1.00
H162   H     0.71680   0.46178   0.21775   0.00000  Uiso   1.00
H163   H     0.72106   0.55676   0.34763   0.00000  Uiso   1.00
H164   H     0.62016   0.46932   0.15994   0.00000  Uiso   1.00
H165   H     0.79658   0.34776   0.16898   0.00000  Uiso   1.00
H166   H     0.74560   0.68018   0.45485   0.00000  Uiso   1.00
H167   H     0.53285   0.49579   0.05908   0.00000  Uiso   1.00
H168   H     0.90487   0.23945   0.07814   0.00000  Uiso   1.00
H169   H     0.86971   0.60126   0.93441   0.00000  Uiso   1.00
H170   H     0.88236   0.70390   0.04874   0.00000  Uiso   1.00
H171   H     0.78146   0.61646   0.86105   0.00000  Uiso   1.00
H172   H     0.95788   0.49490   0.87009   0.00000  Uiso   1.00
H173   H     0.87652   0.79961   0.21225   0.00000  Uiso   1.00
H174   H     0.66377   0.61521   0.81649   0.00000  Uiso   1.00
H175   H     0.03579   0.35888   0.83555   0.00000  Uiso   1.00
O176   O     0.81660   0.80491   0.41387   0.00000  Uiso   1.00
O177   O     0.53749   0.56297   0.89464   0.00000  Uiso   1.00
O178   O     0.02557   0.22668   0.91964   0.00000  Uiso   1.00
N179   N     0.77469   0.69420   0.38206   0.00000  Uiso   1.00
N180   N     0.57578   0.52181   0.01206   0.00000  Uiso   1.00
N181   N     0.92357   0.28215   0.02986   0.00000  Uiso   1.00
N182   N     0.84513   0.75846   0.25153   0.00000  Uiso   1.00
N183   N     0.64622   0.58607   0.88152   0.00000  Uiso   1.00
N184   N     0.99402   0.34641   0.89932   0.00000  Uiso   1.00
C185   C     0.25184   0.00627   0.65284   0.00000  Uiso   1.00
C186   C     0.27536   0.93532   0.68411   0.00000  Uiso   1.00
C187   C     0.25589   0.91146   0.78312   0.00000  Uiso   1.00
C188   C     0.28304   0.84502   0.79582   0.00000  Uiso   1.00
C189   C     0.31269   0.74108   0.85706   0.00000  Uiso   1.00
C190   C     0.22053   0.98282   0.58214   0.00000  Uiso   1.00
C191   C     0.15497   0.99891   0.59541   0.00000  Uiso   1.00
C192   C     0.13597   0.97246   0.52226   0.00000  Uiso   1.00
C193   C     0.08052   0.94232   0.42515   0.00000  Uiso   1.00
C194   C     0.31639   0.04887   0.58706   0.00000  Uiso   1.00
C195   C     0.33141   0.12049   0.60445   0.00000  Uiso   1.00
C196   C     0.39311   0.14965   0.53542   0.00000  Uiso   1.00
C197   C     0.48649   0.22205   0.44595   0.00000  Uiso   1.00
C198   C     0.33468   0.93070   0.49933   0.00000  Uiso   1.00
C199   C     0.32035   0.89427   0.60073   0.00000  Uiso   1.00
C200   C     0.34754   0.82785   0.61328   0.00000  Uiso   1.00
C201   C     0.32812   0.80390   0.71229   0.00000  Uiso   1.00
C202   C     0.26553   0.94178   0.49876   0.00000  Uiso   1.00
C203   C     0.24662   0.91530   0.42557   0.00000  Uiso   1.00
C204   C     0.18105   0.93134   0.43873   0.00000  Uiso   1.00
C205   C     0.36139   0.00782   0.50368   0.00000  Uiso   1.00
C206   C     0.42307   0.03688   0.43461   0.00000  Uiso   1.00
C207   C     0.43819   0.10853   0.45189   0.00000  Uiso   1.00
H208   H     0.21680   0.03822   0.71775   0.00000  Uiso   1.00
H209   H     0.22106   0.94324   0.84763   0.00000  Uiso   1.00
H210   H     0.12016   0.03068   0.65994   0.00000  Uiso   1.00
H211   H     0.29658   0.15224   0.66898   0.00000  Uiso   1.00
H212   H     0.24560   0.81982   0.95485   0.00000  Uiso   1.00
H213   H     0.03285   0.00421   0.55908   0.00000  Uiso   1.00
H214   H     0.40487   0.26055   0.57814   0.00000  Uiso   1.00
H215   H     0.36971   0.89874   0.43441   0.00000  Uiso   1.00
H216   H     0.38236   0.79610   0.54874   0.00000  Uiso   1.00
H217   H     0.28146   0.88354   0.36105   0.00000  Uiso   1.00
H218   H     0.45788   0.00510   0.37009   0.00000  Uiso   1.00
H219   H     0.37652   0.70039   0.71225   0.00000  Uiso   1.00
H220   H     0.16377   0.88479   0.31649   0.00000  Uiso   1.00
H221   H     0.53579   0.14112   0.33555   0.00000  Uiso   1.00
O222   O     0.31660   0.69509   0.91387   0.00000  Uiso   1.00
O223   O     0.03749   0.93703   0.39464   0.00000  Uiso   1.00
O224   O     0.52557   0.27332   0.41964   0.00000  Uiso   1.00
N225   N     0.27469   0.80580   0.88206   0.00000  Uiso   1.00
N226   N     0.07578   0.97819   0.51206   0.00000  Uiso   1.00
N227   N     0.42357   0.21785   0.52986   0.00000  Uiso   1.00
N228   N     0.34513   0.74154   0.75153   0.00000  Uiso   1.00
N229   N     0.14622   0.91393   0.38152   0.00000  Uiso   1.00
N230   N     0.49402   0.15359   0.39932   0.00000  Uiso   1.00
C231   C     0.75184   0.50627   0.65284   0.00000  Uiso   1.00
C232   C     0.77536   0.43532   0.68411   0.00000  Uiso   1.00
C233   C     0.75589   0.41146   0.78312   0.00000  Uiso   1.00
C234   C     0.78304   0.34502   0.79582   0.00000  Uiso   1.00
C235   C     0.81269   0.24108   0.85706   0.00000  Uiso   1.00
C236   C     0.72053   0.48282   0.58214   0.00000  Uiso   1.00
C237   C     0.65497   0.49891   0.59541   0.00000  Uiso   1.00
C238   C     0.63597   0.47246   0.52226   0.00000  Uiso   1.00
C239   C     0.58052   0.44232   0.42515   0.00000  Uiso   1.00
C240   C     0.81639   0.54887   0.58706   0.00000  Uiso   1.00
C241   C     0.83141   0.62049   0.60445   0.00000  Uiso   1.00
C242   C     0.89311   0.64965   0.53542   0.00000  Uiso   1.00
C243   C     0.98649   0.72205   0.44595   0.00000  Uiso   1.00
C244   C     0.83468   0.43070   0.49933   0.00000  Uiso   1.00
C245   C     0.82035   0.39427   0.60073   0.00000  Uiso   1.00
C246   C     0.84754   0.32785   0.61328   0.00000  Uiso   1.00
C247   C     0.82812   0.30390   0.71229   0.00000  Uiso   1.00
C248   C     0.76553   0.44178   0.49876   0.00000  Uiso   1.00
C249   C     0.74662   0.41530   0.42557   0.00000  Uiso   1.00
C250   C     0.68105   0.43134   0.43873   0.00000  Uiso   1.00
C251   C     0.86139   0.50782   0.50368   0.00000  Uiso   1.00
C252   C     0.92307   0.53688   0.43461   0.00000  Uiso   1.00
C253   C     0.93819   0.60853   0.45189   0.00000  Uiso   1.00
H254   H     0.71680   0.53822   0.71775   0.00000  Uiso   1.00
H255   H     0.72106   0.44324   0.84763   0.00000  Uiso   1.00
H256   H     0.62016   0.53068   0.65994   0.00000  Uiso   1.00
H257   H     0.79658   0.65224   0.66898   0.00000  Uiso   1.00
H258   H     0.74560   0.31982   0.95485   0.00000  Uiso   1.00
H259   H     0.53285   0.50421   0.55908   0.00000  Uiso   1.00
H260   H     0.90487   0.76055   0.57814   0.00000  Uiso   1.00
H261   H     0.86971   0.39874   0.43441   0.00000  Uiso   1.00
H262   H     0.88236   0.29610   0.54874   0.00000  Uiso   1.00
H263   H     0.78146   0.38354   0.36105   0.00000  Uiso   1.00
H264   H     0.95788   0.50510   0.37009   0.00000  Uiso   1.00
H265   H     0.87652   0.20039   0.71225   0.00000  Uiso   1.00
H266   H     0.66377   0.38479   0.31649   0.00000  Uiso   1.00
H267   H     0.03579   0.64112   0.33555   0.00000  Uiso   1.00
O268   O     0.81660   0.19509   0.91387   0.00000  Uiso   1.00
O269   O     0.53749   0.43703   0.39464   0.00000  Uiso   1.00
O270   O     0.02557   0.77332   0.41964   0.00000  Uiso   1.00
N271   N     0.77469   0.30580   0.88206   0.00000  Uiso   1.00
N272   N     0.57578   0.47819   0.51206   0.00000  Uiso   1.00
N273   N     0.92357   0.71785   0.52986   0.00000  Uiso   1.00
N274   N     0.84513   0.24154   0.75153   0.00000  Uiso   1.00
N275   N     0.64622   0.41393   0.38152   0.00000  Uiso   1.00
N276   N     0.99402   0.65359   0.39932   0.00000  Uiso   1.00
C277   C     0.74816   0.00627   0.84716   0.00000  Uiso   1.00
C278   C     0.72464   0.93532   0.81589   0.00000  Uiso   1.00
C279   C     0.74411   0.91146   0.71688   0.00000  Uiso   1.00
C280   C     0.71696   0.84502   0.70418   0.00000  Uiso   1.00
C281   C     0.68731   0.74108   0.64294   0.00000  Uiso   1.00
C282   C     0.77947   0.98282   0.91786   0.00000  Uiso   1.00
C283   C     0.84503   0.99891   0.90459   0.00000  Uiso   1.00
C284   C     0.86403   0.97246   0.97774   0.00000  Uiso   1.00
C285   C     0.91948   0.94232   0.07485   0.00000  Uiso   1.00
C286   C     0.68361   0.04887   0.91294   0.00000  Uiso   1.00
C287   C     0.66859   0.12049   0.89555   0.00000  Uiso   1.00
C288   C     0.60689   0.14965   0.96458   0.00000  Uiso   1.00
C289   C     0.51351   0.22205   0.05405   0.00000  Uiso   1.00
C290   C     0.66532   0.93070   0.00067   0.00000  Uiso   1.00
C291   C     0.67965   0.89427   0.89927   0.00000  Uiso   1.00
C292   C     0.65246   0.82785   0.88672   0.00000  Uiso   1.00
C293   C     0.67188   0.80390   0.78771   0.00000  Uiso   1.00
C294   C     0.73447   0.94178   0.00124   0.00000  Uiso   1.00
C295   C     0.75338   0.91530   0.07443   0.00000  Uiso   1.00
C296   C     0.81895   0.93134   0.06127   0.00000  Uiso   1.00
C297   C     0.63861   0.00782   0.99632   0.00000  Uiso   1.00
C298   C     0.57693   0.03688   0.06539   0.00000  Uiso   1.00
C299   C     0.56181   0.10853   0.04811   0.00000  Uiso   1.00
H300   H     0.78320   0.03822   0.78225   0.00000  Uiso   1.00
H301   H     0.77894   0.94324   0.65237   0.00000  Uiso   1.00
H302   H     0.87984   0.03068   0.84006   0.00000  Uiso   1.00
H303   H     0.70342   0.15224   0.83102   0.00000  Uiso   1.00
H304   H     0.75440   0.81982   0.54515   0.00000  Uiso   1.00
H305   H     0.96715   0.00421   0.94092   0.00000  Uiso   1.00
H306   H     0.59513   0.26055   0.92186   0.00000  Uiso   1.00
H307   H     0.63029   0.89874   0.06559   0.00000  Uiso   1.00
H308   H     0.61764   0.79610   0.95126   0.00000  Uiso   1.00
H309   H     0.71854   0.88354   0.13895   0.00000  Uiso   1.00
H310   H     0.54212   0.00510   0.12991   0.00000  Uiso   1.00
H311   H     0.62348   0.70039   0.78775   0.00000  Uiso   1.00
H312   H     0.83623   0.88479   0.18351   0.00000  Uiso   1.00
H313   H     0.46421   0.14112   0.16445   0.00000  Uiso   1.00
O314   O     0.68340   0.69509   0.58613   0.00000  Uiso   1.00
O315   O     0.96251   0.93703   0.10536   0.00000  Uiso   1.00
O316   O     0.47443   0.27332   0.08036   0.00000  Uiso   1.00
N317   N     0.72531   0.80580   0.61794   0.00000  Uiso   1.00
N318   N     0.92422   0.97819   0.98794   0.00000  Uiso   1.00
N319   N     0.57643   0.21785   0.97014   0.00000  Uiso   1.00
N320   N     0.65487   0.74154   0.74847   0.00000  Uiso   1.00
N321   N     0.85378   0.91393   0.11848   0.00000  Uiso   1.00
N322   N     0.50598   0.15359   0.10068   0.00000  Uiso   1.00
C323   C     0.24816   0.50627   0.84716   0.00000  Uiso   1.00
C324   C     0.22464   0.43532   0.81589   0.00000  Uiso   1.00
C325   C     0.24411   0.41146   0.71688   0.00000  Uiso   1.00
C326   C     0.21696   0.34502   0.70418   0.00000  Uiso   1.00
C327   C     0.18731   0.24108   0.64294   0.00000  Uiso   1.00
C328   C     0.27947   0.48282   0.91786   0.00000  Uiso   1.00
C329   C     0.34503   0.49891   0.90459   0.00000  Uiso   1.00
C330   C     0.36403   0.47246   0.97774   0.00000  Uiso   1.00
C331   C     0.41948   0.44232   0.07485   0.00000  Uiso   1.00
C332   C     0.18361   0.54887   0.91294   0.00000  Uiso   1.00
C333   C     0.16859   0.62049   0.89555   0.00000  Uiso   1.00
C334   C     0.10689   0.64965   0.96458   0.00000  Uiso   1.00
C335   C     0.01351   0.72205   0.05405   0.00000  Uiso   1.00
C336   C     0.16532   0.43070   0.00067   0.00000  Uiso   1.00
C337   C     0.17965   0.39427   0.89927   0.00000  Uiso   1.00
C338   C     0.15246   0.32785   0.88672   0.00000  Uiso   1.00
C339   C     0.17188   0.30390   0.78771   0.00000  Uiso   1.00
C340   C     0.23447   0.44178   0.00124   0.00000  Uiso   1.00
C341   C     0.25338   0.41530   0.07443   0.00000  Uiso   1.00
C342   C     0.31895   0.43134   0.06127   0.00000  Uiso   1.00
C343   C     0.13861   0.50782   0.99632   0.00000  Uiso   1.00
C344   C     0.07693   0.53688   0.06539   0.00000  Uiso   1.00
C345   C     0.06181   0.60853   0.04811   0.00000  Uiso   1.00
H346   H     0.28320   0.53822   0.78225   0.00000  Uiso   1.00
H347   H     0.27894   0.44324   0.65237   0.00000  Uiso   1.00
H348   H     0.37984   0.53068   0.84006   0.00000  Uiso   1.00
H349   H     0.20342   0.65224   0.83102   0.00000  Uiso   1.00
H350   H     0.25440   0.31982   0.54515   0.00000  Uiso   1.00
H351   H     0.46715   0.50421   0.94092   0.00000  Uiso   1.00
H352   H     0.09513   0.76055   0.92186   0.00000  Uiso   1.00
H353   H     0.13029   0.39874   0.06559   0.00000  Uiso   1.00
H354   H     0.11764   0.29610   0.95126   0.00000  Uiso   1.00
H355   H     0.21854   0.38354   0.13895   0.00000  Uiso   1.00
H356   H     0.04212   0.50510   0.12991   0.00000  Uiso   1.00
H357   H     0.12348   0.20039   0.78775   0.00000  Uiso   1.00
H358   H     0.33623   0.38479   0.18351   0.00000  Uiso   1.00
H359   H     0.96421   0.64112   0.16445   0.00000  Uiso   1.00
O360   O     0.18340   0.19509   0.58613   0.00000  Uiso   1.00
O361   O     0.46251   0.43703   0.10536   0.00000  Uiso   1.00
O362   O     0.97443   0.77332   0.08036   0.00000  Uiso   1.00
N363   N     0.22531   0.30580   0.61794   0.00000  Uiso   1.00
N364   N     0.42422   0.47819   0.98794   0.00000  Uiso   1.00
N365   N     0.07643   0.71785   0.97014   0.00000  Uiso   1.00
N366   N     0.15487   0.24154   0.74847   0.00000  Uiso   1.00
N367   N     0.35378   0.41393   0.11848   0.00000  Uiso   1.00
N368   N     0.00598   0.65359   0.10068   0.00000  Uiso   1.00
