data_job_02307
_audit_creation_date              2018-12-19
_audit_creation_method            'Materials Studio'
_symmetry_space_group_name_H-M    'P1'
_symmetry_Int_Tables_number       1
_symmetry_cell_setting            triclinic
loop_
_symmetry_equiv_pos_as_xyz
  x,y,z
_cell_length_a                    13.1324
_cell_length_b                    13.1324
_cell_length_c                    23.9360
_cell_angle_alpha                 90.0000
_cell_angle_beta                  90.0000
_cell_angle_gamma                 120.0000
loop_
_atom_site_label
_atom_site_type_symbol
_atom_site_fract_x
_atom_site_fract_y
_atom_site_fract_z
_atom_site_U_iso_or_equiv
_atom_site_adp_type
_atom_site_occupancy
C1     C     0.35216   0.62212   0.39376   0.00000  Uiso   1.00
C2     C     0.30871   0.50645   0.36252   0.00000  Uiso   1.00
C3     C     0.35197   0.49272   0.31190   0.00000  Uiso   1.00
C4     C     0.30041   0.37969   0.29015   0.00000  Uiso   1.00
C5     C     0.24681   0.21466   0.23738   0.00000  Uiso   1.00
C6     C     0.24463   0.63598   0.40221   0.00000  Uiso   1.00
C7     C     0.23402   0.73116   0.38496   0.00000  Uiso   1.00
C8     C     0.12852   0.72716   0.39664   0.00000  Uiso   1.00
C9     C     0.97547   0.76327   0.40551   0.00000  Uiso   1.00
C10    C     0.38768   0.60311   0.45178   0.00000  Uiso   1.00
C11    C     0.49735   0.67066   0.47623   0.00000  Uiso   1.00
C12    C     0.51229   0.63901   0.52966   0.00000  Uiso   1.00
C13    C     0.58136   0.62408   0.61551   0.00000  Uiso   1.00
C14    C     0.18367   0.44581   0.44517   0.00000  Uiso   1.00
C15    C     0.21718   0.41069   0.39044   0.00000  Uiso   1.00
C16    C     0.16555   0.29765   0.36877   0.00000  Uiso   1.00
C17    C     0.20873   0.28375   0.31812   0.00000  Uiso   1.00
C18    C     0.15311   0.54022   0.43013   0.00000  Uiso   1.00
C19    C     0.04760   0.53609   0.44183   0.00000  Uiso   1.00
C20    C     0.03683   0.63123   0.42461   0.00000  Uiso   1.00
C21    C     0.29617   0.50734   0.47971   0.00000  Uiso   1.00
C22    C     0.31093   0.47559   0.53310   0.00000  Uiso   1.00
C23    C     0.42060   0.54308   0.55763   0.00000  Uiso   1.00
H24    H     0.42341   0.69668   0.37203   0.00000  Uiso   1.00
H25    H     0.42279   0.56685   0.29030   0.00000  Uiso   1.00
H26    H     0.30486   0.80525   0.36336   0.00000  Uiso   1.00
H27    H     0.56815   0.74476   0.45462   0.00000  Uiso   1.00
H28    H     0.38170   0.38069   0.21200   0.00000  Uiso   1.00
H29    H     0.13307   0.88339   0.36606   0.00000  Uiso   1.00
H30    H     0.68827   0.75584   0.55849   0.00000  Uiso   1.00
H31    H     0.11242   0.37125   0.46690   0.00000  Uiso   1.00
H32    H     0.09473   0.22356   0.39038   0.00000  Uiso   1.00
H33    H     0.97680   0.46197   0.46344   0.00000  Uiso   1.00
H34    H     0.24009   0.40148   0.55470   0.00000  Uiso   1.00
H35    H     0.11543   0.10206   0.29322   0.00000  Uiso   1.00
H36    H     0.86680   0.60477   0.44729   0.00000  Uiso   1.00
H37    H     0.42200   0.47722   0.63972   0.00000  Uiso   1.00
O38    O     0.24252   0.15010   0.20055   0.00000  Uiso   1.00
O39    O     0.91633   0.80964   0.40269   0.00000  Uiso   1.00
O40    O     0.64474   0.64229   0.65515   0.00000  Uiso   1.00
N41    N     0.32148   0.33538   0.24162   0.00000  Uiso   1.00
N42    N     0.08901   0.80537   0.38566   0.00000  Uiso   1.00
N43    N     0.60807   0.68614   0.56557   0.00000  Uiso   1.00
N44    N     0.17820   0.18545   0.28533   0.00000  Uiso   1.00
N45    N     0.94574   0.65544   0.42936   0.00000  Uiso   1.00
N46    N     0.46480   0.53621   0.60928   0.00000  Uiso   1.00
C47    C     0.37788   0.73004   0.06043   0.00000  Uiso   1.00
C48    C     0.49355   0.80225   0.02919   0.00000  Uiso   1.00
C49    C     0.50728   0.85925   0.97856   0.00000  Uiso   1.00
C50    C     0.62031   0.92072   0.95682   0.00000  Uiso   1.00
C51    C     0.78534   0.03215   0.90404   0.00000  Uiso   1.00
C52    C     0.36402   0.60865   0.06887   0.00000  Uiso   1.00
C53    C     0.26884   0.50286   0.05163   0.00000  Uiso   1.00
C54    C     0.27284   0.40135   0.06330   0.00000  Uiso   1.00
C55    C     0.23673   0.21220   0.07218   0.00000  Uiso   1.00
C56    C     0.39689   0.78458   0.11845   0.00000  Uiso   1.00
C57    C     0.32934   0.82669   0.14290   0.00000  Uiso   1.00
C58    C     0.36099   0.87328   0.19632   0.00000  Uiso   1.00
C59    C     0.37592   0.95728   0.28218   0.00000  Uiso   1.00
C60    C     0.55419   0.73786   0.11183   0.00000  Uiso   1.00
C61    C     0.58931   0.80649   0.05711   0.00000  Uiso   1.00
C62    C     0.70235   0.86790   0.03543   0.00000  Uiso   1.00
C63    C     0.71625   0.92498   0.98479   0.00000  Uiso   1.00
C64    C     0.45978   0.61289   0.09679   0.00000  Uiso   1.00
C65    C     0.46391   0.51151   0.10850   0.00000  Uiso   1.00
C66    C     0.36877   0.40561   0.09127   0.00000  Uiso   1.00
C67    C     0.49266   0.78883   0.14637   0.00000  Uiso   1.00
C68    C     0.52441   0.83534   0.19977   0.00000  Uiso   1.00
C69    C     0.45692   0.87753   0.22429   0.00000  Uiso   1.00
H70    H     0.30332   0.72673   0.03869   0.00000  Uiso   1.00
H71    H     0.43315   0.85593   0.95697   0.00000  Uiso   1.00
H72    H     0.19475   0.49961   0.03003   0.00000  Uiso   1.00
H73    H     0.25524   0.82339   0.12128   0.00000  Uiso   1.00
H74    H     0.61931   0.00101   0.87866   0.00000  Uiso   1.00
H75    H     0.11661   0.24968   0.03273   0.00000  Uiso   1.00
H76    H     0.24416   0.93243   0.22516   0.00000  Uiso   1.00
H77    H     0.62875   0.74116   0.13357   0.00000  Uiso   1.00
H78    H     0.77644   0.87117   0.05705   0.00000  Uiso   1.00
H79    H     0.53803   0.51483   0.13011   0.00000  Uiso   1.00
H80    H     0.59852   0.83862   0.22136   0.00000  Uiso   1.00
H81    H     0.89794   0.01337   0.95989   0.00000  Uiso   1.00
H82    H     0.39523   0.26203   0.11396   0.00000  Uiso   1.00
H83    H     0.52278   0.94479   0.30639   0.00000  Uiso   1.00
O84    O     0.84990   0.09242   0.86722   0.00000  Uiso   1.00
O85    O     0.19036   0.10669   0.06936   0.00000  Uiso   1.00
O86    O     0.35771   0.00245   0.32182   0.00000  Uiso   1.00
N87    N     0.66462   0.98610   0.90829   0.00000  Uiso   1.00
N88    N     0.19463   0.28364   0.05232   0.00000  Uiso   1.00
N89    N     0.31386   0.92193   0.23223   0.00000  Uiso   1.00
N90    N     0.81455   0.99275   0.95200   0.00000  Uiso   1.00
N91    N     0.34456   0.29030   0.09603   0.00000  Uiso   1.00
N92    N     0.46379   0.92859   0.27594   0.00000  Uiso   1.00
C93    C     0.26996   0.64784   0.72710   0.00000  Uiso   1.00
C94    C     0.19775   0.69129   0.69585   0.00000  Uiso   1.00
C95    C     0.14075   0.64803   0.64523   0.00000  Uiso   1.00
C96    C     0.07928   0.69959   0.62349   0.00000  Uiso   1.00
C97    C     0.96785   0.75319   0.57071   0.00000  Uiso   1.00
C98    C     0.39135   0.75537   0.73554   0.00000  Uiso   1.00
C99    C     0.49714   0.76598   0.71830   0.00000  Uiso   1.00
C100   C     0.59865   0.87148   0.72997   0.00000  Uiso   1.00
C101   C     0.78780   0.02453   0.73885   0.00000  Uiso   1.00
C102   C     0.21542   0.61232   0.78512   0.00000  Uiso   1.00
C103   C     0.17331   0.50265   0.80957   0.00000  Uiso   1.00
C104   C     0.12672   0.48771   0.86299   0.00000  Uiso   1.00
C105   C     0.04272   0.41864   0.94884   0.00000  Uiso   1.00
C106   C     0.26214   0.81633   0.77850   0.00000  Uiso   1.00
C107   C     0.19351   0.78282   0.72377   0.00000  Uiso   1.00
C108   C     0.13210   0.83445   0.70210   0.00000  Uiso   1.00
C109   C     0.07502   0.79127   0.65146   0.00000  Uiso   1.00
C110   C     0.38711   0.84689   0.76346   0.00000  Uiso   1.00
C111   C     0.48849   0.95240   0.77517   0.00000  Uiso   1.00
C112   C     0.59439   0.96317   0.75794   0.00000  Uiso   1.00
C113   C     0.21117   0.70383   0.81304   0.00000  Uiso   1.00
C114   C     0.16466   0.68907   0.86644   0.00000  Uiso   1.00
C115   C     0.12247   0.57940   0.89096   0.00000  Uiso   1.00
H116   H     0.27327   0.57659   0.70536   0.00000  Uiso   1.00
H117   H     0.14407   0.57721   0.62363   0.00000  Uiso   1.00
H118   H     0.50039   0.69514   0.69669   0.00000  Uiso   1.00
H119   H     0.17661   0.43185   0.78795   0.00000  Uiso   1.00
H120   H     0.99899   0.61830   0.54533   0.00000  Uiso   1.00
H121   H     0.75032   0.86693   0.69940   0.00000  Uiso   1.00
H122   H     0.06757   0.31173   0.89183   0.00000  Uiso   1.00
H123   H     0.25884   0.88758   0.80024   0.00000  Uiso   1.00
H124   H     0.12883   0.90527   0.72372   0.00000  Uiso   1.00
H125   H     0.48517   0.02320   0.79677   0.00000  Uiso   1.00
H126   H     0.16138   0.75991   0.88803   0.00000  Uiso   1.00
H127   H     0.98663   0.88457   0.62656   0.00000  Uiso   1.00
H128   H     0.73797   0.13320   0.78063   0.00000  Uiso   1.00
H129   H     0.05521   0.57800   0.97306   0.00000  Uiso   1.00
O130   O     0.90758   0.75748   0.53389   0.00000  Uiso   1.00
O131   O     0.89331   0.08367   0.73602   0.00000  Uiso   1.00
O132   O     0.99755   0.35526   0.98849   0.00000  Uiso   1.00
N133   N     0.01390   0.67852   0.57495   0.00000  Uiso   1.00
N134   N     0.71636   0.91099   0.71899   0.00000  Uiso   1.00
N135   N     0.07807   0.39193   0.89890   0.00000  Uiso   1.00
N136   N     0.00725   0.82180   0.61866   0.00000  Uiso   1.00
N137   N     0.70970   0.05426   0.76270   0.00000  Uiso   1.00
N138   N     0.07141   0.53520   0.94261   0.00000  Uiso   1.00
C139   C     0.62212   0.35216   0.60624   0.00000  Uiso   1.00
C140   C     0.50645   0.30871   0.63748   0.00000  Uiso   1.00
C141   C     0.49272   0.35197   0.68810   0.00000  Uiso   1.00
C142   C     0.37969   0.30041   0.70985   0.00000  Uiso   1.00
C143   C     0.21466   0.24681   0.76262   0.00000  Uiso   1.00
C144   C     0.63598   0.24463   0.59779   0.00000  Uiso   1.00
C145   C     0.73116   0.23402   0.61504   0.00000  Uiso   1.00
C146   C     0.72716   0.12852   0.60336   0.00000  Uiso   1.00
C147   C     0.76327   0.97547   0.59449   0.00000  Uiso   1.00
C148   C     0.60311   0.38768   0.54822   0.00000  Uiso   1.00
C149   C     0.67066   0.49735   0.52377   0.00000  Uiso   1.00
C150   C     0.63901   0.51229   0.47034   0.00000  Uiso   1.00
C151   C     0.62408   0.58136   0.38449   0.00000  Uiso   1.00
C152   C     0.44581   0.18367   0.55483   0.00000  Uiso   1.00
C153   C     0.41069   0.21718   0.60956   0.00000  Uiso   1.00
C154   C     0.29765   0.16555   0.63123   0.00000  Uiso   1.00
C155   C     0.28375   0.20873   0.68188   0.00000  Uiso   1.00
C156   C     0.54022   0.15311   0.56987   0.00000  Uiso   1.00
C157   C     0.53609   0.04760   0.55817   0.00000  Uiso   1.00
C158   C     0.63123   0.03683   0.57539   0.00000  Uiso   1.00
C159   C     0.50734   0.29617   0.52029   0.00000  Uiso   1.00
C160   C     0.47559   0.31093   0.46690   0.00000  Uiso   1.00
C161   C     0.54308   0.42060   0.44237   0.00000  Uiso   1.00
H162   H     0.69668   0.42341   0.62797   0.00000  Uiso   1.00
H163   H     0.56685   0.42279   0.70970   0.00000  Uiso   1.00
H164   H     0.80525   0.30486   0.63664   0.00000  Uiso   1.00
H165   H     0.74476   0.56815   0.54538   0.00000  Uiso   1.00
H166   H     0.38069   0.38170   0.78800   0.00000  Uiso   1.00
H167   H     0.88339   0.13307   0.63394   0.00000  Uiso   1.00
H168   H     0.75584   0.68827   0.44151   0.00000  Uiso   1.00
H169   H     0.37125   0.11242   0.53310   0.00000  Uiso   1.00
H170   H     0.22356   0.09473   0.60962   0.00000  Uiso   1.00
H171   H     0.46197   0.97680   0.53656   0.00000  Uiso   1.00
H172   H     0.40148   0.24009   0.44530   0.00000  Uiso   1.00
H173   H     0.10206   0.11543   0.70678   0.00000  Uiso   1.00
H174   H     0.60477   0.86680   0.55271   0.00000  Uiso   1.00
H175   H     0.47722   0.42200   0.36028   0.00000  Uiso   1.00
O176   O     0.15010   0.24252   0.79945   0.00000  Uiso   1.00
O177   O     0.80964   0.91633   0.59731   0.00000  Uiso   1.00
O178   O     0.64229   0.64474   0.34485   0.00000  Uiso   1.00
N179   N     0.33538   0.32148   0.75838   0.00000  Uiso   1.00
N180   N     0.80537   0.08901   0.61434   0.00000  Uiso   1.00
N181   N     0.68614   0.60807   0.43443   0.00000  Uiso   1.00
N182   N     0.18545   0.17820   0.71467   0.00000  Uiso   1.00
N183   N     0.65544   0.94574   0.57064   0.00000  Uiso   1.00
N184   N     0.53621   0.46480   0.39072   0.00000  Uiso   1.00
C185   C     0.73004   0.37788   0.93957   0.00000  Uiso   1.00
C186   C     0.80225   0.49355   0.97081   0.00000  Uiso   1.00
C187   C     0.85925   0.50728   0.02144   0.00000  Uiso   1.00
C188   C     0.92072   0.62031   0.04318   0.00000  Uiso   1.00
C189   C     0.03215   0.78534   0.09596   0.00000  Uiso   1.00
C190   C     0.60865   0.36402   0.93113   0.00000  Uiso   1.00
C191   C     0.50286   0.26885   0.94837   0.00000  Uiso   1.00
C192   C     0.40135   0.27284   0.93670   0.00000  Uiso   1.00
C193   C     0.21220   0.23673   0.92782   0.00000  Uiso   1.00
C194   C     0.78458   0.39689   0.88155   0.00000  Uiso   1.00
C195   C     0.82669   0.32934   0.85710   0.00000  Uiso   1.00
C196   C     0.87328   0.36099   0.80368   0.00000  Uiso   1.00
C197   C     0.95728   0.37592   0.71782   0.00000  Uiso   1.00
C198   C     0.73786   0.55419   0.88817   0.00000  Uiso   1.00
C199   C     0.80649   0.58931   0.94289   0.00000  Uiso   1.00
C200   C     0.86790   0.70235   0.96457   0.00000  Uiso   1.00
C201   C     0.92498   0.71625   0.01521   0.00000  Uiso   1.00
C202   C     0.61289   0.45978   0.90321   0.00000  Uiso   1.00
C203   C     0.51151   0.46391   0.89150   0.00000  Uiso   1.00
C204   C     0.40561   0.36877   0.90873   0.00000  Uiso   1.00
C205   C     0.78883   0.49266   0.85363   0.00000  Uiso   1.00
C206   C     0.83534   0.52441   0.80023   0.00000  Uiso   1.00
C207   C     0.87753   0.45692   0.77571   0.00000  Uiso   1.00
H208   H     0.72673   0.30332   0.96131   0.00000  Uiso   1.00
H209   H     0.85593   0.43315   0.04303   0.00000  Uiso   1.00
H210   H     0.49961   0.19475   0.96997   0.00000  Uiso   1.00
H211   H     0.82339   0.25524   0.87872   0.00000  Uiso   1.00
H212   H     0.00101   0.61931   0.12134   0.00000  Uiso   1.00
H213   H     0.24968   0.11661   0.96727   0.00000  Uiso   1.00
H214   H     0.93243   0.24416   0.77484   0.00000  Uiso   1.00
H215   H     0.74116   0.62875   0.86643   0.00000  Uiso   1.00
H216   H     0.87117   0.77644   0.94295   0.00000  Uiso   1.00
H217   H     0.51483   0.53803   0.86989   0.00000  Uiso   1.00
H218   H     0.83862   0.59852   0.77864   0.00000  Uiso   1.00
H219   H     0.01337   0.89794   0.04011   0.00000  Uiso   1.00
H220   H     0.26203   0.39523   0.88604   0.00000  Uiso   1.00
H221   H     0.94479   0.52278   0.69361   0.00000  Uiso   1.00
O222   O     0.09242   0.84990   0.13278   0.00000  Uiso   1.00
O223   O     0.10669   0.19036   0.93064   0.00000  Uiso   1.00
O224   O     0.00245   0.35771   0.67818   0.00000  Uiso   1.00
N225   N     0.98610   0.66462   0.09171   0.00000  Uiso   1.00
N226   N     0.28364   0.19463   0.94768   0.00000  Uiso   1.00
N227   N     0.92193   0.31386   0.76777   0.00000  Uiso   1.00
N228   N     0.99275   0.81455   0.04800   0.00000  Uiso   1.00
N229   N     0.29030   0.34456   0.90397   0.00000  Uiso   1.00
N230   N     0.92859   0.46379   0.72406   0.00000  Uiso   1.00
C231   C     0.64784   0.26996   0.27290   0.00000  Uiso   1.00
C232   C     0.69129   0.19775   0.30415   0.00000  Uiso   1.00
C233   C     0.64803   0.14075   0.35477   0.00000  Uiso   1.00
C234   C     0.69959   0.07928   0.37651   0.00000  Uiso   1.00
C235   C     0.75319   0.96785   0.42929   0.00000  Uiso   1.00
C236   C     0.75537   0.39135   0.26446   0.00000  Uiso   1.00
C237   C     0.76598   0.49714   0.28170   0.00000  Uiso   1.00
C238   C     0.87148   0.59865   0.27003   0.00000  Uiso   1.00
C239   C     0.02453   0.78780   0.26115   0.00000  Uiso   1.00
C240   C     0.61232   0.21542   0.21488   0.00000  Uiso   1.00
C241   C     0.50265   0.17331   0.19043   0.00000  Uiso   1.00
C242   C     0.48771   0.12672   0.13701   0.00000  Uiso   1.00
C243   C     0.41864   0.04272   0.05116   0.00000  Uiso   1.00
C244   C     0.81633   0.26214   0.22150   0.00000  Uiso   1.00
C245   C     0.78282   0.19351   0.27623   0.00000  Uiso   1.00
C246   C     0.83445   0.13210   0.29790   0.00000  Uiso   1.00
C247   C     0.79127   0.07502   0.34854   0.00000  Uiso   1.00
C248   C     0.84689   0.38711   0.23654   0.00000  Uiso   1.00
C249   C     0.95240   0.48849   0.22483   0.00000  Uiso   1.00
C250   C     0.96317   0.59439   0.24206   0.00000  Uiso   1.00
C251   C     0.70383   0.21117   0.18696   0.00000  Uiso   1.00
C252   C     0.68907   0.16466   0.13356   0.00000  Uiso   1.00
C253   C     0.57940   0.12247   0.10904   0.00000  Uiso   1.00
H254   H     0.57659   0.27327   0.29464   0.00000  Uiso   1.00
H255   H     0.57721   0.14407   0.37637   0.00000  Uiso   1.00
H256   H     0.69514   0.50039   0.30331   0.00000  Uiso   1.00
H257   H     0.43185   0.17661   0.21205   0.00000  Uiso   1.00
H258   H     0.61830   0.99899   0.45467   0.00000  Uiso   1.00
H259   H     0.86693   0.75032   0.30060   0.00000  Uiso   1.00
H260   H     0.31173   0.06757   0.10817   0.00000  Uiso   1.00
H261   H     0.88758   0.25884   0.19976   0.00000  Uiso   1.00
H262   H     0.90527   0.12883   0.27628   0.00000  Uiso   1.00
H263   H     0.02320   0.48517   0.20323   0.00000  Uiso   1.00
H264   H     0.75991   0.16138   0.11197   0.00000  Uiso   1.00
H265   H     0.88457   0.98663   0.37344   0.00000  Uiso   1.00
H266   H     0.13320   0.73797   0.21937   0.00000  Uiso   1.00
H267   H     0.57800   0.05521   0.02694   0.00000  Uiso   1.00
O268   O     0.75748   0.90758   0.46611   0.00000  Uiso   1.00
O269   O     0.08367   0.89331   0.26398   0.00000  Uiso   1.00
O270   O     0.35526   0.99755   0.01151   0.00000  Uiso   1.00
N271   N     0.67852   0.01390   0.42505   0.00000  Uiso   1.00
N272   N     0.91099   0.71636   0.28101   0.00000  Uiso   1.00
N273   N     0.39193   0.07807   0.10110   0.00000  Uiso   1.00
N274   N     0.82180   0.00725   0.38134   0.00000  Uiso   1.00
N275   N     0.05426   0.70970   0.23730   0.00000  Uiso   1.00
N276   N     0.53520   0.07141   0.05739   0.00000  Uiso   1.00
