data_job_00049
_audit_creation_date              2018-12-19
_audit_creation_method            'Materials Studio'
_symmetry_space_group_name_H-M    'P1'
_symmetry_Int_Tables_number       1
_symmetry_cell_setting            triclinic
loop_
_symmetry_equiv_pos_as_xyz
  x,y,z
_cell_length_a                    30.9949
_cell_length_b                    10.7580
_cell_length_c                    15.1897
_cell_angle_alpha                 90.0000
_cell_angle_beta                  64.9337
_cell_angle_gamma                 90.0000
loop_
_atom_site_label
_atom_site_type_symbol
_atom_site_fract_x
_atom_site_fract_y
_atom_site_fract_z
_atom_site_U_iso_or_equiv
_atom_site_adp_type
_atom_site_occupancy
C1     C     0.39892   0.34309   0.21151   0.00000  Uiso   1.00
C2     C     0.38491   0.30343   0.31646   0.00000  Uiso   1.00
C3     C     0.39967   0.19573   0.34593   0.00000  Uiso   1.00
C4     C     0.38289   0.17627   0.44531   0.00000  Uiso   1.00
C5     C     0.36575   0.10169   0.59802   0.00000  Uiso   1.00
C6     C     0.35236   0.36152   0.20171   0.00000  Uiso   1.00
C7     C     0.33977   0.30267   0.13470   0.00000  Uiso   1.00
C8     C     0.29560   0.33213   0.13747   0.00000  Uiso   1.00
C9     C     0.22794   0.34780   0.11199   0.00000  Uiso   1.00
C10    C     0.42107   0.47188   0.20138   0.00000  Uiso   1.00
C11    C     0.46624   0.50584   0.13406   0.00000  Uiso   1.00
C12    C     0.47991   0.62822   0.13654   0.00000  Uiso   1.00
C13    C     0.51893   0.81525   0.11054   0.00000  Uiso   1.00
C14    C     0.34287   0.50006   0.33559   0.00000  Uiso   1.00
C15    C     0.35446   0.38870   0.38385   0.00000  Uiso   1.00
C16    C     0.33766   0.36940   0.48321   0.00000  Uiso   1.00
C17    C     0.35239   0.26169   0.51282   0.00000  Uiso   1.00
C18    C     0.32192   0.44678   0.26911   0.00000  Uiso   1.00
C19    C     0.27776   0.47634   0.27198   0.00000  Uiso   1.00
C20    C     0.26510   0.41754   0.20499   0.00000  Uiso   1.00
C21    C     0.39062   0.55715   0.26877   0.00000  Uiso   1.00
C22    C     0.40422   0.67951   0.27135   0.00000  Uiso   1.00
C23    C     0.44941   0.71364   0.20405   0.00000  Uiso   1.00
H24    H     0.42262   0.27672   0.15904   0.00000  Uiso   1.00
H25    H     0.42323   0.12977   0.29375   0.00000  Uiso   1.00
H26    H     0.36334   0.23670   0.08255   0.00000  Uiso   1.00
H27    H     0.48979   0.43984   0.08192   0.00000  Uiso   1.00
H28    H     0.41046   0.00442   0.47283   0.00000  Uiso   1.00
H29    H     0.28419   0.22993   0.02747   0.00000  Uiso   1.00
H30    H     0.55083   0.65828   0.02614   0.00000  Uiso   1.00
H31    H     0.31916   0.56645   0.38806   0.00000  Uiso   1.00
H32    H     0.31410   0.43540   0.53535   0.00000  Uiso   1.00
H33    H     0.25421   0.54233   0.32414   0.00000  Uiso   1.00
H34    H     0.38065   0.74546   0.32351   0.00000  Uiso   1.00
H35    H     0.32189   0.25248   0.66892   0.00000  Uiso   1.00
H36    H     0.19561   0.47799   0.22355   0.00000  Uiso   1.00
H37    H     0.46225   0.90634   0.22223   0.00000  Uiso   1.00
O38    O     0.36470   0.03699   0.66363   0.00000  Uiso   1.00
O39    O     0.19904   0.33287   0.07932   0.00000  Uiso   1.00
O40    O     0.54886   0.89485   0.07759   0.00000  Uiso   1.00
N41    N     0.39032   0.08080   0.49877   0.00000  Uiso   1.00
N42    N     0.27226   0.29162   0.08239   0.00000  Uiso   1.00
N43    N     0.52154   0.69210   0.08113   0.00000  Uiso   1.00
N44    N     0.34266   0.21428   0.60428   0.00000  Uiso   1.00
N45    N     0.22460   0.42510   0.18790   0.00000  Uiso   1.00
N46    N     0.47388   0.82558   0.18665   0.00000  Uiso   1.00
C47    C     0.89892   0.84309   0.21151   0.00000  Uiso   1.00
C48    C     0.88491   0.80343   0.31646   0.00000  Uiso   1.00
C49    C     0.89967   0.69573   0.34593   0.00000  Uiso   1.00
C50    C     0.88289   0.67627   0.44531   0.00000  Uiso   1.00
C51    C     0.86575   0.60169   0.59802   0.00000  Uiso   1.00
C52    C     0.85236   0.86152   0.20171   0.00000  Uiso   1.00
C53    C     0.83977   0.80267   0.13470   0.00000  Uiso   1.00
C54    C     0.79560   0.83213   0.13747   0.00000  Uiso   1.00
C55    C     0.72794   0.84780   0.11199   0.00000  Uiso   1.00
C56    C     0.92107   0.97188   0.20138   0.00000  Uiso   1.00
C57    C     0.96624   0.00584   0.13406   0.00000  Uiso   1.00
C58    C     0.97991   0.12822   0.13654   0.00000  Uiso   1.00
C59    C     0.01893   0.31525   0.11054   0.00000  Uiso   1.00
C60    C     0.84287   0.00006   0.33559   0.00000  Uiso   1.00
C61    C     0.85446   0.88870   0.38385   0.00000  Uiso   1.00
C62    C     0.83766   0.86940   0.48321   0.00000  Uiso   1.00
C63    C     0.85239   0.76169   0.51282   0.00000  Uiso   1.00
C64    C     0.82192   0.94678   0.26911   0.00000  Uiso   1.00
C65    C     0.77776   0.97634   0.27198   0.00000  Uiso   1.00
C66    C     0.76510   0.91754   0.20499   0.00000  Uiso   1.00
C67    C     0.89062   0.05715   0.26877   0.00000  Uiso   1.00
C68    C     0.90422   0.17951   0.27135   0.00000  Uiso   1.00
C69    C     0.94941   0.21364   0.20405   0.00000  Uiso   1.00
H70    H     0.92262   0.77672   0.15904   0.00000  Uiso   1.00
H71    H     0.92323   0.62977   0.29375   0.00000  Uiso   1.00
H72    H     0.86334   0.73670   0.08255   0.00000  Uiso   1.00
H73    H     0.98979   0.93984   0.08192   0.00000  Uiso   1.00
H74    H     0.91046   0.50442   0.47283   0.00000  Uiso   1.00
H75    H     0.78419   0.72993   0.02747   0.00000  Uiso   1.00
H76    H     0.05083   0.15828   0.02614   0.00000  Uiso   1.00
H77    H     0.81916   0.06645   0.38806   0.00000  Uiso   1.00
H78    H     0.81410   0.93540   0.53535   0.00000  Uiso   1.00
H79    H     0.75421   0.04233   0.32414   0.00000  Uiso   1.00
H80    H     0.88065   0.24546   0.32351   0.00000  Uiso   1.00
H81    H     0.82189   0.75248   0.66892   0.00000  Uiso   1.00
H82    H     0.69561   0.97799   0.22355   0.00000  Uiso   1.00
H83    H     0.96225   0.40634   0.22223   0.00000  Uiso   1.00
O84    O     0.86470   0.53699   0.66363   0.00000  Uiso   1.00
O85    O     0.69904   0.83287   0.07932   0.00000  Uiso   1.00
O86    O     0.04886   0.39485   0.07759   0.00000  Uiso   1.00
N87    N     0.89032   0.58080   0.49877   0.00000  Uiso   1.00
N88    N     0.77226   0.79162   0.08239   0.00000  Uiso   1.00
N89    N     0.02154   0.19210   0.08113   0.00000  Uiso   1.00
N90    N     0.84266   0.71428   0.60428   0.00000  Uiso   1.00
N91    N     0.72460   0.92510   0.18790   0.00000  Uiso   1.00
N92    N     0.97388   0.32558   0.18665   0.00000  Uiso   1.00
C93    C     0.60108   0.34309   0.28849   0.00000  Uiso   1.00
C94    C     0.61509   0.30343   0.18354   0.00000  Uiso   1.00
C95    C     0.60033   0.19573   0.15407   0.00000  Uiso   1.00
C96    C     0.61711   0.17627   0.05469   0.00000  Uiso   1.00
C97    C     0.63425   0.10169   0.90198   0.00000  Uiso   1.00
C98    C     0.64764   0.36152   0.29829   0.00000  Uiso   1.00
C99    C     0.66023   0.30267   0.36530   0.00000  Uiso   1.00
C100   C     0.70440   0.33213   0.36253   0.00000  Uiso   1.00
C101   C     0.77206   0.34780   0.38801   0.00000  Uiso   1.00
C102   C     0.57893   0.47188   0.29862   0.00000  Uiso   1.00
C103   C     0.53376   0.50584   0.36594   0.00000  Uiso   1.00
C104   C     0.52009   0.62822   0.36346   0.00000  Uiso   1.00
C105   C     0.48107   0.81525   0.38946   0.00000  Uiso   1.00
C106   C     0.65713   0.50006   0.16441   0.00000  Uiso   1.00
C107   C     0.64554   0.38870   0.11615   0.00000  Uiso   1.00
C108   C     0.66234   0.36940   0.01679   0.00000  Uiso   1.00
C109   C     0.64761   0.26169   0.98718   0.00000  Uiso   1.00
C110   C     0.67808   0.44678   0.23089   0.00000  Uiso   1.00
C111   C     0.72224   0.47634   0.22802   0.00000  Uiso   1.00
C112   C     0.73490   0.41754   0.29501   0.00000  Uiso   1.00
C113   C     0.60938   0.55715   0.23123   0.00000  Uiso   1.00
C114   C     0.59578   0.67951   0.22865   0.00000  Uiso   1.00
C115   C     0.55059   0.71364   0.29595   0.00000  Uiso   1.00
H116   H     0.57738   0.27672   0.34096   0.00000  Uiso   1.00
H117   H     0.57677   0.12977   0.20625   0.00000  Uiso   1.00
H118   H     0.63666   0.23670   0.41745   0.00000  Uiso   1.00
H119   H     0.51021   0.43984   0.41808   0.00000  Uiso   1.00
H120   H     0.58954   0.00442   0.02717   0.00000  Uiso   1.00
H121   H     0.71581   0.22993   0.47253   0.00000  Uiso   1.00
H122   H     0.44917   0.65828   0.47386   0.00000  Uiso   1.00
H123   H     0.68084   0.56645   0.11194   0.00000  Uiso   1.00
H124   H     0.68590   0.43540   0.96465   0.00000  Uiso   1.00
H125   H     0.74579   0.54233   0.17586   0.00000  Uiso   1.00
H126   H     0.61935   0.74546   0.17649   0.00000  Uiso   1.00
H127   H     0.67811   0.25248   0.83108   0.00000  Uiso   1.00
H128   H     0.80439   0.47799   0.27645   0.00000  Uiso   1.00
H129   H     0.53775   0.90634   0.27777   0.00000  Uiso   1.00
O130   O     0.63530   0.03699   0.83637   0.00000  Uiso   1.00
O131   O     0.80096   0.33287   0.42068   0.00000  Uiso   1.00
O132   O     0.45114   0.89485   0.42241   0.00000  Uiso   1.00
N133   N     0.60968   0.08080   0.00123   0.00000  Uiso   1.00
N134   N     0.72774   0.29162   0.41761   0.00000  Uiso   1.00
N135   N     0.47846   0.69210   0.41887   0.00000  Uiso   1.00
N136   N     0.65734   0.21428   0.89572   0.00000  Uiso   1.00
N137   N     0.77540   0.42510   0.31210   0.00000  Uiso   1.00
N138   N     0.52612   0.82558   0.31335   0.00000  Uiso   1.00
C139   C     0.10108   0.84309   0.28849   0.00000  Uiso   1.00
C140   C     0.11509   0.80343   0.18354   0.00000  Uiso   1.00
C141   C     0.10033   0.69573   0.15407   0.00000  Uiso   1.00
C142   C     0.11711   0.67627   0.05469   0.00000  Uiso   1.00
C143   C     0.13425   0.60169   0.90198   0.00000  Uiso   1.00
C144   C     0.14764   0.86152   0.29829   0.00000  Uiso   1.00
C145   C     0.16023   0.80267   0.36530   0.00000  Uiso   1.00
C146   C     0.20440   0.83213   0.36253   0.00000  Uiso   1.00
C147   C     0.27206   0.84780   0.38801   0.00000  Uiso   1.00
C148   C     0.07893   0.97188   0.29862   0.00000  Uiso   1.00
C149   C     0.03376   0.00584   0.36594   0.00000  Uiso   1.00
C150   C     0.02009   0.12822   0.36346   0.00000  Uiso   1.00
C151   C     0.98107   0.31525   0.38946   0.00000  Uiso   1.00
C152   C     0.15713   0.00006   0.16441   0.00000  Uiso   1.00
C153   C     0.14554   0.88870   0.11615   0.00000  Uiso   1.00
C154   C     0.16234   0.86940   0.01679   0.00000  Uiso   1.00
C155   C     0.14761   0.76169   0.98718   0.00000  Uiso   1.00
C156   C     0.17808   0.94678   0.23089   0.00000  Uiso   1.00
C157   C     0.22224   0.97634   0.22802   0.00000  Uiso   1.00
C158   C     0.23490   0.91754   0.29501   0.00000  Uiso   1.00
C159   C     0.10938   0.05715   0.23123   0.00000  Uiso   1.00
C160   C     0.09578   0.17951   0.22865   0.00000  Uiso   1.00
C161   C     0.05059   0.21364   0.29595   0.00000  Uiso   1.00
H162   H     0.07738   0.77672   0.34096   0.00000  Uiso   1.00
H163   H     0.07677   0.62977   0.20625   0.00000  Uiso   1.00
H164   H     0.13666   0.73670   0.41745   0.00000  Uiso   1.00
H165   H     0.01021   0.93984   0.41808   0.00000  Uiso   1.00
H166   H     0.08954   0.50442   0.02717   0.00000  Uiso   1.00
H167   H     0.21581   0.72993   0.47253   0.00000  Uiso   1.00
H168   H     0.94917   0.15828   0.47386   0.00000  Uiso   1.00
H169   H     0.18084   0.06645   0.11194   0.00000  Uiso   1.00
H170   H     0.18590   0.93540   0.96465   0.00000  Uiso   1.00
H171   H     0.24579   0.04233   0.17586   0.00000  Uiso   1.00
H172   H     0.11935   0.24546   0.17649   0.00000  Uiso   1.00
H173   H     0.17811   0.75248   0.83108   0.00000  Uiso   1.00
H174   H     0.30439   0.97799   0.27645   0.00000  Uiso   1.00
H175   H     0.03775   0.40634   0.27777   0.00000  Uiso   1.00
O176   O     0.13530   0.53699   0.83637   0.00000  Uiso   1.00
O177   O     0.30096   0.83287   0.42068   0.00000  Uiso   1.00
O178   O     0.95114   0.39485   0.42241   0.00000  Uiso   1.00
N179   N     0.10968   0.58080   0.00123   0.00000  Uiso   1.00
N180   N     0.22774   0.79162   0.41761   0.00000  Uiso   1.00
N181   N     0.97846   0.19210   0.41887   0.00000  Uiso   1.00
N182   N     0.15734   0.71428   0.89572   0.00000  Uiso   1.00
N183   N     0.27540   0.92510   0.31210   0.00000  Uiso   1.00
N184   N     0.02612   0.32558   0.31335   0.00000  Uiso   1.00
C185   C     0.60108   0.65691   0.78849   0.00000  Uiso   1.00
C186   C     0.61509   0.69657   0.68354   0.00000  Uiso   1.00
C187   C     0.60033   0.80427   0.65407   0.00000  Uiso   1.00
C188   C     0.61711   0.82373   0.55469   0.00000  Uiso   1.00
C189   C     0.63425   0.89831   0.40198   0.00000  Uiso   1.00
C190   C     0.64764   0.63848   0.79829   0.00000  Uiso   1.00
C191   C     0.66023   0.69733   0.86530   0.00000  Uiso   1.00
C192   C     0.70440   0.66787   0.86253   0.00000  Uiso   1.00
C193   C     0.77206   0.65220   0.88801   0.00000  Uiso   1.00
C194   C     0.57893   0.52812   0.79862   0.00000  Uiso   1.00
C195   C     0.53376   0.49416   0.86594   0.00000  Uiso   1.00
C196   C     0.52009   0.37178   0.86346   0.00000  Uiso   1.00
C197   C     0.48107   0.18475   0.88946   0.00000  Uiso   1.00
C198   C     0.65713   0.49994   0.66441   0.00000  Uiso   1.00
C199   C     0.64554   0.61130   0.61615   0.00000  Uiso   1.00
C200   C     0.66234   0.63060   0.51679   0.00000  Uiso   1.00
C201   C     0.64761   0.73831   0.48718   0.00000  Uiso   1.00
C202   C     0.67808   0.55322   0.73089   0.00000  Uiso   1.00
C203   C     0.72224   0.52366   0.72802   0.00000  Uiso   1.00
C204   C     0.73490   0.58246   0.79501   0.00000  Uiso   1.00
C205   C     0.60938   0.44285   0.73123   0.00000  Uiso   1.00
C206   C     0.59578   0.32049   0.72865   0.00000  Uiso   1.00
C207   C     0.55059   0.28636   0.79595   0.00000  Uiso   1.00
H208   H     0.57738   0.72328   0.84096   0.00000  Uiso   1.00
H209   H     0.57677   0.87023   0.70625   0.00000  Uiso   1.00
H210   H     0.63666   0.76330   0.91745   0.00000  Uiso   1.00
H211   H     0.51021   0.56016   0.91808   0.00000  Uiso   1.00
H212   H     0.58954   0.99558   0.52717   0.00000  Uiso   1.00
H213   H     0.71581   0.77007   0.97253   0.00000  Uiso   1.00
H214   H     0.44917   0.34172   0.97386   0.00000  Uiso   1.00
H215   H     0.68084   0.43355   0.61194   0.00000  Uiso   1.00
H216   H     0.68590   0.56460   0.46465   0.00000  Uiso   1.00
H217   H     0.74579   0.45767   0.67586   0.00000  Uiso   1.00
H218   H     0.61935   0.25454   0.67649   0.00000  Uiso   1.00
H219   H     0.67811   0.74752   0.33108   0.00000  Uiso   1.00
H220   H     0.80439   0.52201   0.77645   0.00000  Uiso   1.00
H221   H     0.53775   0.09366   0.77777   0.00000  Uiso   1.00
O222   O     0.63530   0.96301   0.33637   0.00000  Uiso   1.00
O223   O     0.80096   0.66713   0.92068   0.00000  Uiso   1.00
O224   O     0.45114   0.10515   0.92241   0.00000  Uiso   1.00
N225   N     0.60968   0.91920   0.50123   0.00000  Uiso   1.00
N226   N     0.72774   0.70838   0.91761   0.00000  Uiso   1.00
N227   N     0.47846   0.30790   0.91887   0.00000  Uiso   1.00
N228   N     0.65734   0.78572   0.39572   0.00000  Uiso   1.00
N229   N     0.77540   0.57490   0.81210   0.00000  Uiso   1.00
N230   N     0.52612   0.17442   0.81335   0.00000  Uiso   1.00
C231   C     0.10108   0.15691   0.78849   0.00000  Uiso   1.00
C232   C     0.11509   0.19657   0.68354   0.00000  Uiso   1.00
C233   C     0.10033   0.30427   0.65407   0.00000  Uiso   1.00
C234   C     0.11711   0.32373   0.55469   0.00000  Uiso   1.00
C235   C     0.13425   0.39831   0.40198   0.00000  Uiso   1.00
C236   C     0.14764   0.13848   0.79829   0.00000  Uiso   1.00
C237   C     0.16023   0.19733   0.86530   0.00000  Uiso   1.00
C238   C     0.20440   0.16787   0.86253   0.00000  Uiso   1.00
C239   C     0.27206   0.15220   0.88801   0.00000  Uiso   1.00
C240   C     0.07893   0.02812   0.79862   0.00000  Uiso   1.00
C241   C     0.03376   0.99416   0.86594   0.00000  Uiso   1.00
C242   C     0.02009   0.87178   0.86346   0.00000  Uiso   1.00
C243   C     0.98107   0.68475   0.88946   0.00000  Uiso   1.00
C244   C     0.15713   0.99994   0.66441   0.00000  Uiso   1.00
C245   C     0.14554   0.11130   0.61615   0.00000  Uiso   1.00
C246   C     0.16234   0.13060   0.51679   0.00000  Uiso   1.00
C247   C     0.14761   0.23831   0.48718   0.00000  Uiso   1.00
C248   C     0.17808   0.05322   0.73089   0.00000  Uiso   1.00
C249   C     0.22224   0.02366   0.72802   0.00000  Uiso   1.00
C250   C     0.23490   0.08246   0.79501   0.00000  Uiso   1.00
C251   C     0.10938   0.94285   0.73123   0.00000  Uiso   1.00
C252   C     0.09578   0.82049   0.72865   0.00000  Uiso   1.00
C253   C     0.05059   0.78636   0.79595   0.00000  Uiso   1.00
H254   H     0.07738   0.22328   0.84096   0.00000  Uiso   1.00
H255   H     0.07677   0.37023   0.70625   0.00000  Uiso   1.00
H256   H     0.13666   0.26330   0.91745   0.00000  Uiso   1.00
H257   H     0.01021   0.06016   0.91808   0.00000  Uiso   1.00
H258   H     0.08954   0.49558   0.52717   0.00000  Uiso   1.00
H259   H     0.21581   0.27007   0.97253   0.00000  Uiso   1.00
H260   H     0.94917   0.84172   0.97386   0.00000  Uiso   1.00
H261   H     0.18084   0.93355   0.61194   0.00000  Uiso   1.00
H262   H     0.18590   0.06460   0.46465   0.00000  Uiso   1.00
H263   H     0.24579   0.95767   0.67586   0.00000  Uiso   1.00
H264   H     0.11935   0.75454   0.67649   0.00000  Uiso   1.00
H265   H     0.17811   0.24752   0.33108   0.00000  Uiso   1.00
H266   H     0.30439   0.02201   0.77645   0.00000  Uiso   1.00
H267   H     0.03775   0.59366   0.77777   0.00000  Uiso   1.00
O268   O     0.13530   0.46301   0.33637   0.00000  Uiso   1.00
O269   O     0.30096   0.16713   0.92068   0.00000  Uiso   1.00
O270   O     0.95114   0.60515   0.92241   0.00000  Uiso   1.00
N271   N     0.10968   0.41920   0.50123   0.00000  Uiso   1.00
N272   N     0.22774   0.20838   0.91761   0.00000  Uiso   1.00
N273   N     0.97846   0.80790   0.91887   0.00000  Uiso   1.00
N274   N     0.15734   0.28572   0.39572   0.00000  Uiso   1.00
N275   N     0.27540   0.07490   0.81210   0.00000  Uiso   1.00
N276   N     0.02612   0.67442   0.81335   0.00000  Uiso   1.00
C277   C     0.39892   0.65691   0.71151   0.00000  Uiso   1.00
C278   C     0.38491   0.69657   0.81646   0.00000  Uiso   1.00
C279   C     0.39967   0.80427   0.84593   0.00000  Uiso   1.00
C280   C     0.38289   0.82373   0.94531   0.00000  Uiso   1.00
C281   C     0.36575   0.89831   0.09802   0.00000  Uiso   1.00
C282   C     0.35236   0.63848   0.70171   0.00000  Uiso   1.00
C283   C     0.33977   0.69733   0.63470   0.00000  Uiso   1.00
C284   C     0.29560   0.66787   0.63747   0.00000  Uiso   1.00
C285   C     0.22794   0.65220   0.61199   0.00000  Uiso   1.00
C286   C     0.42107   0.52812   0.70138   0.00000  Uiso   1.00
C287   C     0.46624   0.49416   0.63406   0.00000  Uiso   1.00
C288   C     0.47991   0.37178   0.63654   0.00000  Uiso   1.00
C289   C     0.51893   0.18475   0.61054   0.00000  Uiso   1.00
C290   C     0.34287   0.49994   0.83559   0.00000  Uiso   1.00
C291   C     0.35446   0.61130   0.88385   0.00000  Uiso   1.00
C292   C     0.33766   0.63060   0.98321   0.00000  Uiso   1.00
C293   C     0.35239   0.73831   0.01282   0.00000  Uiso   1.00
C294   C     0.32192   0.55322   0.76911   0.00000  Uiso   1.00
C295   C     0.27776   0.52366   0.77198   0.00000  Uiso   1.00
C296   C     0.26510   0.58246   0.70499   0.00000  Uiso   1.00
C297   C     0.39062   0.44285   0.76877   0.00000  Uiso   1.00
C298   C     0.40422   0.32049   0.77135   0.00000  Uiso   1.00
C299   C     0.44941   0.28636   0.70405   0.00000  Uiso   1.00
H300   H     0.42262   0.72328   0.65904   0.00000  Uiso   1.00
H301   H     0.42323   0.87023   0.79375   0.00000  Uiso   1.00
H302   H     0.36334   0.76330   0.58255   0.00000  Uiso   1.00
H303   H     0.48979   0.56016   0.58192   0.00000  Uiso   1.00
H304   H     0.41046   0.99558   0.97283   0.00000  Uiso   1.00
H305   H     0.28419   0.77007   0.52747   0.00000  Uiso   1.00
H306   H     0.55083   0.34172   0.52614   0.00000  Uiso   1.00
H307   H     0.31916   0.43355   0.88806   0.00000  Uiso   1.00
H308   H     0.31410   0.56460   0.03535   0.00000  Uiso   1.00
H309   H     0.25421   0.45767   0.82414   0.00000  Uiso   1.00
H310   H     0.38065   0.25454   0.82351   0.00000  Uiso   1.00
H311   H     0.32189   0.74752   0.16892   0.00000  Uiso   1.00
H312   H     0.19561   0.52201   0.72355   0.00000  Uiso   1.00
H313   H     0.46225   0.09366   0.72223   0.00000  Uiso   1.00
O314   O     0.36470   0.96301   0.16363   0.00000  Uiso   1.00
O315   O     0.19904   0.66713   0.57932   0.00000  Uiso   1.00
O316   O     0.54886   0.10515   0.57759   0.00000  Uiso   1.00
N317   N     0.39032   0.91920   0.99877   0.00000  Uiso   1.00
N318   N     0.27226   0.70838   0.58239   0.00000  Uiso   1.00
N319   N     0.52154   0.30790   0.58113   0.00000  Uiso   1.00
N320   N     0.34266   0.78572   0.10428   0.00000  Uiso   1.00
N321   N     0.22460   0.57490   0.68790   0.00000  Uiso   1.00
N322   N     0.47388   0.17442   0.68665   0.00000  Uiso   1.00
C323   C     0.89892   0.15691   0.71151   0.00000  Uiso   1.00
C324   C     0.88491   0.19657   0.81646   0.00000  Uiso   1.00
C325   C     0.89967   0.30427   0.84593   0.00000  Uiso   1.00
C326   C     0.88289   0.32373   0.94531   0.00000  Uiso   1.00
C327   C     0.86575   0.39831   0.09802   0.00000  Uiso   1.00
C328   C     0.85236   0.13848   0.70171   0.00000  Uiso   1.00
C329   C     0.83977   0.19733   0.63470   0.00000  Uiso   1.00
C330   C     0.79560   0.16787   0.63747   0.00000  Uiso   1.00
C331   C     0.72794   0.15220   0.61199   0.00000  Uiso   1.00
C332   C     0.92107   0.02812   0.70138   0.00000  Uiso   1.00
C333   C     0.96624   0.99416   0.63406   0.00000  Uiso   1.00
C334   C     0.97991   0.87178   0.63654   0.00000  Uiso   1.00
C335   C     0.01893   0.68475   0.61054   0.00000  Uiso   1.00
C336   C     0.84287   0.99994   0.83559   0.00000  Uiso   1.00
C337   C     0.85446   0.11130   0.88385   0.00000  Uiso   1.00
C338   C     0.83766   0.13060   0.98321   0.00000  Uiso   1.00
C339   C     0.85239   0.23831   0.01282   0.00000  Uiso   1.00
C340   C     0.82192   0.05322   0.76911   0.00000  Uiso   1.00
C341   C     0.77776   0.02366   0.77198   0.00000  Uiso   1.00
C342   C     0.76510   0.08246   0.70499   0.00000  Uiso   1.00
C343   C     0.89062   0.94285   0.76877   0.00000  Uiso   1.00
C344   C     0.90422   0.82049   0.77135   0.00000  Uiso   1.00
C345   C     0.94941   0.78636   0.70405   0.00000  Uiso   1.00
H346   H     0.92262   0.22328   0.65904   0.00000  Uiso   1.00
H347   H     0.92323   0.37023   0.79375   0.00000  Uiso   1.00
H348   H     0.86334   0.26330   0.58255   0.00000  Uiso   1.00
H349   H     0.98979   0.06016   0.58192   0.00000  Uiso   1.00
H350   H     0.91046   0.49558   0.97283   0.00000  Uiso   1.00
H351   H     0.78419   0.27007   0.52747   0.00000  Uiso   1.00
H352   H     0.05083   0.84172   0.52614   0.00000  Uiso   1.00
H353   H     0.81916   0.93355   0.88806   0.00000  Uiso   1.00
H354   H     0.81410   0.06460   0.03535   0.00000  Uiso   1.00
H355   H     0.75421   0.95767   0.82414   0.00000  Uiso   1.00
H356   H     0.88065   0.75454   0.82351   0.00000  Uiso   1.00
H357   H     0.82189   0.24752   0.16892   0.00000  Uiso   1.00
H358   H     0.69561   0.02201   0.72355   0.00000  Uiso   1.00
H359   H     0.96225   0.59366   0.72223   0.00000  Uiso   1.00
O360   O     0.86470   0.46301   0.16363   0.00000  Uiso   1.00
O361   O     0.69904   0.16713   0.57932   0.00000  Uiso   1.00
O362   O     0.04886   0.60515   0.57759   0.00000  Uiso   1.00
N363   N     0.89032   0.41920   0.99877   0.00000  Uiso   1.00
N364   N     0.77226   0.20838   0.58239   0.00000  Uiso   1.00
N365   N     0.02154   0.80790   0.58113   0.00000  Uiso   1.00
N366   N     0.84266   0.28572   0.10428   0.00000  Uiso   1.00
N367   N     0.72460   0.07490   0.68790   0.00000  Uiso   1.00
N368   N     0.97388   0.67442   0.68665   0.00000  Uiso   1.00
