data_job_06554
_audit_creation_date              2018-12-19
_audit_creation_method            'Materials Studio'
_symmetry_space_group_name_H-M    'P1'
_symmetry_Int_Tables_number       1
_symmetry_cell_setting            triclinic
loop_
_symmetry_equiv_pos_as_xyz
  x,y,z
_cell_length_a                    21.8849
_cell_length_b                    23.3519
_cell_length_c                    24.5013
_cell_angle_alpha                 118.2114
_cell_angle_beta                  84.8445
_cell_angle_gamma                 116.1315
loop_
_atom_site_label
_atom_site_type_symbol
_atom_site_fract_x
_atom_site_fract_y
_atom_site_fract_z
_atom_site_U_iso_or_equiv
_atom_site_adp_type
_atom_site_occupancy
C1     C     0.17883   0.50697   0.66304   0.00000  Uiso   1.00
C2     C     0.16534   0.50422   0.72411   0.00000  Uiso   1.00
C3     C     0.18785   0.47055   0.74579   0.00000  Uiso   1.00
C4     C     0.17014   0.47410   0.80277   0.00000  Uiso   1.00
C5     C     0.15506   0.46434   0.89241   0.00000  Uiso   1.00
C6     C     0.10831   0.47449   0.62676   0.00000  Uiso   1.00
C7     C     0.08288   0.41584   0.56659   0.00000  Uiso   1.00
C8     C     0.01715   0.39438   0.54161   0.00000  Uiso   1.00
C9     C     0.91356   0.33850   0.48010   0.00000  Uiso   1.00
C10    C     0.21385   0.58753   0.68115   0.00000  Uiso   1.00
C11    C     0.27715   0.62392   0.66670   0.00000  Uiso   1.00
C12    C     0.30027   0.69763   0.68750   0.00000  Uiso   1.00
C13    C     0.36054   0.81725   0.71044   0.00000  Uiso   1.00
C14    C     0.10734   0.57314   0.72567   0.00000  Uiso   1.00
C15    C     0.12650   0.54016   0.75813   0.00000  Uiso   1.00
C16    C     0.10875   0.54377   0.81509   0.00000  Uiso   1.00
C17    C     0.13123   0.51011   0.83685   0.00000  Uiso   1.00
C18    C     0.06947   0.51043   0.66078   0.00000  Uiso   1.00
C19    C     0.00377   0.48906   0.63589   0.00000  Uiso   1.00
C20    C     0.97825   0.43039   0.57569   0.00000  Uiso   1.00
C21    C     0.17501   0.62347   0.71518   0.00000  Uiso   1.00
C22    C     0.19804   0.69713   0.73600   0.00000  Uiso   1.00
C23    C     0.26136   0.73363   0.72158   0.00000  Uiso   1.00
H24    H     0.20907   0.47898   0.63655   0.00000  Uiso   1.00
H25    H     0.21790   0.44274   0.71945   0.00000  Uiso   1.00
H26    H     0.11295   0.38805   0.54027   0.00000  Uiso   1.00
H27    H     0.30718   0.59609   0.64037   0.00000  Uiso   1.00
H28    H     0.21055   0.41838   0.82635   0.00000  Uiso   1.00
H29    H     0.98926   0.30307   0.44854   0.00000  Uiso   1.00
H30    H     0.39884   0.74178   0.65961   0.00000  Uiso   1.00
H31    H     0.07710   0.60112   0.75216   0.00000  Uiso   1.00
H32    H     0.07870   0.57158   0.84141   0.00000  Uiso   1.00
H33    H     0.97374   0.51689   0.66223   0.00000  Uiso   1.00
H34    H     0.16798   0.72493   0.76233   0.00000  Uiso   1.00
H35    H     0.09756   0.52295   0.92534   0.00000  Uiso   1.00
H36    H     0.87627   0.40765   0.54752   0.00000  Uiso   1.00
H37    H     0.28585   0.84635   0.75860   0.00000  Uiso   1.00
O38    O     0.15747   0.44901   0.93246   0.00000  Uiso   1.00
O39    O     0.86714   0.29774   0.43678   0.00000  Uiso   1.00
O40    O     0.40451   0.87331   0.71371   0.00000  Uiso   1.00
N41    N     0.18375   0.44706   0.83741   0.00000  Uiso   1.00
N42    N     0.97685   0.33925   0.48418   0.00000  Uiso   1.00
N43    N     0.35977   0.74939   0.68150   0.00000  Uiso   1.00
N44    N     0.12296   0.50333   0.89067   0.00000  Uiso   1.00
N45    N     0.91605   0.39552   0.53744   0.00000  Uiso   1.00
N46    N     0.29897   0.80566   0.73476   0.00000  Uiso   1.00
C47    C     0.59637   0.20225   0.98121   0.00000  Uiso   1.00
C48    C     0.59075   0.16291   0.91003   0.00000  Uiso   1.00
C49    C     0.64560   0.16694   0.87636   0.00000  Uiso   1.00
C50    C     0.62970   0.12687   0.81152   0.00000  Uiso   1.00
C51    C     0.63137   0.07229   0.70555   0.00000  Uiso   1.00
C52    C     0.55729   0.24703   0.99647   0.00000  Uiso   1.00
C53    C     0.58399   0.32177   0.03548   0.00000  Uiso   1.00
C54    C     0.53991   0.35251   0.04341   0.00000  Uiso   1.00
C55    C     0.48961   0.42850   0.07167   0.00000  Uiso   1.00
C56    C     0.55490   0.14316   0.99927   0.00000  Uiso   1.00
C57    C     0.57958   0.13059   0.04065   0.00000  Uiso   1.00
C58    C     0.53349   0.07389   0.05096   0.00000  Uiso   1.00
C59    C     0.47948   0.98862   0.08357   0.00000  Uiso   1.00
C60    C     0.47062   0.12394   0.92593   0.00000  Uiso   1.00
C61    C     0.52245   0.12038   0.88000   0.00000  Uiso   1.00
C62    C     0.50647   0.08030   0.81519   0.00000  Uiso   1.00
C63    C     0.56128   0.08426   0.78143   0.00000  Uiso   1.00
C64    C     0.48898   0.20449   0.96644   0.00000  Uiso   1.00
C65    C     0.44486   0.23513   0.97432   0.00000  Uiso   1.00
C66    C     0.47149   0.30990   0.01333   0.00000  Uiso   1.00
C67    C     0.48659   0.10063   0.96924   0.00000  Uiso   1.00
C68    C     0.44045   0.04395   0.97949   0.00000  Uiso   1.00
C69    C     0.46506   0.03128   0.02088   0.00000  Uiso   1.00
H70    H     0.64955   0.23537   0.00459   0.00000  Uiso   1.00
H71    H     0.69845   0.19987   0.89961   0.00000  Uiso   1.00
H72    H     0.63684   0.35467   0.05871   0.00000  Uiso   1.00
H73    H     0.63244   0.16351   0.06388   0.00000  Uiso   1.00
H74    H     0.72255   0.14176   0.76998   0.00000  Uiso   1.00
H75    H     0.59264   0.46817   0.10547   0.00000  Uiso   1.00
H76    H     0.58336   0.06509   0.11637   0.00000  Uiso   1.00
H77    H     0.41744   0.09083   0.90256   0.00000  Uiso   1.00
H78    H     0.45360   0.04739   0.79197   0.00000  Uiso   1.00
H79    H     0.39200   0.20220   0.95108   0.00000  Uiso   1.00
H80    H     0.38760   0.01104   0.95624   0.00000  Uiso   1.00
H81    H     0.52382   0.01801   0.68261   0.00000  Uiso   1.00
H82    H     0.39392   0.34442   0.01811   0.00000  Uiso   1.00
H83    H     0.38463   0.94133   0.02901   0.00000  Uiso   1.00
O84    O     0.65116   0.05394   0.65539   0.00000  Uiso   1.00
O85    O     0.48073   0.48217   0.09555   0.00000  Uiso   1.00
O86    O     0.46855   0.95333   0.10985   0.00000  Uiso   1.00
N87    N     0.67081   0.11859   0.76459   0.00000  Uiso   1.00
N88    N     0.54936   0.42376   0.07825   0.00000  Uiso   1.00
N89    N     0.54068   0.04692   0.08845   0.00000  Uiso   1.00
N90    N     0.56388   0.05200   0.71758   0.00000  Uiso   1.00
N91    N     0.44243   0.35717   0.03124   0.00000  Uiso   1.00
N92    N     0.43375   0.98033   0.04144   0.00000  Uiso   1.00
C93    C     0.21521   0.92347   0.38937   0.00000  Uiso   1.00
C94    C     0.26868   0.99964   0.43606   0.00000  Uiso   1.00
C95    C     0.33109   0.01666   0.46405   0.00000  Uiso   1.00
C96    C     0.37283   0.08960   0.50548   0.00000  Uiso   1.00
C97    C     0.45889   0.19968   0.57604   0.00000  Uiso   1.00
C98    C     0.14835   0.91133   0.41723   0.00000  Uiso   1.00
C99    C     0.10959   0.85410   0.42938   0.00000  Uiso   1.00
C100   C     0.05003   0.85270   0.45495   0.00000  Uiso   1.00
C101   C     0.94925   0.82565   0.49624   0.00000  Uiso   1.00
C102   C     0.20333   0.92745   0.33114   0.00000  Uiso   1.00
C103   C     0.21078   0.88376   0.27088   0.00000  Uiso   1.00
C104   C     0.19750   0.89593   0.22397   0.00000  Uiso   1.00
C105   C     0.18209   0.89390   0.13158   0.00000  Uiso   1.00
C106   C     0.17836   0.02273   0.41319   0.00000  Uiso   1.00
C107   C     0.24866   0.05356   0.44900   0.00000  Uiso   1.00
C108   C     0.29032   0.12649   0.49040   0.00000  Uiso   1.00
C109   C     0.35278   0.14362   0.51844   0.00000  Uiso   1.00
C110   C     0.12834   0.96525   0.43017   0.00000  Uiso   1.00
C111   C     0.06882   0.96393   0.45573   0.00000  Uiso   1.00
C112   C     0.02998   0.90672   0.46792   0.00000  Uiso   1.00
C113   C     0.18332   0.98137   0.34408   0.00000  Uiso   1.00
C114   C     0.17002   0.99360   0.29724   0.00000  Uiso   1.00
C115   C     0.17745   0.94994   0.23693   0.00000  Uiso   1.00
H116   H     0.23079   0.88148   0.37929   0.00000  Uiso   1.00
H117   H     0.34656   0.97492   0.45402   0.00000  Uiso   1.00
H118   H     0.12508   0.81238   0.41935   0.00000  Uiso   1.00
H119   H     0.22627   0.84204   0.26089   0.00000  Uiso   1.00
H120   H     0.46608   0.10228   0.54260   0.00000  Uiso   1.00
H121   H     0.99908   0.75955   0.46947   0.00000  Uiso   1.00
H122   H     0.21244   0.82209   0.13532   0.00000  Uiso   1.00
H123   H     0.16277   0.06471   0.42326   0.00000  Uiso   1.00
H124   H     0.27482   0.16821   0.50041   0.00000  Uiso   1.00
H125   H     0.05334   0.00567   0.46574   0.00000  Uiso   1.00
H126   H     0.15453   0.03533   0.30727   0.00000  Uiso   1.00
H127   H     0.40785   0.25916   0.58025   0.00000  Uiso   1.00
H128   H     0.94084   0.91642   0.50712   0.00000  Uiso   1.00
H129   H     0.15421   0.97897   0.17297   0.00000  Uiso   1.00
O130   O     0.51188   0.24549   0.61139   0.00000  Uiso   1.00
O131   O     0.89919   0.79583   0.51544   0.00000  Uiso   1.00
O132   O     0.17913   0.87789   0.07704   0.00000  Uiso   1.00
N133   N     0.43700   0.12500   0.54086   0.00000  Uiso   1.00
N134   N     0.00039   0.80457   0.47251   0.00000  Uiso   1.00
N135   N     0.19985   0.86303   0.16009   0.00000  Uiso   1.00
N136   N     0.40567   0.20942   0.56112   0.00000  Uiso   1.00
N137   N     0.96906   0.88899   0.49276   0.00000  Uiso   1.00
N138   N     0.16852   0.94745   0.18035   0.00000  Uiso   1.00
C139   C     0.65424   0.91309   0.34470   0.00000  Uiso   1.00
C140   C     0.63895   0.83378   0.30167   0.00000  Uiso   1.00
C141   C     0.68535   0.80551   0.29243   0.00000  Uiso   1.00
C142   C     0.66137   0.73153   0.25116   0.00000  Uiso   1.00
C143   C     0.64795   0.61507   0.18907   0.00000  Uiso   1.00
C144   C     0.60153   0.91188   0.38983   0.00000  Uiso   1.00
C145   C     0.61648   0.94929   0.45471   0.00000  Uiso   1.00
C146   C     0.56099   0.94105   0.48765   0.00000  Uiso   1.00
C147   C     0.48949   0.94589   0.56242   0.00000  Uiso   1.00
C148   C     0.63650   0.93803   0.30364   0.00000  Uiso   1.00
C149   C     0.68084   0.99745   0.29607   0.00000  Uiso   1.00
C150   C     0.65479   0.01125   0.25646   0.00000  Uiso   1.00
C151   C     0.63758   0.05670   0.19742   0.00000  Uiso   1.00
C152   C     0.52913   0.83197   0.28783   0.00000  Uiso   1.00
C153   C     0.57100   0.78971   0.27078   0.00000  Uiso   1.00
C154   C     0.54694   0.71576   0.22951   0.00000  Uiso   1.00
C155   C     0.59329   0.68739   0.22022   0.00000  Uiso   1.00
C156   C     0.53358   0.86781   0.35894   0.00000  Uiso   1.00
C157   C     0.47806   0.85953   0.39179   0.00000  Uiso   1.00
C158   C     0.49292   0.89691   0.45671   0.00000  Uiso   1.00
C159   C     0.56855   0.89397   0.27275   0.00000  Uiso   1.00
C160   C     0.54242   0.90769   0.23315   0.00000  Uiso   1.00
C161   C     0.58671   0.96711   0.22552   0.00000  Uiso   1.00
H162   H     0.70714   0.94740   0.36875   0.00000  Uiso   1.00
H163   H     0.73793   0.83963   0.31635   0.00000  Uiso   1.00
H164   H     0.66907   0.98339   0.47860   0.00000  Uiso   1.00
H165   H     0.73342   0.03154   0.31998   0.00000  Uiso   1.00
H166   H     0.74210   0.70071   0.24465   0.00000  Uiso   1.00
H167   H     0.59689   0.00385   0.58676   0.00000  Uiso   1.00
H168   H     0.73259   0.10538   0.25229   0.00000  Uiso   1.00
H169   H     0.47623   0.79766   0.26379   0.00000  Uiso   1.00
H170   H     0.49435   0.68167   0.20562   0.00000  Uiso   1.00
H171   H     0.42548   0.82543   0.36787   0.00000  Uiso   1.00
H172   H     0.48983   0.87358   0.20925   0.00000  Uiso   1.00
H173   H     0.54439   0.57250   0.15478   0.00000  Uiso   1.00
H174   H     0.39919   0.87564   0.49689   0.00000  Uiso   1.00
H175   H     0.53488   0.97718   0.16242   0.00000  Uiso   1.00
O176   O     0.65932   0.56300   0.16336   0.00000  Uiso   1.00
O177   O     0.46882   0.96072   0.61220   0.00000  Uiso   1.00
O178   O     0.64686   0.09393   0.17338   0.00000  Uiso   1.00
N179   N     0.69308   0.68645   0.23147   0.00000  Uiso   1.00
N180   N     0.55732   0.96986   0.55133   0.00000  Uiso   1.00
N181   N     0.68419   0.06480   0.23863   0.00000  Uiso   1.00
N182   N     0.58670   0.61747   0.18311   0.00000  Uiso   1.00
N183   N     0.45094   0.90088   0.50297   0.00000  Uiso   1.00
N184   N     0.57780   0.99582   0.19027   0.00000  Uiso   1.00
C185   C     0.96962   0.30830   0.11887   0.00000  Uiso   1.00
C186   C     0.95538   0.34565   0.18551   0.00000  Uiso   1.00
C187   C     0.99835   0.37494   0.23992   0.00000  Uiso   1.00
C188   C     0.97607   0.40679   0.29633   0.00000  Uiso   1.00
C189   C     0.96355   0.46444   0.39952   0.00000  Uiso   1.00
C190   C     0.96556   0.34962   0.08738   0.00000  Uiso   1.00
C191   C     0.01710   0.38225   0.05927   0.00000  Uiso   1.00
C192   C     0.00338   0.41743   0.03307   0.00000  Uiso   1.00
C193   C     0.00666   0.48119   0.98387   0.00000  Uiso   1.00
C194   C     0.90843   0.23271   0.08606   0.00000  Uiso   1.00
C195   C     0.91192   0.16703   0.05683   0.00000  Uiso   1.00
C196   C     0.85011   0.10377   0.02950   0.00000  Uiso   1.00
C197   C     0.76468   0.98602   0.97826   0.00000  Uiso   1.00
C198   C     0.85363   0.31276   0.12229   0.00000  Uiso   1.00
C199   C     0.89238   0.34807   0.18737   0.00000  Uiso   1.00
C200   C     0.87002   0.37988   0.24371   0.00000  Uiso   1.00
C201   C     0.91295   0.40921   0.29819   0.00000  Uiso   1.00
C202   C     0.90256   0.35204   0.08924   0.00000  Uiso   1.00
C203   C     0.88877   0.38718   0.06306   0.00000  Uiso   1.00
C204   C     0.94027   0.41985   0.03493   0.00000  Uiso   1.00
C205   C     0.84543   0.23513   0.08792   0.00000  Uiso   1.00
C206   C     0.78359   0.17196   0.06063   0.00000  Uiso   1.00
C207   C     0.78699   0.10620   0.03137   0.00000  Uiso   1.00
H208   H     0.01867   0.30642   0.11741   0.00000  Uiso   1.00
H209   H     0.04710   0.37307   0.23846   0.00000  Uiso   1.00
H210   H     0.06584   0.38036   0.05783   0.00000  Uiso   1.00
H211   H     0.96069   0.16518   0.05540   0.00000  Uiso   1.00
H212   H     0.05086   0.44805   0.37348   0.00000  Uiso   1.00
H213   H     0.09036   0.46340   0.99261   0.00000  Uiso   1.00
H214   H     0.86862   0.00964   0.98747   0.00000  Uiso   1.00
H215   H     0.80458   0.31465   0.12374   0.00000  Uiso   1.00
H216   H     0.82126   0.38174   0.24513   0.00000  Uiso   1.00
H217   H     0.84001   0.38904   0.06451   0.00000  Uiso   1.00
H218   H     0.73485   0.17385   0.06208   0.00000  Uiso   1.00
H219   H     0.86756   0.45509   0.37890   0.00000  Uiso   1.00
H220   H     0.90707   0.47044   0.99802   0.00000  Uiso   1.00
H221   H     0.68532   0.01669   0.99289   0.00000  Uiso   1.00
O222   O     0.97406   0.49558   0.45593   0.00000  Uiso   1.00
O223   O     0.02588   0.51571   0.95623   0.00000  Uiso   1.00
O224   O     0.73497   0.92040   0.94949   0.00000  Uiso   1.00
N225   N     0.00542   0.44048   0.35809   0.00000  Uiso   1.00
N226   N     0.04236   0.45485   0.00201   0.00000  Uiso   1.00
N227   N     0.83505   0.03063   0.99719   0.00000  Uiso   1.00
N228   N     0.90679   0.44427   0.36101   0.00000  Uiso   1.00
N229   N     0.94373   0.45864   0.00493   0.00000  Uiso   1.00
N230   N     0.73642   0.03442   0.00011   0.00000  Uiso   1.00
C231   C     0.80361   0.56767   0.69579   0.00000  Uiso   1.00
C232   C     0.83248   0.60058   0.65268   0.00000  Uiso   1.00
C233   C     0.87390   0.58185   0.60809   0.00000  Uiso   1.00
C234   C     0.89499   0.61825   0.57336   0.00000  Uiso   1.00
C235   C     0.94279   0.66125   0.50495   0.00000  Uiso   1.00
C236   C     0.72573   0.53802   0.68437   0.00000  Uiso   1.00
C237   C     0.67739   0.46669   0.66643   0.00000  Uiso   1.00
C238   C     0.60861   0.45043   0.65839   0.00000  Uiso   1.00
C239   C     0.49068   0.39630   0.63922   0.00000  Uiso   1.00
C240   C     0.82780   0.63152   0.76237   0.00000  Uiso   1.00
C241   C     0.86526   0.63879   0.81003   0.00000  Uiso   1.00
C242   C     0.88240   0.70125   0.86766   0.00000  Uiso   1.00
C243   C     0.92294   0.79229   0.96961   0.00000  Uiso   1.00
C244   C     0.76742   0.66563   0.71340   0.00000  Uiso   1.00
C245   C     0.81282   0.65379   0.66225   0.00000  Uiso   1.00
C246   C     0.83386   0.69023   0.62758   0.00000  Uiso   1.00
C247   C     0.87530   0.67156   0.58294   0.00000  Uiso   1.00
C248   C     0.70607   0.59122   0.69394   0.00000  Uiso   1.00
C249   C     0.63735   0.57507   0.68592   0.00000  Uiso   1.00
C250   C     0.58892   0.50373   0.66797   0.00000  Uiso   1.00
C251   C     0.80814   0.68473   0.77194   0.00000  Uiso   1.00
C252   C     0.82522   0.74718   0.82951   0.00000  Uiso   1.00
C253   C     0.86271   0.75455   0.87725   0.00000  Uiso   1.00
H254   H     0.81891   0.52624   0.68834   0.00000  Uiso   1.00
H255   H     0.88909   0.54067   0.60069   0.00000  Uiso   1.00
H256   H     0.69262   0.42553   0.65904   0.00000  Uiso   1.00
H257   H     0.88046   0.59761   0.80261   0.00000  Uiso   1.00
H258   H     0.95822   0.58011   0.50773   0.00000  Uiso   1.00
H259   H     0.54394   0.33733   0.63077   0.00000  Uiso   1.00
H260   H     0.94004   0.70020   0.93352   0.00000  Uiso   1.00
H261   H     0.75211   0.70705   0.72085   0.00000  Uiso   1.00
H262   H     0.81864   0.73141   0.63499   0.00000  Uiso   1.00
H263   H     0.62216   0.61626   0.69333   0.00000  Uiso   1.00
H264   H     0.81000   0.78834   0.83690   0.00000  Uiso   1.00
H265   H     0.90103   0.73492   0.53556   0.00000  Uiso   1.00
H266   H     0.48675   0.49214   0.65861   0.00000  Uiso   1.00
H267   H     0.88286   0.85501   0.96135   0.00000  Uiso   1.00
O268   O     0.97457   0.67026   0.46456   0.00000  Uiso   1.00
O269   O     0.43106   0.35174   0.62600   0.00000  Uiso   1.00
O270   O     0.95074   0.82782   0.02319   0.00000  Uiso   1.00
N271   N     0.93564   0.61321   0.52607   0.00000  Uiso   1.00
N272   N     0.54832   0.38623   0.64110   0.00000  Uiso   1.00
N273   N     0.91862   0.72547   0.92414   0.00000  Uiso   1.00
N274   N     0.90487   0.69651   0.54105   0.00000  Uiso   1.00
N275   N     0.51754   0.46953   0.65608   0.00000  Uiso   1.00
N276   N     0.88785   0.80877   0.93912   0.00000  Uiso   1.00
C277   C     0.59302   0.38819   0.33253   0.00000  Uiso   1.00
C278   C     0.63076   0.39149   0.27786   0.00000  Uiso   1.00
C279   C     0.65357   0.44811   0.26399   0.00000  Uiso   1.00
C280   C     0.68702   0.44080   0.21194   0.00000  Uiso   1.00
C281   C     0.74409   0.45533   0.13266   0.00000  Uiso   1.00
C282   C     0.63552   0.37733   0.36949   0.00000  Uiso   1.00
C283   C     0.66232   0.42205   0.43268   0.00000  Uiso   1.00
C284   C     0.69977   0.40281   0.45777   0.00000  Uiso   1.00
C285   C     0.76418   0.39534   0.52077   0.00000  Uiso   1.00
C286   C     0.52571   0.31785   0.30382   0.00000  Uiso   1.00
C287   C     0.46018   0.31255   0.31179   0.00000  Uiso   1.00
C288   C     0.40518   0.24323   0.28160   0.00000  Uiso   1.00
C289   C     0.29911   0.14340   0.24262   0.00000  Uiso   1.00
C290   C     0.61187   0.27452   0.26477   0.00000  Uiso   1.00
C291   C     0.64100   0.32975   0.24105   0.00000  Uiso   1.00
C292   C     0.67442   0.32235   0.18901   0.00000  Uiso   1.00
C293   C     0.69728   0.37895   0.17507   0.00000  Uiso   1.00
C294   C     0.64575   0.31559   0.33269   0.00000  Uiso   1.00
C295   C     0.68317   0.29628   0.35770   0.00000  Uiso   1.00
C296   C     0.71002   0.34096   0.42090   0.00000  Uiso   1.00
C297   C     0.53595   0.25611   0.26701   0.00000  Uiso   1.00
C298   C     0.48104   0.18678   0.23681   0.00000  Uiso   1.00
C299   C     0.41544   0.18137   0.24473   0.00000  Uiso   1.00
H300   H     0.58505   0.43626   0.36119   0.00000  Uiso   1.00
H301   H     0.64564   0.49589   0.29249   0.00000  Uiso   1.00
H302   H     0.65438   0.46982   0.46115   0.00000  Uiso   1.00
H303   H     0.45228   0.36034   0.34027   0.00000  Uiso   1.00
H304   H     0.71735   0.53478   0.20009   0.00000  Uiso   1.00
H305   H     0.73576   0.47981   0.55573   0.00000  Uiso   1.00
H306   H     0.30959   0.24894   0.30085   0.00000  Uiso   1.00
H307   H     0.61984   0.22645   0.23611   0.00000  Uiso   1.00
H308   H     0.68234   0.27456   0.16054   0.00000  Uiso   1.00
H309   H     0.69108   0.24850   0.32921   0.00000  Uiso   1.00
H310   H     0.48898   0.13901   0.20833   0.00000  Uiso   1.00
H311   H     0.74714   0.35515   0.09300   0.00000  Uiso   1.00
H312   H     0.76554   0.30017   0.44865   0.00000  Uiso   1.00
H313   H     0.33938   0.06930   0.19376   0.00000  Uiso   1.00
O314   O     0.77275   0.48041   0.09910   0.00000  Uiso   1.00
O315   O     0.79689   0.40828   0.56569   0.00000  Uiso   1.00
O316   O     0.23777   0.10539   0.23128   0.00000  Uiso   1.00
N317   N     0.71577   0.48589   0.18525   0.00000  Uiso   1.00
N318   N     0.73299   0.43450   0.51775   0.00000  Uiso   1.00
N319   N     0.33456   0.21866   0.27947   0.00000  Uiso   1.00
N320   N     0.73180   0.38923   0.12763   0.00000  Uiso   1.00
N321   N     0.74902   0.33784   0.46013   0.00000  Uiso   1.00
N322   N     0.35059   0.12200   0.22185   0.00000  Uiso   1.00
C323   C     0.18914   0.59763   0.12182   0.00000  Uiso   1.00
C324   C     0.19472   0.63371   0.19301   0.00000  Uiso   1.00
C325   C     0.13985   0.62604   0.22666   0.00000  Uiso   1.00
C326   C     0.15571   0.66352   0.29151   0.00000  Uiso   1.00
C327   C     0.15399   0.71288   0.39748   0.00000  Uiso   1.00
C328   C     0.23048   0.55475   0.10393   0.00000  Uiso   1.00
C329   C     0.20568   0.48069   0.06268   0.00000  Uiso   1.00
C330   C     0.25165   0.45170   0.05253   0.00000  Uiso   1.00
C331   C     0.30545   0.37848   0.02016   0.00000  Uiso   1.00
C332   C     0.22839   0.65941   0.10643   0.00000  Uiso   1.00
C333   C     0.20185   0.67334   0.06727   0.00000  Uiso   1.00
C334   C     0.24606   0.73246   0.05922   0.00000  Uiso   1.00
C335   C     0.29663   0.82174   0.03074   0.00000  Uiso   1.00
C336   C     0.31488   0.67784   0.17715   0.00000  Uiso   1.00
C337   C     0.26302   0.67727   0.22306   0.00000  Uiso   1.00
C338   C     0.27897   0.71478   0.28787   0.00000  Uiso   1.00
C339   C     0.22413   0.70717   0.32161   0.00000  Uiso   1.00
C340   C     0.29877   0.59831   0.13398   0.00000  Uiso   1.00
C341   C     0.34479   0.56943   0.12389   0.00000  Uiso   1.00
C342   C     0.32007   0.49535   0.08263   0.00000  Uiso   1.00
C343   C     0.29669   0.70297   0.13649   0.00000  Uiso   1.00
C344   C     0.34096   0.76208   0.12849   0.00000  Uiso   1.00
C345   C     0.31448   0.77610   0.08932   0.00000  Uiso   1.00
H346   H     0.13597   0.56371   0.09842   0.00000  Uiso   1.00
H347   H     0.08701   0.59231   0.20339   0.00000  Uiso   1.00
H348   H     0.15283   0.44699   0.03942   0.00000  Uiso   1.00
H349   H     0.14899   0.63961   0.04402   0.00000  Uiso   1.00
H350   H     0.06284   0.64322   0.33301   0.00000  Uiso   1.00
H351   H     0.20163   0.33680   0.98727   0.00000  Uiso   1.00
H352   H     0.19354   0.74298   0.99697   0.00000  Uiso   1.00
H353   H     0.36805   0.71176   0.20054   0.00000  Uiso   1.00
H354   H     0.33182   0.74849   0.31111   0.00000  Uiso   1.00
H355   H     0.39764   0.60316   0.14715   0.00000  Uiso   1.00
H356   H     0.39381   0.79578   0.15175   0.00000  Uiso   1.00
H357   H     0.26154   0.76997   0.42045   0.00000  Uiso   1.00
H358   H     0.40033   0.46355   0.07470   0.00000  Uiso   1.00
H359   H     0.39224   0.86973   0.08440   0.00000  Uiso   1.00
O360   O     0.13417   0.72806   0.44762   0.00000  Uiso   1.00
O361   O     0.31626   0.32605   0.99401   0.00000  Uiso   1.00
O362   O     0.30565   0.85896   0.00674   0.00000  Uiso   1.00
N363   N     0.11458   0.66802   0.33842   0.00000  Uiso   1.00
N364   N     0.24433   0.38153   0.01517   0.00000  Uiso   1.00
N365   N     0.23678   0.76126   0.02423   0.00000  Uiso   1.00
N366   N     0.22149   0.73623   0.38546   0.00000  Uiso   1.00
N367   N     0.35125   0.44974   0.06222   0.00000  Uiso   1.00
N368   N     0.34370   0.82947   0.07127   0.00000  Uiso   1.00
C369   C     0.55635   0.84389   0.64056   0.00000  Uiso   1.00
C370   C     0.50281   0.76499   0.60060   0.00000  Uiso   1.00
C371   C     0.44098   0.74233   0.56761   0.00000  Uiso   1.00
C372   C     0.39907   0.66771   0.53383   0.00000  Uiso   1.00
C373   C     0.31302   0.55281   0.47185   0.00000  Uiso   1.00
C374   C     0.62357   0.84980   0.61453   0.00000  Uiso   1.00
C375   C     0.66327   0.89847   0.59328   0.00000  Uiso   1.00
C376   C     0.72301   0.89526   0.57124   0.00000  Uiso   1.00
C377   C     0.82446   0.91207   0.53095   0.00000  Uiso   1.00
C378   C     0.56702   0.85368   0.70565   0.00000  Uiso   1.00
C379   C     0.55919   0.90562   0.76101   0.00000  Uiso   1.00
C380   C     0.57133   0.90568   0.81570   0.00000  Uiso   1.00
C381   C     0.58498   0.92851   0.91688   0.00000  Uiso   1.00
C382   C     0.59187   0.75166   0.63925   0.00000  Uiso   1.00
C383   C     0.52211   0.71489   0.59988   0.00000  Uiso   1.00
C384   C     0.48027   0.64029   0.56615   0.00000  Uiso   1.00
C385   C     0.41839   0.61753   0.53312   0.00000  Uiso   1.00
C386   C     0.64286   0.79971   0.61382   0.00000  Uiso   1.00
C387   C     0.70256   0.79643   0.59182   0.00000  Uiso   1.00
C388   C     0.74234   0.84507   0.57053   0.00000  Uiso   1.00
C389   C     0.58631   0.80359   0.70494   0.00000  Uiso   1.00
C390   C     0.59847   0.80357   0.75955   0.00000  Uiso   1.00
C391   C     0.59066   0.85549   0.81498   0.00000  Uiso   1.00
H392   H     0.54134   0.88289   0.64112   0.00000  Uiso   1.00
H393   H     0.42607   0.78111   0.56817   0.00000  Uiso   1.00
H394   H     0.64833   0.93723   0.59384   0.00000  Uiso   1.00
H395   H     0.54426   0.94437   0.76155   0.00000  Uiso   1.00
H396   H     0.30680   0.64618   0.48695   0.00000  Uiso   1.00
H397   H     0.77545   0.97538   0.54111   0.00000  Uiso   1.00
H398   H     0.55600   0.99044   0.89475   0.00000  Uiso   1.00
H399   H     0.60689   0.71266   0.63869   0.00000  Uiso   1.00
H400   H     0.49522   0.60154   0.56560   0.00000  Uiso   1.00
H401   H     0.71747   0.75766   0.59127   0.00000  Uiso   1.00
H402   H     0.61340   0.76480   0.75898   0.00000  Uiso   1.00
H403   H     0.36292   0.50043   0.48487   0.00000  Uiso   1.00
H404   H     0.83157   0.82964   0.53902   0.00000  Uiso   1.00
H405   H     0.61212   0.84469   0.89266   0.00000  Uiso   1.00
O406   O     0.26023   0.50328   0.43786   0.00000  Uiso   1.00
O407   O     0.87508   0.93519   0.50892   0.00000  Uiso   1.00
O408   O     0.58716   0.95494   0.97289   0.00000  Uiso   1.00
N409   N     0.33533   0.62713   0.49650   0.00000  Uiso   1.00
N410   N     0.77348   0.93491   0.54712   0.00000  Uiso   1.00
N411   N     0.56833   0.94900   0.87775   0.00000  Uiso   1.00
N412   N     0.36552   0.54870   0.49538   0.00000  Uiso   1.00
N413   N     0.80368   0.85648   0.54600   0.00000  Uiso   1.00
N414   N     0.59853   0.87057   0.87663   0.00000  Uiso   1.00
C415   C     0.12693   0.89586   0.76496   0.00000  Uiso   1.00
C416   C     0.14486   0.97621   0.80617   0.00000  Uiso   1.00
C417   C     0.10057   0.00667   0.81416   0.00000  Uiso   1.00
C418   C     0.12680   0.08127   0.85385   0.00000  Uiso   1.00
C419   C     0.14429   0.19957   0.91317   0.00000  Uiso   1.00
C420   C     0.17932   0.89332   0.71953   0.00000  Uiso   1.00
C421   C     0.16400   0.85408   0.65466   0.00000  Uiso   1.00
C422   C     0.21924   0.85890   0.62141   0.00000  Uiso   1.00
C423   C     0.29023   0.84847   0.54621   0.00000  Uiso   1.00
C424   C     0.14251   0.87171   0.80774   0.00000  Uiso   1.00
C425   C     0.09624   0.81430   0.81704   0.00000  Uiso   1.00
C426   C     0.12049   0.80092   0.85805   0.00000  Uiso   1.00
C427   C     0.13432   0.75694   0.91981   0.00000  Uiso   1.00
C428   C     0.25227   0.97416   0.82124   0.00000  Uiso   1.00
C429   C     0.21294   0.01874   0.83674   0.00000  Uiso   1.00
C430   C     0.23925   0.09331   0.87643   0.00000  Uiso   1.00
C431   C     0.19500   0.12388   0.88448   0.00000  Uiso   1.00
C432   C     0.24740   0.93585   0.75009   0.00000  Uiso   1.00
C433   C     0.30268   0.94072   0.71693   0.00000  Uiso   1.00
C434   C     0.28745   0.90151   0.65203   0.00000  Uiso   1.00
C435   C     0.21059   0.91425   0.83831   0.00000  Uiso   1.00
C436   C     0.23492   0.90094   0.87931   0.00000  Uiso   1.00
C437   C     0.18869   0.84353   0.88867   0.00000  Uiso   1.00
H438   H     0.07393   0.86275   0.74115   0.00000  Uiso   1.00
H439   H     0.04788   0.97374   0.79049   0.00000  Uiso   1.00
H440   H     0.11131   0.82117   0.63102   0.00000  Uiso   1.00
H441   H     0.04356   0.78140   0.79337   0.00000  Uiso   1.00
H442   H     0.04904   0.11556   0.85865   0.00000  Uiso   1.00
H443   H     0.18277   0.79384   0.52239   0.00000  Uiso   1.00
H444   H     0.03991   0.70997   0.86475   0.00000  Uiso   1.00
H445   H     0.30528   0.00728   0.84504   0.00000  Uiso   1.00
H446   H     0.29194   0.12621   0.90008   0.00000  Uiso   1.00
H447   H     0.35536   0.97363   0.74061   0.00000  Uiso   1.00
H448   H     0.28761   0.93387   0.90296   0.00000  Uiso   1.00
H449   H     0.24713   0.23931   0.94760   0.00000  Uiso   1.00
H450   H     0.38086   0.91758   0.61134   0.00000  Uiso   1.00
H451   H     0.23799   0.83372   0.95369   0.00000  Uiso   1.00
O452   O     0.13514   0.25307   0.93744   0.00000  Uiso   1.00
O453   O     0.31058   0.83097   0.49628   0.00000  Uiso   1.00
O454   O     0.12315   0.72094   0.94545   0.00000  Uiso   1.00
N455   N     0.09749   0.12836   0.87204   0.00000  Uiso   1.00
N456   N     0.22252   0.82758   0.55766   0.00000  Uiso   1.00
N457   N     0.08896   0.74916   0.87772   0.00000  Uiso   1.00
N458   N     0.20408   0.19495   0.91990   0.00000  Uiso   1.00
N459   N     0.32911   0.89417   0.60552   0.00000  Uiso   1.00
N460   N     0.19554   0.81575   0.92558   0.00000  Uiso   1.00
C461   C     0.59956   0.60158   0.01225   0.00000  Uiso   1.00
C462   C     0.53997   0.55966   0.95921   0.00000  Uiso   1.00
C463   C     0.47127   0.52065   0.96182   0.00000  Uiso   1.00
C464   C     0.42458   0.48605   0.90832   0.00000  Uiso   1.00
C465   C     0.32880   0.42027   0.83418   0.00000  Uiso   1.00
C466   C     0.65070   0.57081   0.98588   0.00000  Uiso   1.00
C467   C     0.67511   0.54120   0.01093   0.00000  Uiso   1.00
C468   C     0.72165   0.51600   0.97987   0.00000  Uiso   1.00
C469   C     0.79783   0.46760   0.94718   0.00000  Uiso   1.00
C470   C     0.63492   0.67968   0.02334   0.00000  Uiso   1.00
C471   C     0.64609   0.74161   0.07989   0.00000  Uiso   1.00
C472   C     0.67935   0.80808   0.08039   0.00000  Uiso   1.00
C473   C     0.73103   0.92871   0.10586   0.00000  Uiso   1.00
C474   C     0.63882   0.60950   0.91256   0.00000  Uiso   1.00
C475   C     0.56129   0.56396   0.90506   0.00000  Uiso   1.00
C476   C     0.51470   0.52942   0.85154   0.00000  Uiso   1.00
C477   C     0.44594   0.49036   0.85407   0.00000  Uiso   1.00
C478   C     0.67202   0.57512   0.93173   0.00000  Uiso   1.00
C479   C     0.71854   0.54997   0.90064   0.00000  Uiso   1.00
C480   C     0.74301   0.52031   0.92563   0.00000  Uiso   1.00
C481   C     0.65624   0.68399   0.96920   0.00000  Uiso   1.00
C482   C     0.68951   0.75037   0.96960   0.00000  Uiso   1.00
C483   C     0.70072   0.81239   0.02614   0.00000  Uiso   1.00
H484   H     0.58297   0.59822   0.05440   0.00000  Uiso   1.00
H485   H     0.45479   0.51732   0.00373   0.00000  Uiso   1.00
H486   H     0.65861   0.53788   0.05283   0.00000  Uiso   1.00
H487   H     0.62958   0.73825   0.12178   0.00000  Uiso   1.00
H488   H     0.32208   0.42951   0.92367   0.00000  Uiso   1.00
H489   H     0.75187   0.47287   0.02721   0.00000  Uiso   1.00
H490   H     0.69066   0.89541   0.17262   0.00000  Uiso   1.00
H491   H     0.65542   0.61285   0.87041   0.00000  Uiso   1.00
H492   H     0.53121   0.53276   0.80964   0.00000  Uiso   1.00
H493   H     0.73503   0.55331   0.85874   0.00000  Uiso   1.00
H494   H     0.70600   0.75369   0.92770   0.00000  Uiso   1.00
H495   H     0.38411   0.44203   0.76614   0.00000  Uiso   1.00
H496   H     0.81390   0.48540   0.86969   0.00000  Uiso   1.00
H497   H     0.75268   0.90793   0.01509   0.00000  Uiso   1.00
O498   O     0.27008   0.38279   0.80825   0.00000  Uiso   1.00
O499   O     0.83396   0.43970   0.94410   0.00000  Uiso   1.00
O500   O     0.75364   0.99405   0.13486   0.00000  Uiso   1.00
N501   N     0.35372   0.44346   0.89494   0.00000  Uiso   1.00
N502   N     0.75554   0.48399   0.99174   0.00000  Uiso   1.00
N503   N     0.69833   0.87903   0.12768   0.00000  Uiso   1.00
N504   N     0.38710   0.45020   0.81018   0.00000  Uiso   1.00
N505   N     0.78892   0.49073   0.90697   0.00000  Uiso   1.00
N506   N     0.73170   0.88577   0.04292   0.00000  Uiso   1.00
C507   C     0.98821   0.17913   0.33779   0.00000  Uiso   1.00
C508   C     0.95331   0.14050   0.37583   0.00000  Uiso   1.00
C509   C     0.90485   0.15248   0.41436   0.00000  Uiso   1.00
C510   C     0.87907   0.11164   0.44517   0.00000  Uiso   1.00
C511   C     0.82158   0.05945   0.50540   0.00000  Uiso   1.00
C512   C     0.06540   0.21345   0.35810   0.00000  Uiso   1.00
C513   C     0.11118   0.28676   0.38171   0.00000  Uiso   1.00
C514   C     0.17976   0.30733   0.39758   0.00000  Uiso   1.00
C515   C     0.29630   0.36839   0.43024   0.00000  Uiso   1.00
C516   C     0.97359   0.11913   0.26999   0.00000  Uiso   1.00
C517   C     0.94218   0.11314   0.21951   0.00000  Uiso   1.00
C518   C     0.93347   0.05430   0.16119   0.00000  Uiso   1.00
C519   C     0.90745   0.96891   0.05704   0.00000  Uiso   1.00
C520   C     0.02860   0.08530   0.32398   0.00000  Uiso   1.00
C521   C     0.97525   0.08954   0.36833   0.00000  Uiso   1.00
C522   C     0.94954   0.04867   0.39908   0.00000  Uiso   1.00
C523   C     0.90105   0.06058   0.43765   0.00000  Uiso   1.00
C524   C     0.08734   0.16250   0.35060   0.00000  Uiso   1.00
C525   C     0.15587   0.18296   0.36643   0.00000  Uiso   1.00
C526   C     0.20174   0.25628   0.39007   0.00000  Uiso   1.00
C527   C     0.99552   0.06817   0.26248   0.00000  Uiso   1.00
C528   C     0.98686   0.00933   0.20423   0.00000  Uiso   1.00
C529   C     0.95545   0.00325   0.15368   0.00000  Uiso   1.00
H530   H     0.97113   0.21881   0.34363   0.00000  Uiso   1.00
H531   H     0.88789   0.19193   0.42016   0.00000  Uiso   1.00
H532   H     0.09419   0.32619   0.38750   0.00000  Uiso   1.00
H533   H     0.92521   0.15259   0.22533   0.00000  Uiso   1.00
H534   H     0.80530   0.13967   0.50171   0.00000  Uiso   1.00
H535   H     0.24030   0.42276   0.43284   0.00000  Uiso   1.00
H536   H     0.88398   0.05670   0.09086   0.00000  Uiso   1.00
H537   H     0.04568   0.04563   0.31814   0.00000  Uiso   1.00
H538   H     0.96653   0.00924   0.39327   0.00000  Uiso   1.00
H539   H     0.17283   0.14350   0.36062   0.00000  Uiso   1.00
H540   H     0.00385   0.96991   0.19845   0.00000  Uiso   1.00
H541   H     0.86913   0.99140   0.47989   0.00000  Uiso   1.00
H542   H     0.30413   0.27449   0.41102   0.00000  Uiso   1.00
H543   H     0.94780   0.90843   0.06904   0.00000  Uiso   1.00
O544   O     0.78382   0.04475   0.54070   0.00000  Uiso   1.00
O545   O     0.35452   0.41614   0.45034   0.00000  Uiso   1.00
O546   O     0.88703   0.93588   0.00167   0.00000  Uiso   1.00
N547   N     0.83118   0.10976   0.48625   0.00000  Uiso   1.00
N548   N     0.23787   0.37443   0.42188   0.00000  Uiso   1.00
N549   N     0.90475   0.03221   0.10215   0.00000  Uiso   1.00
N550   N     0.86552   0.02997   0.47451   0.00000  Uiso   1.00
N551   N     0.27221   0.29465   0.41014   0.00000  Uiso   1.00
N552   N     0.93910   0.95242   0.09041   0.00000  Uiso   1.00
