data_job_06073
_audit_creation_date              2018-12-19
_audit_creation_method            'Materials Studio'
_symmetry_space_group_name_H-M    'P1'
_symmetry_Int_Tables_number       1
_symmetry_cell_setting            triclinic
loop_
_symmetry_equiv_pos_as_xyz
  x,y,z
_cell_length_a                    12.8406
_cell_length_b                    17.5510
_cell_length_c                    17.8846
_cell_angle_alpha                 114.2060
_cell_angle_beta                  75.9749
_cell_angle_gamma                 77.9472
loop_
_atom_site_label
_atom_site_type_symbol
_atom_site_fract_x
_atom_site_fract_y
_atom_site_fract_z
_atom_site_U_iso_or_equiv
_atom_site_adp_type
_atom_site_occupancy
C1     C     0.84767   0.12081   0.48311   0.00000  Uiso   1.00
C2     C     0.78526   0.12761   0.42235   0.00000  Uiso   1.00
C3     C     0.72146   0.07586   0.39102   0.00000  Uiso   1.00
C4     C     0.67106   0.09234   0.33616   0.00000  Uiso   1.00
C5     C     0.57222   0.09285   0.24524   0.00000  Uiso   1.00
C6     C     0.97251   0.10440   0.43522   0.00000  Uiso   1.00
C7     C     0.06614   0.03314   0.41471   0.00000  Uiso   1.00
C8     C     0.17336   0.03010   0.37068   0.00000  Uiso   1.00
C9     C     0.36523   0.99460   0.29979   0.00000  Uiso   1.00
C10    C     0.80167   0.21354   0.56316   0.00000  Uiso   1.00
C11    C     0.75168   0.23405   0.65024   0.00000  Uiso   1.00
C12    C     0.71510   0.32290   0.71393   0.00000  Uiso   1.00
C13    C     0.64172   0.45686   0.84168   0.00000  Uiso   1.00
C14    C     0.87162   0.24210   0.44139   0.00000  Uiso   1.00
C15    C     0.79828   0.19349   0.39970   0.00000  Uiso   1.00
C16    C     0.74795   0.21006   0.34487   0.00000  Uiso   1.00
C17    C     0.68408   0.15834   0.31346   0.00000  Uiso   1.00
C18    C     0.98552   0.17027   0.41256   0.00000  Uiso   1.00
C19    C     0.09263   0.16734   0.36856   0.00000  Uiso   1.00
C20    C     0.18640   0.09609   0.34799   0.00000  Uiso   1.00
C21    C     0.81468   0.27942   0.54050   0.00000  Uiso   1.00
C22    C     0.77817   0.36825   0.60408   0.00000  Uiso   1.00
C23    C     0.72813   0.38889   0.69123   0.00000  Uiso   1.00
H24    H     0.83755   0.06952   0.50075   0.00000  Uiso   1.00
H25    H     0.71142   0.02488   0.40857   0.00000  Uiso   1.00
H26    H     0.05604   0.98217   0.43226   0.00000  Uiso   1.00
H27    H     0.74163   0.18305   0.66774   0.00000  Uiso   1.00
H28    H     0.57735   0.00442   0.29635   0.00000  Uiso   1.00
H29    H     0.30401   0.91439   0.34634   0.00000  Uiso   1.00
H30    H     0.64102   0.33798   0.84290   0.00000  Uiso   1.00
H31    H     0.88175   0.29339   0.42375   0.00000  Uiso   1.00
H32    H     0.75804   0.26104   0.32735   0.00000  Uiso   1.00
H33    H     0.10267   0.21833   0.35104   0.00000  Uiso   1.00
H34    H     0.78826   0.41921   0.58652   0.00000  Uiso   1.00
H35    H     0.61519   0.19609   0.23043   0.00000  Uiso   1.00
H36    H     0.34186   0.10607   0.28041   0.00000  Uiso   1.00
H37    H     0.67886   0.52966   0.77697   0.00000  Uiso   1.00
O38    O     0.51412   0.07491   0.20134   0.00000  Uiso   1.00
O39    O     0.46747   0.95681   0.26693   0.00000  Uiso   1.00
O40    O     0.59763   0.51255   0.91840   0.00000  Uiso   1.00
N41    N     0.60321   0.05398   0.29408   0.00000  Uiso   1.00
N42    N     0.28260   0.96980   0.34080   0.00000  Uiso   1.00
N43    N     0.66278   0.36582   0.80505   0.00000  Uiso   1.00
N44    N     0.62357   0.15712   0.25861   0.00000  Uiso   1.00
N45    N     0.30296   0.07294   0.30533   0.00000  Uiso   1.00
N46    N     0.68314   0.46896   0.76957   0.00000  Uiso   1.00
C47    C     0.33264   0.51622   0.63927   0.00000  Uiso   1.00
C48    C     0.21129   0.57412   0.70582   0.00000  Uiso   1.00
C49    C     0.11768   0.60335   0.68618   0.00000  Uiso   1.00
C50    C     0.01394   0.65576   0.75639   0.00000  Uiso   1.00
C51    C     0.82699   0.74231   0.84656   0.00000  Uiso   1.00
C52    C     0.40943   0.56805   0.66976   0.00000  Uiso   1.00
C53    C     0.48243   0.59215   0.61978   0.00000  Uiso   1.00
C54    C     0.54550   0.63944   0.65962   0.00000  Uiso   1.00
C55    C     0.66624   0.71651   0.69376   0.00000  Uiso   1.00
C56    C     0.36501   0.43467   0.65161   0.00000  Uiso   1.00
C57    C     0.40071   0.34661   0.58637   0.00000  Uiso   1.00
C58    C     0.42641   0.28160   0.61093   0.00000  Uiso   1.00
C59    C     0.47818   0.15157   0.61689   0.00000  Uiso   1.00
C60    C     0.31485   0.55733   0.79888   0.00000  Uiso   1.00
C61    C     0.20163   0.59645   0.79252   0.00000  Uiso   1.00
C62    C     0.09800   0.64883   0.86278   0.00000  Uiso   1.00
C63    C     0.00426   0.67812   0.84324   0.00000  Uiso   1.00
C64    C     0.39977   0.59038   0.75645   0.00000  Uiso   1.00
C65    C     0.46275   0.63764   0.79637   0.00000  Uiso   1.00
C66    C     0.53582   0.66181   0.74647   0.00000  Uiso   1.00
C67    C     0.35535   0.45699   0.73830   0.00000  Uiso   1.00
C68    C     0.38101   0.39210   0.76296   0.00000  Uiso   1.00
C69    C     0.41673   0.30397   0.69778   0.00000  Uiso   1.00
H70    H     0.34017   0.49884   0.57177   0.00000  Uiso   1.00
H71    H     0.12520   0.58606   0.61908   0.00000  Uiso   1.00
H72    H     0.48990   0.57486   0.55269   0.00000  Uiso   1.00
H73    H     0.40817   0.32936   0.51929   0.00000  Uiso   1.00
H74    H     0.88261   0.69263   0.70977   0.00000  Uiso   1.00
H75    H     0.65164   0.66899   0.56976   0.00000  Uiso   1.00
H76    H     0.47931   0.15131   0.49932   0.00000  Uiso   1.00
H77    H     0.30733   0.57472   0.86638   0.00000  Uiso   1.00
H78    H     0.09055   0.66610   0.92986   0.00000  Uiso   1.00
H79    H     0.45525   0.65490   0.86346   0.00000  Uiso   1.00
H80    H     0.37352   0.40941   0.83006   0.00000  Uiso   1.00
H81    H     0.85449   0.75760   0.96201   0.00000  Uiso   1.00
H82    H     0.62352   0.73396   0.82200   0.00000  Uiso   1.00
H83    H     0.45118   0.21628   0.75156   0.00000  Uiso   1.00
O84    O     0.72655   0.78389   0.87234   0.00000  Uiso   1.00
O85    O     0.73549   0.75285   0.68864   0.00000  Uiso   1.00
O86    O     0.50939   0.07367   0.59623   0.00000  Uiso   1.00
N87    N     0.90574   0.69537   0.76043   0.00000  Uiso   1.00
N88    N     0.62472   0.67328   0.62953   0.00000  Uiso   1.00
N89    N     0.46363   0.18929   0.56367   0.00000  Uiso   1.00
N90    N     0.89061   0.73032   0.89615   0.00000  Uiso   1.00
N91    N     0.60958   0.70823   0.76525   0.00000  Uiso   1.00
N92    N     0.44850   0.22425   0.69939   0.00000  Uiso   1.00
C93    C     0.97382   0.35688   0.87509   0.00000  Uiso   1.00
C94    C     0.91854   0.28636   0.86688   0.00000  Uiso   1.00
C95    C     0.80646   0.30232   0.91514   0.00000  Uiso   1.00
C96    C     0.77223   0.22885   0.89789   0.00000  Uiso   1.00
C97    C     0.67497   0.13247   0.89479   0.00000  Uiso   1.00
C98    C     0.07945   0.32894   0.89560   0.00000  Uiso   1.00
C99    C     0.10266   0.38071   0.96799   0.00000  Uiso   1.00
C100   C     0.20390   0.34308   0.97491   0.00000  Uiso   1.00
C101   C     0.35649   0.31283   0.01636   0.00000  Uiso   1.00
C102   C     0.01840   0.34645   0.78302   0.00000  Uiso   1.00
C103   C     0.99030   0.41296   0.76076   0.00000  Uiso   1.00
C104   C     0.04015   0.39008   0.67289   0.00000  Uiso   1.00
C105   C     0.09794   0.38703   0.53955   0.00000  Uiso   1.00
C106   C     0.11235   0.19800   0.75866   0.00000  Uiso   1.00
C107   C     0.99379   0.20006   0.80364   0.00000  Uiso   1.00
C108   C     0.95972   0.12654   0.78631   0.00000  Uiso   1.00
C109   C     0.84760   0.14239   0.83453   0.00000  Uiso   1.00
C110   C     0.15469   0.24264   0.83236   0.00000  Uiso   1.00
C111   C     0.25592   0.20493   0.83917   0.00000  Uiso   1.00
C112   C     0.27927   0.25662   0.91156   0.00000  Uiso   1.00
C113   C     0.09364   0.26016   0.71977   0.00000  Uiso   1.00
C114   C     0.14355   0.23717   0.63193   0.00000  Uiso   1.00
C115   C     0.11553   0.30363   0.60954   0.00000  Uiso   1.00
H116   H     0.91525   0.42406   0.92433   0.00000  Uiso   1.00
H117   H     0.74826   0.36912   0.96408   0.00000  Uiso   1.00
H118   H     0.04443   0.44749   0.01692   0.00000  Uiso   1.00
H119   H     0.93207   0.47973   0.80971   0.00000  Uiso   1.00
H120   H     0.59632   0.27014   0.98028   0.00000  Uiso   1.00
H121   H     0.22081   0.43541   0.09168   0.00000  Uiso   1.00
H122   H     0.98390   0.50340   0.65474   0.00000  Uiso   1.00
H123   H     0.17093   0.13081   0.70942   0.00000  Uiso   1.00
H124   H     0.01797   0.05977   0.73737   0.00000  Uiso   1.00
H125   H     0.31413   0.13814   0.79021   0.00000  Uiso   1.00
H126   H     0.20177   0.17038   0.58301   0.00000  Uiso   1.00
H127   H     0.81522   0.01905   0.79627   0.00000  Uiso   1.00
H128   H     0.43972   0.18433   0.90767   0.00000  Uiso   1.00
H129   H     0.20280   0.25232   0.47074   0.00000  Uiso   1.00
O130   O     0.60055   0.10315   0.91056   0.00000  Uiso   1.00
O131   O     0.41987   0.31999   0.05671   0.00000  Uiso   1.00
O132   O     0.10903   0.40919   0.48346   0.00000  Uiso   1.00
N133   N     0.66882   0.22080   0.93312   0.00000  Uiso   1.00
N134   N     0.25268   0.37531   0.03728   0.00000  Uiso   1.00
N135   N     0.03120   0.43888   0.62879   0.00000  Uiso   1.00
N136   N     0.78661   0.08569   0.83411   0.00000  Uiso   1.00
N137   N     0.37047   0.24020   0.93827   0.00000  Uiso   1.00
N138   N     0.14899   0.30378   0.52978   0.00000  Uiso   1.00
C139   C     0.15233   0.87919   0.51689   0.00000  Uiso   1.00
C140   C     0.21474   0.87239   0.57764   0.00000  Uiso   1.00
C141   C     0.27854   0.92414   0.60897   0.00000  Uiso   1.00
C142   C     0.32894   0.90766   0.66384   0.00000  Uiso   1.00
C143   C     0.42778   0.90715   0.75476   0.00000  Uiso   1.00
C144   C     0.02749   0.89560   0.56478   0.00000  Uiso   1.00
C145   C     0.93386   0.96686   0.58529   0.00000  Uiso   1.00
C146   C     0.82664   0.96990   0.62932   0.00000  Uiso   1.00
C147   C     0.63477   0.00540   0.70021   0.00000  Uiso   1.00
C148   C     0.19833   0.78646   0.43684   0.00000  Uiso   1.00
C149   C     0.24832   0.76595   0.34976   0.00000  Uiso   1.00
C150   C     0.28490   0.67710   0.28607   0.00000  Uiso   1.00
C151   C     0.35828   0.54314   0.15832   0.00000  Uiso   1.00
C152   C     0.12838   0.75790   0.55861   0.00000  Uiso   1.00
C153   C     0.20172   0.80651   0.60030   0.00000  Uiso   1.00
C154   C     0.25205   0.78994   0.65513   0.00000  Uiso   1.00
C155   C     0.31592   0.84165   0.68654   0.00000  Uiso   1.00
C156   C     0.01448   0.82973   0.58744   0.00000  Uiso   1.00
C157   C     0.90737   0.83266   0.63144   0.00000  Uiso   1.00
C158   C     0.81360   0.90391   0.65201   0.00000  Uiso   1.00
C159   C     0.18532   0.72058   0.45950   0.00000  Uiso   1.00
C160   C     0.22183   0.63175   0.39592   0.00000  Uiso   1.00
C161   C     0.27187   0.61110   0.30877   0.00000  Uiso   1.00
H162   H     0.16245   0.93048   0.49925   0.00000  Uiso   1.00
H163   H     0.28858   0.97512   0.59143   0.00000  Uiso   1.00
H164   H     0.94396   0.01783   0.56774   0.00000  Uiso   1.00
H165   H     0.25837   0.81695   0.33226   0.00000  Uiso   1.00
H166   H     0.42265   0.99558   0.70365   0.00000  Uiso   1.00
H167   H     0.69599   0.08561   0.65366   0.00000  Uiso   1.00
H168   H     0.35899   0.66202   0.15710   0.00000  Uiso   1.00
H169   H     0.11825   0.70661   0.57625   0.00000  Uiso   1.00
H170   H     0.24196   0.73896   0.67265   0.00000  Uiso   1.00
H171   H     0.89733   0.78167   0.64896   0.00000  Uiso   1.00
H172   H     0.21174   0.58079   0.41348   0.00000  Uiso   1.00
H173   H     0.38481   0.80391   0.76957   0.00000  Uiso   1.00
H174   H     0.65814   0.89393   0.71959   0.00000  Uiso   1.00
H175   H     0.32114   0.47034   0.22303   0.00000  Uiso   1.00
O176   O     0.48588   0.92509   0.79866   0.00000  Uiso   1.00
O177   O     0.53253   0.04319   0.73307   0.00000  Uiso   1.00
O178   O     0.40237   0.48745   0.08160   0.00000  Uiso   1.00
N179   N     0.39679   0.94602   0.70592   0.00000  Uiso   1.00
N180   N     0.71740   0.03020   0.65920   0.00000  Uiso   1.00
N181   N     0.33722   0.63418   0.19495   0.00000  Uiso   1.00
N182   N     0.37643   0.84288   0.74139   0.00000  Uiso   1.00
N183   N     0.69704   0.92706   0.69467   0.00000  Uiso   1.00
N184   N     0.31686   0.53104   0.23043   0.00000  Uiso   1.00
C185   C     0.66736   0.48378   0.36073   0.00000  Uiso   1.00
C186   C     0.78872   0.42588   0.29418   0.00000  Uiso   1.00
C187   C     0.88232   0.39665   0.31381   0.00000  Uiso   1.00
C188   C     0.98606   0.34424   0.24361   0.00000  Uiso   1.00
C189   C     0.17301   0.25769   0.15344   0.00000  Uiso   1.00
C190   C     0.59057   0.43195   0.33024   0.00000  Uiso   1.00
C191   C     0.51757   0.40784   0.38022   0.00000  Uiso   1.00
C192   C     0.45450   0.36056   0.34038   0.00000  Uiso   1.00
C193   C     0.33376   0.28349   0.30624   0.00000  Uiso   1.00
C194   C     0.63499   0.56533   0.34839   0.00000  Uiso   1.00
C195   C     0.59929   0.65338   0.41363   0.00000  Uiso   1.00
C196   C     0.57359   0.71840   0.38907   0.00000  Uiso   1.00
C197   C     0.52182   0.84843   0.38311   0.00000  Uiso   1.00
C198   C     0.68515   0.44267   0.20112   0.00000  Uiso   1.00
C199   C     0.79837   0.40355   0.20748   0.00000  Uiso   1.00
C200   C     0.90200   0.35117   0.13722   0.00000  Uiso   1.00
C201   C     0.99574   0.32188   0.15676   0.00000  Uiso   1.00
C202   C     0.60023   0.40962   0.24355   0.00000  Uiso   1.00
C203   C     0.53725   0.36236   0.20363   0.00000  Uiso   1.00
C204   C     0.46418   0.33819   0.25353   0.00000  Uiso   1.00
C205   C     0.64465   0.54300   0.26170   0.00000  Uiso   1.00
C206   C     0.61899   0.60790   0.23704   0.00000  Uiso   1.00
C207   C     0.58327   0.69603   0.30222   0.00000  Uiso   1.00
H208   H     0.65983   0.50116   0.42823   0.00000  Uiso   1.00
H209   H     0.87480   0.41394   0.38092   0.00000  Uiso   1.00
H210   H     0.51010   0.42514   0.44731   0.00000  Uiso   1.00
H211   H     0.59183   0.67064   0.48071   0.00000  Uiso   1.00
H212   H     0.11739   0.30737   0.29023   0.00000  Uiso   1.00
H213   H     0.34837   0.33101   0.43023   0.00000  Uiso   1.00
H214   H     0.52069   0.84869   0.50068   0.00000  Uiso   1.00
H215   H     0.69267   0.42528   0.13362   0.00000  Uiso   1.00
H216   H     0.90945   0.33390   0.07014   0.00000  Uiso   1.00
H217   H     0.54475   0.34510   0.13654   0.00000  Uiso   1.00
H218   H     0.62648   0.59059   0.16994   0.00000  Uiso   1.00
H219   H     0.14551   0.24240   0.03799   0.00000  Uiso   1.00
H220   H     0.37648   0.26604   0.17800   0.00000  Uiso   1.00
H221   H     0.54882   0.78372   0.24844   0.00000  Uiso   1.00
O222   O     0.27345   0.21611   0.12766   0.00000  Uiso   1.00
O223   O     0.26451   0.24715   0.31136   0.00000  Uiso   1.00
O224   O     0.49061   0.92633   0.40377   0.00000  Uiso   1.00
N225   N     0.09426   0.30463   0.23957   0.00000  Uiso   1.00
N226   N     0.37528   0.32672   0.37047   0.00000  Uiso   1.00
N227   N     0.53637   0.81071   0.43633   0.00000  Uiso   1.00
N228   N     0.10939   0.26967   0.10385   0.00000  Uiso   1.00
N229   N     0.39042   0.29177   0.23475   0.00000  Uiso   1.00
N230   N     0.55150   0.77575   0.30061   0.00000  Uiso   1.00
C231   C     0.02618   0.64312   0.12491   0.00000  Uiso   1.00
C232   C     0.08146   0.71364   0.13312   0.00000  Uiso   1.00
C233   C     0.19354   0.69768   0.08486   0.00000  Uiso   1.00
C234   C     0.22777   0.77115   0.10211   0.00000  Uiso   1.00
C235   C     0.32503   0.86753   0.10521   0.00000  Uiso   1.00
C236   C     0.92055   0.67106   0.10440   0.00000  Uiso   1.00
C237   C     0.89734   0.61929   0.03201   0.00000  Uiso   1.00
C238   C     0.79610   0.65692   0.02509   0.00000  Uiso   1.00
C239   C     0.64351   0.68717   0.98364   0.00000  Uiso   1.00
C240   C     0.98160   0.65355   0.21698   0.00000  Uiso   1.00
C241   C     0.00970   0.58704   0.23924   0.00000  Uiso   1.00
C242   C     0.95985   0.60992   0.32711   0.00000  Uiso   1.00
C243   C     0.90206   0.61297   0.46045   0.00000  Uiso   1.00
C244   C     0.88765   0.80200   0.24134   0.00000  Uiso   1.00
C245   C     0.00621   0.79994   0.19636   0.00000  Uiso   1.00
C246   C     0.04028   0.87346   0.21369   0.00000  Uiso   1.00
C247   C     0.15240   0.85761   0.16547   0.00000  Uiso   1.00
C248   C     0.84531   0.75736   0.16764   0.00000  Uiso   1.00
C249   C     0.74408   0.79507   0.16083   0.00000  Uiso   1.00
C250   C     0.72073   0.74338   0.08844   0.00000  Uiso   1.00
C251   C     0.90636   0.73984   0.28023   0.00000  Uiso   1.00
C252   C     0.85645   0.76283   0.36807   0.00000  Uiso   1.00
C253   C     0.88447   0.69637   0.39046   0.00000  Uiso   1.00
H254   H     0.08475   0.57594   0.07566   0.00000  Uiso   1.00
H255   H     0.25174   0.63088   0.03592   0.00000  Uiso   1.00
H256   H     0.95558   0.55251   0.98308   0.00000  Uiso   1.00
H257   H     0.06793   0.52027   0.19028   0.00000  Uiso   1.00
H258   H     0.40368   0.72986   0.01972   0.00000  Uiso   1.00
H259   H     0.77919   0.56459   0.90832   0.00000  Uiso   1.00
H260   H     0.01610   0.49660   0.34525   0.00000  Uiso   1.00
H261   H     0.82907   0.86919   0.29058   0.00000  Uiso   1.00
H262   H     0.98203   0.94023   0.26263   0.00000  Uiso   1.00
H263   H     0.68587   0.86186   0.20979   0.00000  Uiso   1.00
H264   H     0.79823   0.82962   0.41699   0.00000  Uiso   1.00
H265   H     0.18478   0.98094   0.20373   0.00000  Uiso   1.00
H266   H     0.56028   0.81567   0.09233   0.00000  Uiso   1.00
H267   H     0.79720   0.74768   0.52926   0.00000  Uiso   1.00
O268   O     0.39945   0.89685   0.08944   0.00000  Uiso   1.00
O269   O     0.58013   0.68001   0.94329   0.00000  Uiso   1.00
O270   O     0.89097   0.59081   0.51654   0.00000  Uiso   1.00
N271   N     0.33118   0.77920   0.06688   0.00000  Uiso   1.00
N272   N     0.74732   0.62469   0.96271   0.00000  Uiso   1.00
N273   N     0.96880   0.56112   0.37121   0.00000  Uiso   1.00
N274   N     0.21339   0.91431   0.16589   0.00000  Uiso   1.00
N275   N     0.62953   0.75980   0.06173   0.00000  Uiso   1.00
N276   N     0.85101   0.69622   0.47022   0.00000  Uiso   1.00
