data_job_06019
_audit_creation_date              2018-12-19
_audit_creation_method            'Materials Studio'
_symmetry_space_group_name_H-M    'P1'
_symmetry_Int_Tables_number       1
_symmetry_cell_setting            triclinic
loop_
_symmetry_equiv_pos_as_xyz
  x,y,z
_cell_length_a                    12.5100
_cell_length_b                    19.1008
_cell_length_c                    19.1686
_cell_angle_alpha                 63.2600
_cell_angle_beta                  80.2500
_cell_angle_gamma                 99.7183
loop_
_atom_site_label
_atom_site_type_symbol
_atom_site_fract_x
_atom_site_fract_y
_atom_site_fract_z
_atom_site_U_iso_or_equiv
_atom_site_adp_type
_atom_site_occupancy
C1     C     0.73303   0.43355   0.65036   0.00000  Uiso   1.00
C2     C     0.60841   0.39131   0.67010   0.00000  Uiso   1.00
C3     C     0.55584   0.37893   0.61677   0.00000  Uiso   1.00
C4     C     0.44114   0.33905   0.64650   0.00000  Uiso   1.00
C5     C     0.25673   0.27752   0.66495   0.00000  Uiso   1.00
C6     C     0.73628   0.50329   0.66918   0.00000  Uiso   1.00
C7     C     0.79123   0.58507   0.61508   0.00000  Uiso   1.00
C8     C     0.78417   0.63944   0.64403   0.00000  Uiso   1.00
C9     C     0.79835   0.75177   0.66107   0.00000  Uiso   1.00
C10    C     0.77887   0.37260   0.71295   0.00000  Uiso   1.00
C11    C     0.86965   0.34450   0.69565   0.00000  Uiso   1.00
C12    C     0.89846   0.28886   0.76146   0.00000  Uiso   1.00
C13    C     0.97876   0.19826   0.84646   0.00000  Uiso   1.00
C14    C     0.62281   0.38472   0.79798   0.00000  Uiso   1.00
C15    C     0.54855   0.36479   0.75028   0.00000  Uiso   1.00
C16    C     0.43389   0.32490   0.78010   0.00000  Uiso   1.00
C17    C     0.38116   0.31247   0.72683   0.00000  Uiso   1.00
C18    C     0.67641   0.47677   0.74936   0.00000  Uiso   1.00
C19    C     0.66928   0.53104   0.77840   0.00000  Uiso   1.00
C20    C     0.72420   0.61287   0.72436   0.00000  Uiso   1.00
C21    C     0.71900   0.34607   0.79313   0.00000  Uiso   1.00
C22    C     0.74769   0.29047   0.85898   0.00000  Uiso   1.00
C23    C     0.83848   0.26229   0.84179   0.00000  Uiso   1.00
H24    H     0.77965   0.45421   0.58793   0.00000  Uiso   1.00
H25    H     0.60220   0.39948   0.55472   0.00000  Uiso   1.00
H26    H     0.83756   0.60558   0.55303   0.00000  Uiso   1.00
H27    H     0.91596   0.36505   0.63360   0.00000  Uiso   1.00
H28    H     0.37906   0.32713   0.55326   0.00000  Uiso   1.00
H29    H     0.87536   0.76169   0.54970   0.00000  Uiso   1.00
H30    H     0.04068   0.25449   0.71959   0.00000  Uiso   1.00
H31    H     0.57620   0.36407   0.86040   0.00000  Uiso   1.00
H32    H     0.38758   0.30438   0.84215   0.00000  Uiso   1.00
H33    H     0.62295   0.51049   0.84046   0.00000  Uiso   1.00
H34    H     0.70134   0.26995   0.92102   0.00000  Uiso   1.00
H35    H     0.20487   0.24995   0.78655   0.00000  Uiso   1.00
H36    H     0.70118   0.68451   0.78299   0.00000  Uiso   1.00
H37    H     0.86648   0.17731   0.95287   0.00000  Uiso   1.00
O38    O     0.17156   0.25093   0.65297   0.00000  Uiso   1.00
O39    O     0.82270   0.82106   0.64831   0.00000  Uiso   1.00
O40    O     0.03958   0.15561   0.87119   0.00000  Uiso   1.00
N41    N     0.36396   0.31714   0.61067   0.00000  Uiso   1.00
N42    N     0.82795   0.72343   0.60734   0.00000  Uiso   1.00
N43    N     0.98253   0.24926   0.76617   0.00000  Uiso   1.00
N44    N     0.27022   0.27561   0.73620   0.00000  Uiso   1.00
N45    N     0.73422   0.68190   0.73287   0.00000  Uiso   1.00
N46    N     0.88879   0.20773   0.89170   0.00000  Uiso   1.00
C47    C     0.31882   0.91534   0.43785   0.00000  Uiso   1.00
C48    C     0.23146   0.93955   0.39156   0.00000  Uiso   1.00
C49    C     0.19007   0.00630   0.37732   0.00000  Uiso   1.00
C50    C     0.11050   0.01798   0.33374   0.00000  Uiso   1.00
C51    C     0.98040   0.06365   0.26621   0.00000  Uiso   1.00
C52    C     0.26391   0.82774   0.50637   0.00000  Uiso   1.00
C53    C     0.24983   0.80048   0.58866   0.00000  Uiso   1.00
C54    C     0.19759   0.71803   0.64172   0.00000  Uiso   1.00
C55    C     0.11796   0.59009   0.75243   0.00000  Uiso   1.00
C56    C     0.41467   0.91159   0.37993   0.00000  Uiso   1.00
C57    C     0.52735   0.95481   0.35592   0.00000  Uiso   1.00
C58    C     0.60204   0.94294   0.30254   0.00000  Uiso   1.00
C59    C     0.75648   0.94520   0.21693   0.00000  Uiso   1.00
C60    C     0.25110   0.81738   0.38576   0.00000  Uiso   1.00
C61    C     0.19468   0.88634   0.36327   0.00000  Uiso   1.00
C62    C     0.11515   0.89792   0.31970   0.00000  Uiso   1.00
C63    C     0.07365   0.96468   0.30539   0.00000  Uiso   1.00
C64    C     0.22713   0.77453   0.47808   0.00000  Uiso   1.00
C65    C     0.17491   0.69210   0.53104   0.00000  Uiso   1.00
C66    C     0.16074   0.66472   0.61338   0.00000  Uiso   1.00
C67    C     0.37789   0.85838   0.35164   0.00000  Uiso   1.00
C68    C     0.45243   0.84643   0.29829   0.00000  Uiso   1.00
C69    C     0.56520   0.88964   0.27421   0.00000  Uiso   1.00
H70    H     0.34745   0.95676   0.45988   0.00000  Uiso   1.00
H71    H     0.21855   0.04746   0.39923   0.00000  Uiso   1.00
H72    H     0.27831   0.84167   0.61053   0.00000  Uiso   1.00
H73    H     0.55578   0.99598   0.37782   0.00000  Uiso   1.00
H74    H     0.05938   0.12454   0.31954   0.00000  Uiso   1.00
H75    H     0.18543   0.69061   0.76508   0.00000  Uiso   1.00
H76    H     0.77054   0.01601   0.27438   0.00000  Uiso   1.00
H77    H     0.22247   0.77595   0.36374   0.00000  Uiso   1.00
H78    H     0.08670   0.85674   0.29781   0.00000  Uiso   1.00
H79    H     0.14646   0.65094   0.50912   0.00000  Uiso   1.00
H80    H     0.42393   0.80526   0.27641   0.00000  Uiso   1.00
H81    H     0.95237   0.96974   0.23724   0.00000  Uiso   1.00
H82    H     0.07842   0.53581   0.68278   0.00000  Uiso   1.00
H83    H     0.66352   0.86121   0.19207   0.00000  Uiso   1.00
O84    O     0.91879   0.10353   0.23678   0.00000  Uiso   1.00
O85    O     0.08419   0.53423   0.82131   0.00000  Uiso   1.00
O86    O     0.85182   0.96115   0.17752   0.00000  Uiso   1.00
N87    N     0.05284   0.07703   0.30920   0.00000  Uiso   1.00
N88    N     0.17068   0.67133   0.72576   0.00000  Uiso   1.00
N89    N     0.71771   0.97554   0.26701   0.00000  Uiso   1.00
N90    N     0.99526   0.99374   0.26492   0.00000  Uiso   1.00
N91    N     0.11310   0.58804   0.68147   0.00000  Uiso   1.00
N92    N     0.66012   0.89224   0.22272   0.00000  Uiso   1.00
C93    C     0.41170   0.64584   0.91701   0.00000  Uiso   1.00
C94    C     0.30562   0.67020   0.93729   0.00000  Uiso   1.00
C95    C     0.20931   0.61961   0.00111   0.00000  Uiso   1.00
C96    C     0.12132   0.65344   0.00941   0.00000  Uiso   1.00
C97    C     0.95534   0.67885   0.04904   0.00000  Uiso   1.00
C98    C     0.43068   0.66435   0.82902   0.00000  Uiso   1.00
C99    C     0.43954   0.60885   0.80181   0.00000  Uiso   1.00
C100   C     0.45685   0.63776   0.71896   0.00000  Uiso   1.00
C101   C     0.48512   0.65411   0.59049   0.00000  Uiso   1.00
C102   C     0.50909   0.70579   0.91704   0.00000  Uiso   1.00
C103   C     0.58389   0.68512   0.96382   0.00000  Uiso   1.00
C104   C     0.66724   0.74892   0.95507   0.00000  Uiso   1.00
C105   C     0.81724   0.82960   0.96326   0.00000  Uiso   1.00
C106   C     0.42672   0.79588   0.81826   0.00000  Uiso   1.00
C107   C     0.31378   0.75170   0.88365   0.00000  Uiso   1.00
C108   C     0.22592   0.78561   0.89186   0.00000  Uiso   1.00
C109   C     0.12949   0.73508   0.95568   0.00000  Uiso   1.00
C110   C     0.43884   0.74585   0.77539   0.00000  Uiso   1.00
C111   C     0.45615   0.77485   0.69256   0.00000  Uiso   1.00
C112   C     0.46502   0.71940   0.66523   0.00000  Uiso   1.00
C113   C     0.51724   0.78729   0.86341   0.00000  Uiso   1.00
C114   C     0.60050   0.85112   0.85457   0.00000  Uiso   1.00
C115   C     0.67541   0.83056   0.90133   0.00000  Uiso   1.00
H116   H     0.40535   0.58239   0.95876   0.00000  Uiso   1.00
H117   H     0.20302   0.55654   0.04260   0.00000  Uiso   1.00
H118   H     0.43324   0.54579   0.84333   0.00000  Uiso   1.00
H119   H     0.57756   0.62205   0.00532   0.00000  Uiso   1.00
H120   H     0.98228   0.56382   0.11188   0.00000  Uiso   1.00
H121   H     0.46773   0.54114   0.69171   0.00000  Uiso   1.00
H122   H     0.77207   0.70196   0.03329   0.00000  Uiso   1.00
H123   H     0.43307   0.85933   0.77650   0.00000  Uiso   1.00
H124   H     0.23225   0.84868   0.85034   0.00000  Uiso   1.00
H125   H     0.46246   0.83792   0.65107   0.00000  Uiso   1.00
H126   H     0.60678   0.91418   0.81306   0.00000  Uiso   1.00
H127   H     0.00600   0.80092   0.95583   0.00000  Uiso   1.00
H128   H     0.49146   0.77824   0.53566   0.00000  Uiso   1.00
H129   H     0.79579   0.93906   0.87724   0.00000  Uiso   1.00
O130   O     0.86153   0.67036   0.08570   0.00000  Uiso   1.00
O131   O     0.49844   0.64061   0.53445   0.00000  Uiso   1.00
O132   O     0.89771   0.85159   0.98260   0.00000  Uiso   1.00
N133   N     0.01543   0.62109   0.06503   0.00000  Uiso   1.00
N134   N     0.46928   0.59988   0.67219   0.00000  Uiso   1.00
N135   N     0.75383   0.75023   0.99153   0.00000  Uiso   1.00
N136   N     0.02820   0.74867   0.98106   0.00000  Uiso   1.00
N137   N     0.48205   0.72747   0.58823   0.00000  Uiso   1.00
N138   N     0.76659   0.87781   0.90756   0.00000  Uiso   1.00
C139   C     0.26697   0.56645   0.34964   0.00000  Uiso   1.00
C140   C     0.39159   0.60869   0.32990   0.00000  Uiso   1.00
C141   C     0.44416   0.62107   0.38323   0.00000  Uiso   1.00
C142   C     0.55886   0.66095   0.35350   0.00000  Uiso   1.00
C143   C     0.74327   0.72248   0.33505   0.00000  Uiso   1.00
C144   C     0.26372   0.49671   0.33082   0.00000  Uiso   1.00
C145   C     0.20877   0.41493   0.38492   0.00000  Uiso   1.00
C146   C     0.21583   0.36056   0.35597   0.00000  Uiso   1.00
C147   C     0.20165   0.24823   0.33893   0.00000  Uiso   1.00
C148   C     0.22113   0.62740   0.28705   0.00000  Uiso   1.00
C149   C     0.13035   0.65550   0.30435   0.00000  Uiso   1.00
C150   C     0.10154   0.71114   0.23853   0.00000  Uiso   1.00
C151   C     0.02124   0.80173   0.15354   0.00000  Uiso   1.00
C152   C     0.37719   0.61528   0.20202   0.00000  Uiso   1.00
C153   C     0.45145   0.63521   0.24972   0.00000  Uiso   1.00
C154   C     0.56611   0.67510   0.21990   0.00000  Uiso   1.00
C155   C     0.61884   0.68753   0.27317   0.00000  Uiso   1.00
C156   C     0.32359   0.52323   0.25064   0.00000  Uiso   1.00
C157   C     0.33072   0.46896   0.22160   0.00000  Uiso   1.00
C158   C     0.27580   0.38713   0.27564   0.00000  Uiso   1.00
C159   C     0.28100   0.65393   0.20687   0.00000  Uiso   1.00
C160   C     0.25231   0.70953   0.14102   0.00000  Uiso   1.00
C161   C     0.16152   0.73771   0.15821   0.00000  Uiso   1.00
H162   H     0.22035   0.54579   0.41207   0.00000  Uiso   1.00
H163   H     0.39780   0.60052   0.44528   0.00000  Uiso   1.00
H164   H     0.16244   0.39442   0.44697   0.00000  Uiso   1.00
H165   H     0.08404   0.63495   0.36640   0.00000  Uiso   1.00
H166   H     0.62093   0.67287   0.44674   0.00000  Uiso   1.00
H167   H     0.12464   0.23831   0.45030   0.00000  Uiso   1.00
H168   H     0.95932   0.74551   0.28041   0.00000  Uiso   1.00
H169   H     0.42380   0.63593   0.13960   0.00000  Uiso   1.00
H170   H     0.61242   0.69562   0.15785   0.00000  Uiso   1.00
H171   H     0.37705   0.48951   0.15954   0.00000  Uiso   1.00
H172   H     0.29866   0.73005   0.07898   0.00000  Uiso   1.00
H173   H     0.79513   0.75005   0.21345   0.00000  Uiso   1.00
H174   H     0.29882   0.31549   0.21701   0.00000  Uiso   1.00
H175   H     0.13352   0.82269   0.04712   0.00000  Uiso   1.00
O176   O     0.82844   0.74907   0.34703   0.00000  Uiso   1.00
O177   O     0.17730   0.17894   0.35169   0.00000  Uiso   1.00
O178   O     0.96042   0.84439   0.12881   0.00000  Uiso   1.00
N179   N     0.63604   0.68286   0.38932   0.00000  Uiso   1.00
N180   N     0.17205   0.27657   0.39266   0.00000  Uiso   1.00
N181   N     0.01747   0.75074   0.23383   0.00000  Uiso   1.00
N182   N     0.72978   0.72439   0.26379   0.00000  Uiso   1.00
N183   N     0.26578   0.31810   0.26713   0.00000  Uiso   1.00
N184   N     0.11121   0.79227   0.10830   0.00000  Uiso   1.00
C185   C     0.68118   0.08466   0.56215   0.00000  Uiso   1.00
C186   C     0.76854   0.06045   0.60844   0.00000  Uiso   1.00
C187   C     0.80993   0.99370   0.62268   0.00000  Uiso   1.00
C188   C     0.88950   0.98202   0.66626   0.00000  Uiso   1.00
C189   C     0.01960   0.93635   0.73379   0.00000  Uiso   1.00
C190   C     0.73608   0.17226   0.49363   0.00000  Uiso   1.00
C191   C     0.75017   0.19952   0.41134   0.00000  Uiso   1.00
C192   C     0.80241   0.28197   0.35828   0.00000  Uiso   1.00
C193   C     0.88204   0.40991   0.24757   0.00000  Uiso   1.00
C194   C     0.58533   0.08841   0.62007   0.00000  Uiso   1.00
C195   C     0.47265   0.04519   0.64408   0.00000  Uiso   1.00
C196   C     0.39796   0.05706   0.69746   0.00000  Uiso   1.00
C197   C     0.24352   0.05480   0.78307   0.00000  Uiso   1.00
C198   C     0.74890   0.18262   0.61424   0.00000  Uiso   1.00
C199   C     0.80532   0.11366   0.63673   0.00000  Uiso   1.00
C200   C     0.88485   0.10208   0.68030   0.00000  Uiso   1.00
C201   C     0.92635   0.03532   0.69460   0.00000  Uiso   1.00
C202   C     0.77287   0.22547   0.52192   0.00000  Uiso   1.00
C203   C     0.82509   0.30790   0.46896   0.00000  Uiso   1.00
C204   C     0.83925   0.33528   0.38661   0.00000  Uiso   1.00
C205   C     0.62211   0.14162   0.64836   0.00000  Uiso   1.00
C206   C     0.54757   0.15357   0.70170   0.00000  Uiso   1.00
C207   C     0.43480   0.11036   0.72579   0.00000  Uiso   1.00
H208   H     0.65255   0.04324   0.54012   0.00000  Uiso   1.00
H209   H     0.78145   0.95254   0.60077   0.00000  Uiso   1.00
H210   H     0.72169   0.15833   0.38947   0.00000  Uiso   1.00
H211   H     0.44422   0.00402   0.62217   0.00000  Uiso   1.00
H212   H     0.94062   0.87546   0.68046   0.00000  Uiso   1.00
H213   H     0.81457   0.30939   0.23492   0.00000  Uiso   1.00
H214   H     0.22946   0.98399   0.72562   0.00000  Uiso   1.00
H215   H     0.77753   0.22405   0.63626   0.00000  Uiso   1.00
H216   H     0.91330   0.14326   0.70219   0.00000  Uiso   1.00
H217   H     0.85353   0.34906   0.49088   0.00000  Uiso   1.00
H218   H     0.57607   0.19474   0.72358   0.00000  Uiso   1.00
H219   H     0.04763   0.03026   0.76276   0.00000  Uiso   1.00
H220   H     0.92158   0.46419   0.31722   0.00000  Uiso   1.00
H221   H     0.33648   0.13879   0.80793   0.00000  Uiso   1.00
O222   O     0.08121   0.89647   0.76322   0.00000  Uiso   1.00
O223   O     0.91581   0.46577   0.17869   0.00000  Uiso   1.00
O224   O     0.14818   0.03885   0.82248   0.00000  Uiso   1.00
N225   N     0.94715   0.92297   0.69079   0.00000  Uiso   1.00
N226   N     0.82932   0.32867   0.27424   0.00000  Uiso   1.00
N227   N     0.28229   0.02446   0.73299   0.00000  Uiso   1.00
N228   N     0.00474   0.00626   0.73508   0.00000  Uiso   1.00
N229   N     0.88690   0.41196   0.31853   0.00000  Uiso   1.00
N230   N     0.33988   0.10776   0.77728   0.00000  Uiso   1.00
C231   C     0.58830   0.35416   0.08299   0.00000  Uiso   1.00
C232   C     0.69438   0.32980   0.06271   0.00000  Uiso   1.00
C233   C     0.79069   0.38039   0.99889   0.00000  Uiso   1.00
C234   C     0.87868   0.34656   0.99059   0.00000  Uiso   1.00
C235   C     0.04466   0.32115   0.95096   0.00000  Uiso   1.00
C236   C     0.56932   0.33565   0.17098   0.00000  Uiso   1.00
C237   C     0.56046   0.39115   0.19819   0.00000  Uiso   1.00
C238   C     0.54315   0.36224   0.28103   0.00000  Uiso   1.00
C239   C     0.51488   0.34589   0.40951   0.00000  Uiso   1.00
C240   C     0.49091   0.29421   0.08296   0.00000  Uiso   1.00
C241   C     0.41611   0.31488   0.03618   0.00000  Uiso   1.00
C242   C     0.33276   0.25108   0.04493   0.00000  Uiso   1.00
C243   C     0.18276   0.17040   0.03674   0.00000  Uiso   1.00
C244   C     0.57328   0.20412   0.18173   0.00000  Uiso   1.00
C245   C     0.68622   0.24830   0.11635   0.00000  Uiso   1.00
C246   C     0.77408   0.21439   0.10814   0.00000  Uiso   1.00
C247   C     0.87051   0.26492   0.04432   0.00000  Uiso   1.00
C248   C     0.56116   0.25415   0.22461   0.00000  Uiso   1.00
C249   C     0.54385   0.22515   0.30744   0.00000  Uiso   1.00
C250   C     0.53498   0.28060   0.33477   0.00000  Uiso   1.00
C251   C     0.48275   0.21271   0.13659   0.00000  Uiso   1.00
C252   C     0.39950   0.14888   0.14543   0.00000  Uiso   1.00
C253   C     0.32459   0.16944   0.09867   0.00000  Uiso   1.00
H254   H     0.59465   0.41761   0.04124   0.00000  Uiso   1.00
H255   H     0.79698   0.44346   0.95740   0.00000  Uiso   1.00
H256   H     0.56676   0.45421   0.15667   0.00000  Uiso   1.00
H257   H     0.42244   0.37795   0.99468   0.00000  Uiso   1.00
H258   H     0.01772   0.43618   0.88812   0.00000  Uiso   1.00
H259   H     0.53226   0.45886   0.30829   0.00000  Uiso   1.00
H260   H     0.22793   0.29804   0.96671   0.00000  Uiso   1.00
H261   H     0.56693   0.14067   0.22350   0.00000  Uiso   1.00
H262   H     0.76775   0.15132   0.14966   0.00000  Uiso   1.00
H263   H     0.53754   0.16208   0.34893   0.00000  Uiso   1.00
H264   H     0.39322   0.08582   0.18694   0.00000  Uiso   1.00
H265   H     0.99400   0.19908   0.04417   0.00000  Uiso   1.00
H266   H     0.50854   0.22176   0.46434   0.00000  Uiso   1.00
H267   H     0.20421   0.06094   0.12276   0.00000  Uiso   1.00
O268   O     0.13847   0.32964   0.91430   0.00000  Uiso   1.00
O269   O     0.50156   0.35939   0.46555   0.00000  Uiso   1.00
O270   O     0.10229   0.14841   0.01740   0.00000  Uiso   1.00
N271   N     0.98456   0.37891   0.93497   0.00000  Uiso   1.00
N272   N     0.53071   0.40012   0.32781   0.00000  Uiso   1.00
N273   N     0.24617   0.24977   0.00847   0.00000  Uiso   1.00
N274   N     0.97180   0.25133   0.01894   0.00000  Uiso   1.00
N275   N     0.51795   0.27253   0.41177   0.00000  Uiso   1.00
N276   N     0.23341   0.12219   0.09244   0.00000  Uiso   1.00
