data_job_05139
_audit_creation_date              2018-12-19
_audit_creation_method            'Materials Studio'
_symmetry_space_group_name_H-M    'P1'
_symmetry_Int_Tables_number       1
_symmetry_cell_setting            triclinic
loop_
_symmetry_equiv_pos_as_xyz
  x,y,z
_cell_length_a                    21.0612
_cell_length_b                    12.9330
_cell_length_c                    12.3438
_cell_angle_alpha                 90.0000
_cell_angle_beta                  84.3802
_cell_angle_gamma                 90.0000
loop_
_atom_site_label
_atom_site_type_symbol
_atom_site_fract_x
_atom_site_fract_y
_atom_site_fract_z
_atom_site_U_iso_or_equiv
_atom_site_adp_type
_atom_site_occupancy
C1     C     0.29606   0.69237   0.40501   0.00000  Uiso   1.00
C2     C     0.33828   0.75306   0.31998   0.00000  Uiso   1.00
C3     C     0.36554   0.71470   0.22118   0.00000  Uiso   1.00
C4     C     0.40264   0.78254   0.15473   0.00000  Uiso   1.00
C5     C     0.46679   0.86116   0.01797   0.00000  Uiso   1.00
C6     C     0.32796   0.70038   0.51039   0.00000  Uiso   1.00
C7     C     0.34654   0.61773   0.57169   0.00000  Uiso   1.00
C8     C     0.37494   0.64124   0.66553   0.00000  Uiso   1.00
C9     C     0.42302   0.63808   0.82442   0.00000  Uiso   1.00
C10    C     0.23387   0.75299   0.42417   0.00000  Uiso   1.00
C11    C     0.17333   0.71456   0.41302   0.00000  Uiso   1.00
C12    C     0.12252   0.78235   0.43430   0.00000  Uiso   1.00
C13    C     0.02451   0.86086   0.45933   0.00000  Uiso   1.00
C14    C     0.31347   0.88107   0.46267   0.00000  Uiso   1.00
C15    C     0.34774   0.85555   0.35131   0.00000  Uiso   1.00
C16    C     0.38480   0.92347   0.28499   0.00000  Uiso   1.00
C17    C     0.41211   0.88521   0.18611   0.00000  Uiso   1.00
C18    C     0.33742   0.80287   0.54171   0.00000  Uiso   1.00
C19    C     0.36579   0.82650   0.63549   0.00000  Uiso   1.00
C20    C     0.38441   0.74391   0.69691   0.00000  Uiso   1.00
C21    C     0.24333   0.85548   0.45550   0.00000  Uiso   1.00
C22    C     0.19259   0.92333   0.47681   0.00000  Uiso   1.00
C23    C     0.13199   0.88502   0.46568   0.00000  Uiso   1.00
H24    H     0.28870   0.61258   0.38063   0.00000  Uiso   1.00
H25    H     0.35822   0.63537   0.19698   0.00000  Uiso   1.00
H26    H     0.33921   0.53843   0.54743   0.00000  Uiso   1.00
H27    H     0.16604   0.63524   0.38878   0.00000  Uiso   1.00
H28    H     0.43949   0.70583   0.00720   0.00000  Uiso   1.00
H29    H     0.39938   0.50142   0.74617   0.00000  Uiso   1.00
H30    H     0.03421   0.70557   0.41162   0.00000  Uiso   1.00
H31    H     0.32083   0.96087   0.48706   0.00000  Uiso   1.00
H32    H     0.39211   0.00278   0.30925   0.00000  Uiso   1.00
H33    H     0.37310   0.90583   0.65971   0.00000  Uiso   1.00
H34    H     0.19993   0.00264   0.50105   0.00000  Uiso   1.00
H35    H     0.46699   0.00403   0.09832   0.00000  Uiso   1.00
H36    H     0.42688   0.79961   0.83730   0.00000  Uiso   1.00
H37    H     0.06172   0.00377   0.50274   0.00000  Uiso   1.00
O38    O     0.49957   0.87621   0.93389   0.00000  Uiso   1.00
O39    O     0.44693   0.60802   0.90340   0.00000  Uiso   1.00
O40    O     0.96785   0.87586   0.46446   0.00000  Uiso   1.00
N41    N     0.43617   0.77027   0.05304   0.00000  Uiso   1.00
N42    N     0.39868   0.57915   0.74393   0.00000  Uiso   1.00
N43    N     0.05727   0.77001   0.43117   0.00000  Uiso   1.00
N44    N     0.45097   0.93073   0.10207   0.00000  Uiso   1.00
N45    N     0.41348   0.73961   0.79296   0.00000  Uiso   1.00
N46    N     0.07207   0.93047   0.48021   0.00000  Uiso   1.00
C47    C     0.70394   0.69237   0.09499   0.00000  Uiso   1.00
C48    C     0.66172   0.75306   0.18002   0.00000  Uiso   1.00
C49    C     0.63446   0.71470   0.27882   0.00000  Uiso   1.00
C50    C     0.59736   0.78254   0.34527   0.00000  Uiso   1.00
C51    C     0.53321   0.86116   0.48203   0.00000  Uiso   1.00
C52    C     0.67204   0.70038   0.98961   0.00000  Uiso   1.00
C53    C     0.65346   0.61773   0.92831   0.00000  Uiso   1.00
C54    C     0.62506   0.64124   0.83447   0.00000  Uiso   1.00
C55    C     0.57698   0.63808   0.67558   0.00000  Uiso   1.00
C56    C     0.76613   0.75299   0.07583   0.00000  Uiso   1.00
C57    C     0.82667   0.71456   0.08698   0.00000  Uiso   1.00
C58    C     0.87748   0.78235   0.06570   0.00000  Uiso   1.00
C59    C     0.97549   0.86086   0.04067   0.00000  Uiso   1.00
C60    C     0.68653   0.88107   0.03733   0.00000  Uiso   1.00
C61    C     0.65226   0.85555   0.14869   0.00000  Uiso   1.00
C62    C     0.61520   0.92347   0.21501   0.00000  Uiso   1.00
C63    C     0.58789   0.88521   0.31389   0.00000  Uiso   1.00
C64    C     0.66258   0.80287   0.95829   0.00000  Uiso   1.00
C65    C     0.63421   0.82650   0.86451   0.00000  Uiso   1.00
C66    C     0.61559   0.74391   0.80309   0.00000  Uiso   1.00
C67    C     0.75667   0.85548   0.04450   0.00000  Uiso   1.00
C68    C     0.80741   0.92333   0.02319   0.00000  Uiso   1.00
C69    C     0.86801   0.88502   0.03432   0.00000  Uiso   1.00
H70    H     0.71130   0.61258   0.11937   0.00000  Uiso   1.00
H71    H     0.64178   0.63537   0.30302   0.00000  Uiso   1.00
H72    H     0.66079   0.53843   0.95257   0.00000  Uiso   1.00
H73    H     0.83396   0.63524   0.11122   0.00000  Uiso   1.00
H74    H     0.56051   0.70583   0.49280   0.00000  Uiso   1.00
H75    H     0.60062   0.50142   0.75383   0.00000  Uiso   1.00
H76    H     0.96579   0.70557   0.08838   0.00000  Uiso   1.00
H77    H     0.67917   0.96087   0.01294   0.00000  Uiso   1.00
H78    H     0.60789   0.00278   0.19075   0.00000  Uiso   1.00
H79    H     0.62690   0.90583   0.84029   0.00000  Uiso   1.00
H80    H     0.80007   0.00264   0.99895   0.00000  Uiso   1.00
H81    H     0.53301   0.00403   0.40168   0.00000  Uiso   1.00
H82    H     0.57312   0.79961   0.66270   0.00000  Uiso   1.00
H83    H     0.93828   0.00377   0.99726   0.00000  Uiso   1.00
O84    O     0.50043   0.87621   0.56611   0.00000  Uiso   1.00
O85    O     0.55307   0.60802   0.59660   0.00000  Uiso   1.00
O86    O     0.03215   0.87586   0.03554   0.00000  Uiso   1.00
N87    N     0.56383   0.77027   0.44696   0.00000  Uiso   1.00
N88    N     0.60132   0.57915   0.75607   0.00000  Uiso   1.00
N89    N     0.94273   0.77001   0.06883   0.00000  Uiso   1.00
N90    N     0.54903   0.93073   0.39793   0.00000  Uiso   1.00
N91    N     0.58652   0.73961   0.70704   0.00000  Uiso   1.00
N92    N     0.92793   0.93047   0.01979   0.00000  Uiso   1.00
C93    C     0.70394   0.30763   0.59499   0.00000  Uiso   1.00
C94    C     0.66172   0.24694   0.68002   0.00000  Uiso   1.00
C95    C     0.63446   0.28530   0.77882   0.00000  Uiso   1.00
C96    C     0.59736   0.21746   0.84527   0.00000  Uiso   1.00
C97    C     0.53321   0.13884   0.98203   0.00000  Uiso   1.00
C98    C     0.67204   0.29962   0.48961   0.00000  Uiso   1.00
C99    C     0.65346   0.38227   0.42831   0.00000  Uiso   1.00
C100   C     0.62506   0.35876   0.33447   0.00000  Uiso   1.00
C101   C     0.57698   0.36192   0.17558   0.00000  Uiso   1.00
C102   C     0.76613   0.24701   0.57583   0.00000  Uiso   1.00
C103   C     0.82667   0.28544   0.58698   0.00000  Uiso   1.00
C104   C     0.87748   0.21765   0.56570   0.00000  Uiso   1.00
C105   C     0.97549   0.13914   0.54067   0.00000  Uiso   1.00
C106   C     0.68653   0.11893   0.53733   0.00000  Uiso   1.00
C107   C     0.65226   0.14445   0.64869   0.00000  Uiso   1.00
C108   C     0.61520   0.07653   0.71501   0.00000  Uiso   1.00
C109   C     0.58789   0.11479   0.81389   0.00000  Uiso   1.00
C110   C     0.66258   0.19713   0.45829   0.00000  Uiso   1.00
C111   C     0.63421   0.17350   0.36451   0.00000  Uiso   1.00
C112   C     0.61559   0.25609   0.30309   0.00000  Uiso   1.00
C113   C     0.75667   0.14452   0.54450   0.00000  Uiso   1.00
C114   C     0.80741   0.07667   0.52319   0.00000  Uiso   1.00
C115   C     0.86801   0.11498   0.53432   0.00000  Uiso   1.00
H116   H     0.71130   0.38742   0.61937   0.00000  Uiso   1.00
H117   H     0.64178   0.36463   0.80302   0.00000  Uiso   1.00
H118   H     0.66079   0.46157   0.45257   0.00000  Uiso   1.00
H119   H     0.83396   0.36476   0.61122   0.00000  Uiso   1.00
H120   H     0.56051   0.29417   0.99280   0.00000  Uiso   1.00
H121   H     0.60062   0.49858   0.25383   0.00000  Uiso   1.00
H122   H     0.96579   0.29443   0.58838   0.00000  Uiso   1.00
H123   H     0.67917   0.03913   0.51294   0.00000  Uiso   1.00
H124   H     0.60789   0.99722   0.69075   0.00000  Uiso   1.00
H125   H     0.62690   0.09417   0.34029   0.00000  Uiso   1.00
H126   H     0.80007   0.99736   0.49895   0.00000  Uiso   1.00
H127   H     0.53301   0.99597   0.90168   0.00000  Uiso   1.00
H128   H     0.57312   0.20039   0.16270   0.00000  Uiso   1.00
H129   H     0.93828   0.99623   0.49726   0.00000  Uiso   1.00
O130   O     0.50043   0.12379   0.06611   0.00000  Uiso   1.00
O131   O     0.55307   0.39198   0.09660   0.00000  Uiso   1.00
O132   O     0.03215   0.12414   0.53554   0.00000  Uiso   1.00
N133   N     0.56383   0.22973   0.94696   0.00000  Uiso   1.00
N134   N     0.60132   0.42085   0.25607   0.00000  Uiso   1.00
N135   N     0.94273   0.22999   0.56883   0.00000  Uiso   1.00
N136   N     0.54903   0.06927   0.89793   0.00000  Uiso   1.00
N137   N     0.58652   0.26039   0.20704   0.00000  Uiso   1.00
N138   N     0.92793   0.06953   0.51979   0.00000  Uiso   1.00
C139   C     0.29606   0.30763   0.90501   0.00000  Uiso   1.00
C140   C     0.33828   0.24694   0.81998   0.00000  Uiso   1.00
C141   C     0.36554   0.28530   0.72118   0.00000  Uiso   1.00
C142   C     0.40264   0.21746   0.65473   0.00000  Uiso   1.00
C143   C     0.46679   0.13884   0.51797   0.00000  Uiso   1.00
C144   C     0.32796   0.29962   0.01039   0.00000  Uiso   1.00
C145   C     0.34654   0.38227   0.07169   0.00000  Uiso   1.00
C146   C     0.37494   0.35876   0.16553   0.00000  Uiso   1.00
C147   C     0.42302   0.36192   0.32442   0.00000  Uiso   1.00
C148   C     0.23387   0.24701   0.92417   0.00000  Uiso   1.00
C149   C     0.17333   0.28544   0.91302   0.00000  Uiso   1.00
C150   C     0.12252   0.21765   0.93430   0.00000  Uiso   1.00
C151   C     0.02451   0.13914   0.95933   0.00000  Uiso   1.00
C152   C     0.31347   0.11893   0.96267   0.00000  Uiso   1.00
C153   C     0.34774   0.14445   0.85131   0.00000  Uiso   1.00
C154   C     0.38480   0.07653   0.78499   0.00000  Uiso   1.00
C155   C     0.41211   0.11479   0.68611   0.00000  Uiso   1.00
C156   C     0.33742   0.19713   0.04171   0.00000  Uiso   1.00
C157   C     0.36579   0.17350   0.13549   0.00000  Uiso   1.00
C158   C     0.38441   0.25609   0.19691   0.00000  Uiso   1.00
C159   C     0.24333   0.14452   0.95550   0.00000  Uiso   1.00
C160   C     0.19259   0.07667   0.97681   0.00000  Uiso   1.00
C161   C     0.13199   0.11498   0.96568   0.00000  Uiso   1.00
H162   H     0.28870   0.38742   0.88063   0.00000  Uiso   1.00
H163   H     0.35822   0.36463   0.69698   0.00000  Uiso   1.00
H164   H     0.33921   0.46157   0.04743   0.00000  Uiso   1.00
H165   H     0.16604   0.36476   0.88878   0.00000  Uiso   1.00
H166   H     0.43949   0.29417   0.50720   0.00000  Uiso   1.00
H167   H     0.39938   0.49858   0.24617   0.00000  Uiso   1.00
H168   H     0.03421   0.29443   0.91162   0.00000  Uiso   1.00
H169   H     0.32083   0.03913   0.98706   0.00000  Uiso   1.00
H170   H     0.39211   0.99722   0.80925   0.00000  Uiso   1.00
H171   H     0.37310   0.09417   0.15971   0.00000  Uiso   1.00
H172   H     0.19993   0.99736   0.00105   0.00000  Uiso   1.00
H173   H     0.46699   0.99597   0.59832   0.00000  Uiso   1.00
H174   H     0.42688   0.20039   0.33730   0.00000  Uiso   1.00
H175   H     0.06172   0.99623   0.00274   0.00000  Uiso   1.00
O176   O     0.49957   0.12379   0.43389   0.00000  Uiso   1.00
O177   O     0.44693   0.39198   0.40340   0.00000  Uiso   1.00
O178   O     0.96785   0.12414   0.96446   0.00000  Uiso   1.00
N179   N     0.43617   0.22973   0.55304   0.00000  Uiso   1.00
N180   N     0.39868   0.42085   0.24393   0.00000  Uiso   1.00
N181   N     0.05727   0.22999   0.93117   0.00000  Uiso   1.00
N182   N     0.45097   0.06927   0.60207   0.00000  Uiso   1.00
N183   N     0.41348   0.26039   0.29296   0.00000  Uiso   1.00
N184   N     0.07207   0.06953   0.98021   0.00000  Uiso   1.00
