data_job_06441
_audit_creation_date              2018-12-19
_audit_creation_method            'Materials Studio'
_symmetry_space_group_name_H-M    'P1'
_symmetry_Int_Tables_number       1
_symmetry_cell_setting            triclinic
loop_
_symmetry_equiv_pos_as_xyz
  x,y,z
_cell_length_a                    15.3381
_cell_length_b                    15.2882
_cell_length_c                    15.2176
_cell_angle_alpha                 89.0215
_cell_angle_beta                  89.0228
_cell_angle_gamma                 88.9708
loop_
_atom_site_label
_atom_site_type_symbol
_atom_site_fract_x
_atom_site_fract_y
_atom_site_fract_z
_atom_site_U_iso_or_equiv
_atom_site_adp_type
_atom_site_occupancy
C1     C     0.75467   0.28293   0.63414   0.00000  Uiso   1.00
C2     C     0.80873   0.35140   0.67905   0.00000  Uiso   1.00
C3     C     0.79116   0.44077   0.67914   0.00000  Uiso   1.00
C4     C     0.84849   0.49246   0.72399   0.00000  Uiso   1.00
C5     C     0.92146   0.60433   0.78711   0.00000  Uiso   1.00
C6     C     0.81727   0.23464   0.57210   0.00000  Uiso   1.00
C7     C     0.80687   0.22583   0.48229   0.00000  Uiso   1.00
C8     C     0.87139   0.17922   0.43712   0.00000  Uiso   1.00
C9     C     0.95759   0.10977   0.33423   0.00000  Uiso   1.00
C10    C     0.72920   0.21674   0.70573   0.00000  Uiso   1.00
C11    C     0.64476   0.19286   0.72826   0.00000  Uiso   1.00
C12    C     0.63513   0.13116   0.79558   0.00000  Uiso   1.00
C13    C     0.58459   0.03392   0.90016   0.00000  Uiso   1.00
C14    C     0.88773   0.21582   0.71362   0.00000  Uiso   1.00
C15    C     0.88100   0.31495   0.72221   0.00000  Uiso   1.00
C16    C     0.93838   0.36652   0.76708   0.00000  Uiso   1.00
C17    C     0.92090   0.45594   0.76725   0.00000  Uiso   1.00
C18    C     0.88954   0.19820   0.61527   0.00000  Uiso   1.00
C19    C     0.95409   0.15158   0.57023   0.00000  Uiso   1.00
C20    C     0.94380   0.14271   0.48037   0.00000  Uiso   1.00
C21    C     0.80148   0.18029   0.74891   0.00000  Uiso   1.00
C22    C     0.79198   0.11862   0.81620   0.00000  Uiso   1.00
C23    C     0.70754   0.09464   0.83883   0.00000  Uiso   1.00
H24    H     0.69840   0.31130   0.60053   0.00000  Uiso   1.00
H25    H     0.73522   0.46895   0.64572   0.00000  Uiso   1.00
H26    H     0.75093   0.25404   0.44890   0.00000  Uiso   1.00
H27    H     0.58884   0.22108   0.69484   0.00000  Uiso   1.00
H28    H     0.80794   0.62766   0.71483   0.00000  Uiso   1.00
H29    H     0.84104   0.17448   0.29984   0.00000  Uiso   1.00
H30    H     0.49925   0.10497   0.81844   0.00000  Uiso   1.00
H31    H     0.94401   0.18744   0.74723   0.00000  Uiso   1.00
H32    H     0.99430   0.33830   0.80048   0.00000  Uiso   1.00
H33    H     0.01001   0.12338   0.60366   0.00000  Uiso   1.00
H34    H     0.84792   0.09042   0.84959   0.00000  Uiso   1.00
H35    H     0.01822   0.52162   0.84044   0.00000  Uiso   1.00
H36    H     0.05132   0.06844   0.42544   0.00000  Uiso   1.00
H37    H     0.70953   0.99893   0.94404   0.00000  Uiso   1.00
O38    O     0.94176   0.67611   0.80999   0.00000  Uiso   1.00
O39    O     0.98517   0.08155   0.26554   0.00000  Uiso   1.00
O40    O     0.53675   0.99036   0.94593   0.00000  Uiso   1.00
N41    N     0.85052   0.58200   0.73710   0.00000  Uiso   1.00
N42    N     0.88147   0.15831   0.34910   0.00000  Uiso   1.00
N43    N     0.56192   0.09331   0.83393   0.00000  Uiso   1.00
N44    N     0.96367   0.52494   0.80469   0.00000  Uiso   1.00
N45    N     0.99462   0.10125   0.41669   0.00000  Uiso   1.00
N46    N     0.67507   0.03625   0.90152   0.00000  Uiso   1.00
C47    C     0.63493   0.75415   0.28372   0.00000  Uiso   1.00
C48    C     0.67941   0.80841   0.35256   0.00000  Uiso   1.00
C49    C     0.67948   0.79082   0.44233   0.00000  Uiso   1.00
C50    C     0.72391   0.84836   0.49431   0.00000  Uiso   1.00
C51    C     0.78643   0.92161   0.60678   0.00000  Uiso   1.00
C52    C     0.57335   0.81694   0.23522   0.00000  Uiso   1.00
C53    C     0.48425   0.80652   0.22632   0.00000  Uiso   1.00
C54    C     0.43941   0.87124   0.17951   0.00000  Uiso   1.00
C55    C     0.33728   0.95770   0.10974   0.00000  Uiso   1.00
C56    C     0.70601   0.72857   0.21725   0.00000  Uiso   1.00
C57    C     0.72843   0.64384   0.19322   0.00000  Uiso   1.00
C58    C     0.79526   0.63415   0.13126   0.00000  Uiso   1.00
C59    C     0.89910   0.58340   0.03359   0.00000  Uiso   1.00
C60    C     0.71370   0.88762   0.21641   0.00000  Uiso   1.00
C61    C     0.72219   0.88091   0.31600   0.00000  Uiso   1.00
C62    C     0.76664   0.93849   0.36786   0.00000  Uiso   1.00
C63    C     0.76678   0.92098   0.45769   0.00000  Uiso   1.00
C64    C     0.61613   0.88944   0.19866   0.00000  Uiso   1.00
C65    C     0.57141   0.95418   0.15185   0.00000  Uiso   1.00
C66    C     0.48227   0.94386   0.14288   0.00000  Uiso   1.00
C67    C     0.74880   0.80106   0.18069   0.00000  Uiso   1.00
C68    C     0.81559   0.79150   0.11875   0.00000  Uiso   1.00
C69    C     0.83812   0.70677   0.09463   0.00000  Uiso   1.00
H70    H     0.60161   0.69772   0.31219   0.00000  Uiso   1.00
H71    H     0.64635   0.73472   0.47060   0.00000  Uiso   1.00
H72    H     0.45116   0.75041   0.25462   0.00000  Uiso   1.00
H73    H     0.69531   0.58775   0.22153   0.00000  Uiso   1.00
H74    H     0.71480   0.80773   0.63012   0.00000  Uiso   1.00
H75    H     0.30323   0.84080   0.17467   0.00000  Uiso   1.00
H76    H     0.81806   0.49781   0.10489   0.00000  Uiso   1.00
H77    H     0.74701   0.94406   0.18794   0.00000  Uiso   1.00
H78    H     0.79974   0.99458   0.33954   0.00000  Uiso   1.00
H79    H     0.60454   0.01027   0.12356   0.00000  Uiso   1.00
H80    H     0.84869   0.84762   0.09047   0.00000  Uiso   1.00
H81    H     0.83929   0.01865   0.52375   0.00000  Uiso   1.00
H82    H     0.42772   0.05171   0.06830   0.00000  Uiso   1.00
H83    H     0.94255   0.70873   0.99852   0.00000  Uiso   1.00
O84    O     0.80908   0.94199   0.67891   0.00000  Uiso   1.00
O85    O     0.26912   0.98537   0.08137   0.00000  Uiso   1.00
O86    O     0.94457   0.53537   0.98982   0.00000  Uiso   1.00
N87    N     0.73688   0.85042   0.58428   0.00000  Uiso   1.00
N88    N     0.35208   0.88135   0.15848   0.00000  Uiso   1.00
N89    N     0.83339   0.56068   0.09322   0.00000  Uiso   1.00
N90    N     0.80387   0.96392   0.52704   0.00000  Uiso   1.00
N91    N     0.41907   0.99484   0.10124   0.00000  Uiso   1.00
N92    N     0.90038   0.67418   0.03598   0.00000  Uiso   1.00
C93    C     0.28229   0.63455   0.75336   0.00000  Uiso   1.00
C94    C     0.35054   0.67919   0.80793   0.00000  Uiso   1.00
C95    C     0.43960   0.67925   0.79029   0.00000  Uiso   1.00
C96    C     0.49112   0.72384   0.84814   0.00000  Uiso   1.00
C97    C     0.60261   0.78658   0.92181   0.00000  Uiso   1.00
C98    C     0.23420   0.57280   0.81639   0.00000  Uiso   1.00
C99    C     0.22545   0.48341   0.80587   0.00000  Uiso   1.00
C100   C     0.17902   0.43845   0.87084   0.00000  Uiso   1.00
C101   C     0.10984   0.33602   0.95762   0.00000  Uiso   1.00
C102   C     0.21630   0.70586   0.72767   0.00000  Uiso   1.00
C103   C     0.19247   0.72833   0.64254   0.00000  Uiso   1.00
C104   C     0.13095   0.79538   0.63282   0.00000  Uiso   1.00
C105   C     0.03398   0.89955   0.58184   0.00000  Uiso   1.00
C106   C     0.21539   0.71365   0.88746   0.00000  Uiso   1.00
C107   C     0.31419   0.72215   0.88076   0.00000  Uiso   1.00
C108   C     0.36558   0.76676   0.93866   0.00000  Uiso   1.00
C109   C     0.45471   0.76688   0.92111   0.00000  Uiso   1.00
C110   C     0.19786   0.61576   0.88923   0.00000  Uiso   1.00
C111   C     0.15142   0.57092   0.95423   0.00000  Uiso   1.00
C112   C     0.14261   0.48148   0.94381   0.00000  Uiso   1.00
C113   C     0.17996   0.74882   0.80050   0.00000  Uiso   1.00
C114   C     0.11845   0.81584   0.79091   0.00000  Uiso   1.00
C115   C     0.09454   0.83841   0.70579   0.00000  Uiso   1.00
H116   H     0.31058   0.60110   0.69666   0.00000  Uiso   1.00
H117   H     0.46770   0.64599   0.73392   0.00000  Uiso   1.00
H118   H     0.25357   0.45019   0.74949   0.00000  Uiso   1.00
H119   H     0.22061   0.69507   0.58619   0.00000  Uiso   1.00
H120   H     0.62588   0.71468   0.80738   0.00000  Uiso   1.00
H121   H     0.17434   0.30181   0.84019   0.00000  Uiso   1.00
H122   H     0.10482   0.81820   0.49584   0.00000  Uiso   1.00
H123   H     0.18709   0.74709   0.94417   0.00000  Uiso   1.00
H124   H     0.33744   0.80000   0.99501   0.00000  Uiso   1.00
H125   H     0.12331   0.60418   0.01058   0.00000  Uiso   1.00
H126   H     0.09034   0.84907   0.84729   0.00000  Uiso   1.00
H127   H     0.52015   0.83967   0.01929   0.00000  Uiso   1.00
H128   H     0.06861   0.42680   0.05210   0.00000  Uiso   1.00
H129   H     0.99910   0.94319   0.70776   0.00000  Uiso   1.00
O130   O     0.67415   0.80931   0.94233   0.00000  Uiso   1.00
O131   O     0.08174   0.26766   0.98537   0.00000  Uiso   1.00
O132   O     0.99054   0.94515   0.53360   0.00000  Uiso   1.00
N133   N     0.58036   0.73685   0.85026   0.00000  Uiso   1.00
N134   N     0.15821   0.35084   0.88095   0.00000  Uiso   1.00
N135   N     0.09320   0.83360   0.55901   0.00000  Uiso   1.00
N136   N     0.52347   0.80411   0.96429   0.00000  Uiso   1.00
N137   N     0.10132   0.41810   0.99498   0.00000  Uiso   1.00
N138   N     0.03631   0.90086   0.67304   0.00000  Uiso   1.00
C139   C     0.25475   0.13461   0.78371   0.00000  Uiso   1.00
C140   C     0.30881   0.17925   0.85256   0.00000  Uiso   1.00
C141   C     0.29127   0.17933   0.94232   0.00000  Uiso   1.00
C142   C     0.34861   0.22392   0.99430   0.00000  Uiso   1.00
C143   C     0.42160   0.28667   0.10677   0.00000  Uiso   1.00
C144   C     0.31735   0.07284   0.73523   0.00000  Uiso   1.00
C145   C     0.30698   0.98344   0.72633   0.00000  Uiso   1.00
C146   C     0.37150   0.93846   0.67954   0.00000  Uiso   1.00
C147   C     0.45771   0.83601   0.60979   0.00000  Uiso   1.00
C148   C     0.22924   0.20591   0.71723   0.00000  Uiso   1.00
C149   C     0.14478   0.22839   0.69318   0.00000  Uiso   1.00
C150   C     0.13512   0.29543   0.63122   0.00000  Uiso   1.00
C151   C     0.08452   0.39959   0.53353   0.00000  Uiso   1.00
C152   C     0.38777   0.21366   0.71640   0.00000  Uiso   1.00
C153   C     0.38107   0.22219   0.81599   0.00000  Uiso   1.00
C154   C     0.43844   0.26679   0.86785   0.00000  Uiso   1.00
C155   C     0.42099   0.26694   0.95768   0.00000  Uiso   1.00
C156   C     0.38960   0.11577   0.69867   0.00000  Uiso   1.00
C157   C     0.45415   0.07091   0.65186   0.00000  Uiso   1.00
C158   C     0.44388   0.98147   0.64291   0.00000  Uiso   1.00
C159   C     0.30149   0.24885   0.68067   0.00000  Uiso   1.00
C160   C     0.29196   0.31586   0.61872   0.00000  Uiso   1.00
C161   C     0.20750   0.33844   0.59459   0.00000  Uiso   1.00
H162   H     0.19850   0.10117   0.81217   0.00000  Uiso   1.00
H163   H     0.23536   0.14608   0.97059   0.00000  Uiso   1.00
H164   H     0.25106   0.95024   0.75462   0.00000  Uiso   1.00
H165   H     0.08888   0.19515   0.72149   0.00000  Uiso   1.00
H166   H     0.30810   0.21478   0.13010   0.00000  Uiso   1.00
H167   H     0.34119   0.80183   0.67471   0.00000  Uiso   1.00
H168   H     0.99922   0.31827   0.60483   0.00000  Uiso   1.00
H169   H     0.44402   0.24709   0.68794   0.00000  Uiso   1.00
H170   H     0.49435   0.30001   0.83954   0.00000  Uiso   1.00
H171   H     0.51005   0.10416   0.62358   0.00000  Uiso   1.00
H172   H     0.34788   0.34907   0.59044   0.00000  Uiso   1.00
H173   H     0.51831   0.33972   0.02374   0.00000  Uiso   1.00
H174   H     0.55140   0.92676   0.56834   0.00000  Uiso   1.00
H175   H     0.20943   0.44320   0.49847   0.00000  Uiso   1.00
O176   O     0.44190   0.30941   0.17890   0.00000  Uiso   1.00
O177   O     0.48530   0.76763   0.58142   0.00000  Uiso   1.00
O178   O     0.03665   0.44519   0.48975   0.00000  Uiso   1.00
N179   N     0.35066   0.23694   0.08427   0.00000  Uiso   1.00
N180   N     0.38160   0.85085   0.65851   0.00000  Uiso   1.00
N181   N     0.06189   0.33366   0.59316   0.00000  Uiso   1.00
N182   N     0.46377   0.30417   0.02703   0.00000  Uiso   1.00
N183   N     0.49471   0.91807   0.60128   0.00000  Uiso   1.00
N184   N     0.17500   0.40089   0.53593   0.00000  Uiso   1.00
C185   C     0.13482   0.78291   0.25332   0.00000  Uiso   1.00
C186   C     0.17930   0.85139   0.30788   0.00000  Uiso   1.00
C187   C     0.17934   0.94075   0.29024   0.00000  Uiso   1.00
C188   C     0.22377   0.99245   0.34809   0.00000  Uiso   1.00
C189   C     0.28628   0.10433   0.42175   0.00000  Uiso   1.00
C190   C     0.07328   0.73465   0.31635   0.00000  Uiso   1.00
C191   C     0.98418   0.72585   0.30582   0.00000  Uiso   1.00
C192   C     0.93937   0.67927   0.37080   0.00000  Uiso   1.00
C193   C     0.83729   0.60985   0.45757   0.00000  Uiso   1.00
C194   C     0.20591   0.71671   0.22764   0.00000  Uiso   1.00
C195   C     0.22832   0.69280   0.14252   0.00000  Uiso   1.00
C196   C     0.29517   0.63109   0.13282   0.00000  Uiso   1.00
C197   C     0.39902   0.53382   0.08186   0.00000  Uiso   1.00
C198   C     0.21366   0.71582   0.38744   0.00000  Uiso   1.00
C199   C     0.22212   0.81495   0.38073   0.00000  Uiso   1.00
C200   C     0.26656   0.86652   0.43862   0.00000  Uiso   1.00
C201   C     0.26667   0.95594   0.42107   0.00000  Uiso   1.00
C202   C     0.11609   0.69821   0.38920   0.00000  Uiso   1.00
C203   C     0.07140   0.65162   0.45420   0.00000  Uiso   1.00
C204   C     0.98226   0.64276   0.44377   0.00000  Uiso   1.00
C205   C     0.24874   0.68027   0.30049   0.00000  Uiso   1.00
C206   C     0.31555   0.61858   0.29091   0.00000  Uiso   1.00
C207   C     0.33806   0.59458   0.20579   0.00000  Uiso   1.00
H208   H     0.10148   0.81128   0.19661   0.00000  Uiso   1.00
H209   H     0.14619   0.96893   0.23386   0.00000  Uiso   1.00
H210   H     0.95106   0.75406   0.24944   0.00000  Uiso   1.00
H211   H     0.19517   0.72102   0.08617   0.00000  Uiso   1.00
H212   H     0.21461   0.12764   0.30731   0.00000  Uiso   1.00
H213   H     0.80318   0.67455   0.34013   0.00000  Uiso   1.00
H214   H     0.31793   0.60488   0.99585   0.00000  Uiso   1.00
H215   H     0.24700   0.68744   0.44415   0.00000  Uiso   1.00
H216   H     0.29969   0.83830   0.49499   0.00000  Uiso   1.00
H217   H     0.10456   0.62342   0.51056   0.00000  Uiso   1.00
H218   H     0.34867   0.59039   0.34729   0.00000  Uiso   1.00
H219   H     0.33919   0.02162   0.51925   0.00000  Uiso   1.00
H220   H     0.92777   0.56852   0.55206   0.00000  Uiso   1.00
H221   H     0.44252   0.49885   0.20779   0.00000  Uiso   1.00
O222   O     0.30891   0.17610   0.44227   0.00000  Uiso   1.00
O223   O     0.76914   0.58165   0.48532   0.00000  Uiso   1.00
O224   O     0.44448   0.49025   0.03363   0.00000  Uiso   1.00
N225   N     0.23671   0.08198   0.35020   0.00000  Uiso   1.00
N226   N     0.85205   0.65838   0.38089   0.00000  Uiso   1.00
N227   N     0.33328   0.59323   0.05902   0.00000  Uiso   1.00
N228   N     0.30375   0.02493   0.46424   0.00000  Uiso   1.00
N229   N     0.91909   0.60133   0.49493   0.00000  Uiso   1.00
N230   N     0.40032   0.53618   0.17306   0.00000  Uiso   1.00
C231   C     0.78232   0.25411   0.13419   0.00000  Uiso   1.00
C232   C     0.85056   0.30837   0.17910   0.00000  Uiso   1.00
C233   C     0.93963   0.29076   0.17921   0.00000  Uiso   1.00
C234   C     0.99114   0.34830   0.22406   0.00000  Uiso   1.00
C235   C     0.10263   0.42154   0.28718   0.00000  Uiso   1.00
C236   C     0.73419   0.31690   0.07214   0.00000  Uiso   1.00
C237   C     0.72541   0.30646   0.98233   0.00000  Uiso   1.00
C238   C     0.67895   0.37118   0.93715   0.00000  Uiso   1.00
C239   C     0.60972   0.45763   0.83423   0.00000  Uiso   1.00
C240   C     0.71635   0.22855   0.20578   0.00000  Uiso   1.00
C241   C     0.69256   0.14383   0.22831   0.00000  Uiso   1.00
C242   C     0.63106   0.13417   0.29563   0.00000  Uiso   1.00
C243   C     0.53414   0.08345   0.40020   0.00000  Uiso   1.00
C244   C     0.71540   0.38760   0.21365   0.00000  Uiso   1.00
C245   C     0.81421   0.38088   0.22225   0.00000  Uiso   1.00
C246   C     0.86559   0.43845   0.26712   0.00000  Uiso   1.00
C247   C     0.95473   0.42093   0.26730   0.00000  Uiso   1.00
C248   C     0.69784   0.38941   0.11530   0.00000  Uiso   1.00
C249   C     0.65137   0.45415   0.07024   0.00000  Uiso   1.00
C250   C     0.64253   0.44382   0.98038   0.00000  Uiso   1.00
C251   C     0.68000   0.30106   0.24894   0.00000  Uiso   1.00
C252   C     0.61852   0.29153   0.31623   0.00000  Uiso   1.00
C253   C     0.59464   0.20681   0.33886   0.00000  Uiso   1.00
H254   H     0.81062   0.19766   0.10059   0.00000  Uiso   1.00
H255   H     0.96774   0.23464   0.14579   0.00000  Uiso   1.00
H256   H     0.75354   0.25034   0.94895   0.00000  Uiso   1.00
H257   H     0.72070   0.08774   0.19490   0.00000  Uiso   1.00
H258   H     0.12591   0.30764   0.21492   0.00000  Uiso   1.00
H259   H     0.67424   0.34071   0.79987   0.00000  Uiso   1.00
H260   H     0.60498   0.99783   0.31850   0.00000  Uiso   1.00
H261   H     0.68709   0.44406   0.24725   0.00000  Uiso   1.00
H262   H     0.83744   0.49456   0.30051   0.00000  Uiso   1.00
H263   H     0.62325   0.51025   0.10366   0.00000  Uiso   1.00
H264   H     0.59041   0.34765   0.34961   0.00000  Uiso   1.00
H265   H     0.02016   0.51860   0.34049   0.00000  Uiso   1.00
H266   H     0.56848   0.55167   0.92544   0.00000  Uiso   1.00
H267   H     0.49923   0.20880   0.44407   0.00000  Uiso   1.00
O268   O     0.17417   0.44191   0.31007   0.00000  Uiso   1.00
O269   O     0.58158   0.48529   0.76554   0.00000  Uiso   1.00
O270   O     0.49073   0.03545   0.44597   0.00000  Uiso   1.00
N271   N     0.08039   0.35034   0.23718   0.00000  Uiso   1.00
N272   N     0.65811   0.38128   0.84913   0.00000  Uiso   1.00
N273   N     0.59335   0.06071   0.33398   0.00000  Uiso   1.00
N274   N     0.02348   0.46386   0.30475   0.00000  Uiso   1.00
N275   N     0.60121   0.49479   0.91670   0.00000  Uiso   1.00
N276   N     0.53644   0.17423   0.40156   0.00000  Uiso   1.00
