data_job_06950
_audit_creation_date              2018-12-19
_audit_creation_method            'Materials Studio'
_symmetry_space_group_name_H-M    'P1'
_symmetry_Int_Tables_number       1
_symmetry_cell_setting            triclinic
loop_
_symmetry_equiv_pos_as_xyz
  x,y,z
_cell_length_a                    19.5028
_cell_length_b                    21.7947
_cell_length_c                    23.3422
_cell_angle_alpha                 91.3776
_cell_angle_beta                  106.2257
_cell_angle_gamma                 87.7665
loop_
_atom_site_label
_atom_site_type_symbol
_atom_site_fract_x
_atom_site_fract_y
_atom_site_fract_z
_atom_site_U_iso_or_equiv
_atom_site_adp_type
_atom_site_occupancy
C1     C     0.04983   0.12249   0.64161   0.00000  Uiso   1.00
C2     C     0.98763   0.11109   0.58647   0.00000  Uiso   1.00
C3     C     0.92566   0.08136   0.58551   0.00000  Uiso   1.00
C4     C     0.87511   0.07552   0.53058   0.00000  Uiso   1.00
C5     C     0.77686   0.05427   0.45288   0.00000  Uiso   1.00
C6     C     0.11603   0.09386   0.62765   0.00000  Uiso   1.00
C7     C     0.16204   0.04964   0.66131   0.00000  Uiso   1.00
C8     C     0.21959   0.02931   0.64105   0.00000  Uiso   1.00
C9     C     0.32072   0.98134   0.62731   0.00000  Uiso   1.00
C10    C     0.05982   0.19166   0.64502   0.00000  Uiso   1.00
C11    C     0.05858   0.22968   0.69330   0.00000  Uiso   1.00
C12    C     0.06881   0.29169   0.68767   0.00000  Uiso   1.00
C13    C     0.08266   0.39558   0.70090   0.00000  Uiso   1.00
C14    C     0.07024   0.16500   0.54577   0.00000  Uiso   1.00
C15    C     0.99872   0.13418   0.53441   0.00000  Uiso   1.00
C16    C     0.94824   0.12839   0.47947   0.00000  Uiso   1.00
C17    C     0.88622   0.09865   0.47843   0.00000  Uiso   1.00
C18    C     0.12712   0.11694   0.57559   0.00000  Uiso   1.00
C19    C     0.18462   0.09667   0.55528   0.00000  Uiso   1.00
C20    C     0.23070   0.05244   0.58890   0.00000  Uiso   1.00
C21    C     0.07090   0.21475   0.59296   0.00000  Uiso   1.00
C22    C     0.08115   0.27671   0.58726   0.00000  Uiso   1.00
C23    C     0.07992   0.31482   0.63552   0.00000  Uiso   1.00
H24    H     0.04120   0.10452   0.68214   0.00000  Uiso   1.00
H25    H     0.91711   0.06349   0.62580   0.00000  Uiso   1.00
H26    H     0.15345   0.03179   0.70160   0.00000  Uiso   1.00
H27    H     0.05000   0.21180   0.73358   0.00000  Uiso   1.00
H28    H     0.78442   0.02817   0.54039   0.00000  Uiso   1.00
H29    H     0.28278   0.96133   0.70022   0.00000  Uiso   1.00
H30    H     0.06463   0.34093   0.76765   0.00000  Uiso   1.00
H31    H     0.07887   0.18298   0.50524   0.00000  Uiso   1.00
H32    H     0.95684   0.14626   0.43919   0.00000  Uiso   1.00
H33    H     0.19319   0.11455   0.51499   0.00000  Uiso   1.00
H34    H     0.08973   0.29456   0.54697   0.00000  Uiso   1.00
H35    H     0.81667   0.09534   0.38893   0.00000  Uiso   1.00
H36    H     0.31504   0.02851   0.54876   0.00000  Uiso   1.00
H37    H     0.09688   0.40810   0.61619   0.00000  Uiso   1.00
O38    O     0.71960   0.03617   0.42440   0.00000  Uiso   1.00
O39    O     0.37343   0.94849   0.63410   0.00000  Uiso   1.00
O40    O     0.08722   0.44650   0.72257   0.00000  Uiso   1.00
N41    N     0.80876   0.04903   0.51381   0.00000  Uiso   1.00
N42    N     0.27468   0.98653   0.66324   0.00000  Uiso   1.00
N43    N     0.07075   0.34142   0.72628   0.00000  Uiso   1.00
N44    N     0.82611   0.08518   0.43231   0.00000  Uiso   1.00
N45    N     0.29204   0.02268   0.58174   0.00000  Uiso   1.00
N46    N     0.08810   0.37756   0.64478   0.00000  Uiso   1.00
C47    C     0.53815   0.56124   0.76438   0.00000  Uiso   1.00
C48    C     0.53088   0.59566   0.82015   0.00000  Uiso   1.00
C49    C     0.53473   0.65870   0.82959   0.00000  Uiso   1.00
C50    C     0.52676   0.68129   0.88356   0.00000  Uiso   1.00
C51    C     0.51724   0.74069   0.96363   0.00000  Uiso   1.00
C52    C     0.59888   0.51367   0.78580   0.00000  Uiso   1.00
C53    C     0.65989   0.50777   0.76634   0.00000  Uiso   1.00
C54    C     0.70915   0.46134   0.79139   0.00000  Uiso   1.00
C55    C     0.80517   0.39342   0.81809   0.00000  Uiso   1.00
C56    C     0.47030   0.52505   0.74140   0.00000  Uiso   1.00
C57    C     0.42322   0.52869   0.68460   0.00000  Uiso   1.00
C58    C     0.36423   0.49182   0.67227   0.00000  Uiso   1.00
C59    C     0.26062   0.44157   0.63003   0.00000  Uiso   1.00
C60    C     0.51713   0.48926   0.84346   0.00000  Uiso   1.00
C61    C     0.51946   0.55657   0.86310   0.00000  Uiso   1.00
C62    C     0.51148   0.57907   0.91707   0.00000  Uiso   1.00
C63    C     0.51532   0.64212   0.92659   0.00000  Uiso   1.00
C64    C     0.58746   0.47458   0.82874   0.00000  Uiso   1.00
C65    C     0.63664   0.42814   0.85383   0.00000  Uiso   1.00
C66    C     0.69771   0.42217   0.83442   0.00000  Uiso   1.00
C67    C     0.45888   0.48595   0.78434   0.00000  Uiso   1.00
C68    C     0.39996   0.44907   0.77209   0.00000  Uiso   1.00
C69    C     0.35279   0.45266   0.71529   0.00000  Uiso   1.00
H70    H     0.54704   0.59167   0.73095   0.00000  Uiso   1.00
H71    H     0.54357   0.68894   0.79634   0.00000  Uiso   1.00
H72    H     0.66871   0.53803   0.73310   0.00000  Uiso   1.00
H73    H     0.43207   0.55895   0.65138   0.00000  Uiso   1.00
H74    H     0.53472   0.77953   0.88779   0.00000  Uiso   1.00
H75    H     0.79856   0.46132   0.75443   0.00000  Uiso   1.00
H76    H     0.29956   0.50544   0.58210   0.00000  Uiso   1.00
H77    H     0.50824   0.45882   0.87690   0.00000  Uiso   1.00
H78    H     0.50264   0.54880   0.95030   0.00000  Uiso   1.00
H79    H     0.62778   0.39789   0.88706   0.00000  Uiso   1.00
H80    H     0.39114   0.41882   0.80534   0.00000  Uiso   1.00
H81    H     0.50151   0.66579   0.01275   0.00000  Uiso   1.00
H82    H     0.76535   0.34758   0.87939   0.00000  Uiso   1.00
H83    H     0.26634   0.39170   0.70706   0.00000  Uiso   1.00
O84    O     0.51515   0.78425   0.99594   0.00000  Uiso   1.00
O85    O     0.86130   0.36676   0.82096   0.00000  Uiso   1.00
O86    O     0.20662   0.42465   0.59487   0.00000  Uiso   1.00
N87    N     0.52766   0.74042   0.90713   0.00000  Uiso   1.00
N88    N     0.77434   0.44291   0.78244   0.00000  Uiso   1.00
N89    N     0.30782   0.48415   0.62132   0.00000  Uiso   1.00
N90    N     0.50978   0.67921   0.97436   0.00000  Uiso   1.00
N91    N     0.75647   0.38171   0.84968   0.00000  Uiso   1.00
N92    N     0.28995   0.42295   0.68856   0.00000  Uiso   1.00
C93    C     0.37562   0.41919   0.33177   0.00000  Uiso   1.00
C94    C     0.37217   0.48919   0.33448   0.00000  Uiso   1.00
C95    C     0.35159   0.52771   0.28572   0.00000  Uiso   1.00
C96    C     0.35201   0.59045   0.29757   0.00000  Uiso   1.00
C97    C     0.34361   0.69559   0.29288   0.00000  Uiso   1.00
C98    C     0.45193   0.39988   0.36557   0.00000  Uiso   1.00
C99    C     0.49840   0.36332   0.34295   0.00000  Uiso   1.00
C100   C     0.56596   0.35088   0.38097   0.00000  Uiso   1.00
C101   C     0.68137   0.31733   0.42455   0.00000  Uiso   1.00
C102   C     0.32837   0.39791   0.36910   0.00000  Uiso   1.00
C103   C     0.27096   0.35967   0.34946   0.00000  Uiso   1.00
C104   C     0.23450   0.34555   0.39046   0.00000  Uiso   1.00
C105   C     0.15805   0.30895   0.43953   0.00000  Uiso   1.00
C106   C     0.41298   0.46210   0.43952   0.00000  Uiso   1.00
C107   C     0.39247   0.51249   0.39301   0.00000  Uiso   1.00
C108   C     0.39292   0.57519   0.40494   0.00000  Uiso   1.00
C109   C     0.37234   0.61380   0.35621   0.00000  Uiso   1.00
C110   C     0.47223   0.42319   0.42409   0.00000  Uiso   1.00
C111   C     0.53974   0.41079   0.46216   0.00000  Uiso   1.00
C112   C     0.58630   0.37422   0.43961   0.00000  Uiso   1.00
C113   C     0.34866   0.42122   0.42763   0.00000  Uiso   1.00
C114   C     0.31229   0.40715   0.46867   0.00000  Uiso   1.00
C115   C     0.25483   0.36890   0.44910   0.00000  Uiso   1.00
H116   H     0.35983   0.40104   0.28621   0.00000  Uiso   1.00
H117   H     0.33589   0.50966   0.24044   0.00000  Uiso   1.00
H118   H     0.48268   0.34529   0.29765   0.00000  Uiso   1.00
H119   H     0.25527   0.34164   0.30416   0.00000  Uiso   1.00
H120   H     0.31833   0.64035   0.21550   0.00000  Uiso   1.00
H121   H     0.62783   0.29375   0.33616   0.00000  Uiso   1.00
H122   H     0.14829   0.28607   0.34988   0.00000  Uiso   1.00
H123   H     0.42878   0.48025   0.48509   0.00000  Uiso   1.00
H124   H     0.40863   0.59321   0.45024   0.00000  Uiso   1.00
H125   H     0.55542   0.42883   0.50745   0.00000  Uiso   1.00
H126   H     0.32801   0.42519   0.51396   0.00000  Uiso   1.00
H127   H     0.37737   0.70817   0.38578   0.00000  Uiso   1.00
H128   H     0.68687   0.36156   0.50644   0.00000  Uiso   1.00
H129   H     0.20733   0.35388   0.52016   0.00000  Uiso   1.00
O130   O     0.33337   0.74714   0.27413   0.00000  Uiso   1.00
O131   O     0.73942   0.29240   0.43242   0.00000  Uiso   1.00
O132   O     0.11027   0.28232   0.45043   0.00000  Uiso   1.00
N133   N     0.33498   0.64081   0.26036   0.00000  Uiso   1.00
N134   N     0.62435   0.31676   0.37316   0.00000  Uiso   1.00
N135   N     0.17603   0.30957   0.38600   0.00000  Uiso   1.00
N136   N     0.36675   0.67730   0.35199   0.00000  Uiso   1.00
N137   N     0.65611   0.35325   0.46479   0.00000  Uiso   1.00
N138   N     0.20780   0.34606   0.47763   0.00000  Uiso   1.00
C139   C     0.25991   0.57808   0.90505   0.00000  Uiso   1.00
C140   C     0.17886   0.57492   0.89036   0.00000  Uiso   1.00
C141   C     0.13400   0.55290   0.83735   0.00000  Uiso   1.00
C142   C     0.06140   0.55386   0.83260   0.00000  Uiso   1.00
C143   C     0.93962   0.54555   0.80271   0.00000  Uiso   1.00
C144   C     0.28997   0.54229   0.96249   0.00000  Uiso   1.00
C145   C     0.33855   0.49283   0.97014   0.00000  Uiso   1.00
C146   C     0.35949   0.46632   0.02612   0.00000  Uiso   1.00
C147   C     0.41025   0.40737   0.10822   0.00000  Uiso   1.00
C148   C     0.27721   0.64503   0.92113   0.00000  Uiso   1.00
C149   C     0.31507   0.68197   0.89401   0.00000  Uiso   1.00
C150   C     0.32528   0.74197   0.91518   0.00000  Uiso   1.00
C151   C     0.35622   0.84255   0.93306   0.00000  Uiso   1.00
C152   C     0.21075   0.61894   0.99089   0.00000  Uiso   1.00
C153   C     0.15216   0.59711   0.93698   0.00000  Uiso   1.00
C154   C     0.07961   0.59811   0.93231   0.00000  Uiso   1.00
C155   C     0.03465   0.57610   0.87931   0.00000  Uiso   1.00
C156   C     0.26327   0.56448   0.00911   0.00000  Uiso   1.00
C157   C     0.28415   0.53804   0.06510   0.00000  Uiso   1.00
C158   C     0.33274   0.48856   0.07282   0.00000  Uiso   1.00
C159   C     0.25050   0.66723   0.96775   0.00000  Uiso   1.00
C160   C     0.26067   0.72718   0.98897   0.00000  Uiso   1.00
C161   C     0.29853   0.76420   0.96188   0.00000  Uiso   1.00
H162   H     0.28070   0.56080   0.86876   0.00000  Uiso   1.00
H163   H     0.15469   0.53572   0.80129   0.00000  Uiso   1.00
H164   H     0.35921   0.47567   0.93405   0.00000  Uiso   1.00
H165   H     0.33572   0.66478   0.85794   0.00000  Uiso   1.00
H166   H     0.00320   0.51769   0.74704   0.00000  Uiso   1.00
H167   H     0.43446   0.39108   0.02699   0.00000  Uiso   1.00
H168   H     0.38494   0.78985   0.86649   0.00000  Uiso   1.00
H169   H     0.18996   0.63622   0.02718   0.00000  Uiso   1.00
H170   H     0.05896   0.61529   0.96840   0.00000  Uiso   1.00
H171   H     0.26348   0.55523   0.10117   0.00000  Uiso   1.00
H172   H     0.23999   0.74434   0.02505   0.00000  Uiso   1.00
H173   H     0.92550   0.58226   0.88268   0.00000  Uiso   1.00
H174   H     0.35676   0.45565   0.16263   0.00000  Uiso   1.00
H175   H     0.30725   0.85442   0.00212   0.00000  Uiso   1.00
O176   O     0.87982   0.53482   0.77334   0.00000  Uiso   1.00
O177   O     0.44562   0.36872   0.14063   0.00000  Uiso   1.00
O178   O     0.38065   0.89190   0.93004   0.00000  Uiso   1.00
N179   N     0.00289   0.53577   0.78703   0.00000  Uiso   1.00
N180   N     0.40608   0.41739   0.04876   0.00000  Uiso   1.00
N181   N     0.35981   0.79020   0.89871   0.00000  Uiso   1.00
N182   N     0.96108   0.57052   0.86001   0.00000  Uiso   1.00
N183   N     0.36427   0.45213   0.12175   0.00000  Uiso   1.00
N184   N     0.31800   0.82495   0.97170   0.00000  Uiso   1.00
C185   C     0.60568   0.13996   0.13564   0.00000  Uiso   1.00
C186   C     0.59028   0.19086   0.08963   0.00000  Uiso   1.00
C187   C     0.57391   0.25193   0.09998   0.00000  Uiso   1.00
C188   C     0.56159   0.29136   0.05206   0.00000  Uiso   1.00
C189   C     0.53711   0.37359   0.98919   0.00000  Uiso   1.00
C190   C     0.67916   0.11242   0.13687   0.00000  Uiso   1.00
C191   C     0.73752   0.10751   0.18694   0.00000  Uiso   1.00
C192   C     0.80002   0.08090   0.17878   0.00000  Uiso   1.00
C193   C     0.91351   0.04130   0.18925   0.00000  Uiso   1.00
C194   C     0.55257   0.09018   0.10948   0.00000  Uiso   1.00
C195   C     0.50451   0.06657   0.13653   0.00000  Uiso   1.00
C196   C     0.46044   0.02122   0.10531   0.00000  Uiso   1.00
C197   C     0.37738   0.94710   0.07326   0.00000  Uiso   1.00
C198   C     0.61290   0.10141   0.03212   0.00000  Uiso   1.00
C199   C     0.59420   0.16992   0.03341   0.00000  Uiso   1.00
C200   C     0.58190   0.20927   0.98546   0.00000  Uiso   1.00
C201   C     0.56552   0.27038   0.99573   0.00000  Uiso   1.00
C202   C     0.68308   0.09148   0.08065   0.00000  Uiso   1.00
C203   C     0.74551   0.06486   0.07241   0.00000  Uiso   1.00
C204   C     0.80395   0.05992   0.12246   0.00000  Uiso   1.00
C205   C     0.55649   0.06924   0.05325   0.00000  Uiso   1.00
C206   C     0.51249   0.02392   0.02200   0.00000  Uiso   1.00
C207   C     0.46437   0.00024   0.04899   0.00000  Uiso   1.00
H208   H     0.60263   0.15626   0.17942   0.00000  Uiso   1.00
H209   H     0.57089   0.26812   0.14351   0.00000  Uiso   1.00
H210   H     0.73447   0.12372   0.23045   0.00000  Uiso   1.00
H211   H     0.50149   0.08278   0.18004   0.00000  Uiso   1.00
H212   H     0.53745   0.38290   0.07890   0.00000  Uiso   1.00
H213   H     0.88236   0.07841   0.26223   0.00000  Uiso   1.00
H214   H     0.39107   0.99209   0.15593   0.00000  Uiso   1.00
H215   H     0.61596   0.08510   0.98835   0.00000  Uiso   1.00
H216   H     0.58494   0.19306   0.94195   0.00000  Uiso   1.00
H217   H     0.74852   0.04866   0.02890   0.00000  Uiso   1.00
H218   H     0.51554   0.00772   0.97849   0.00000  Uiso   1.00
H219   H     0.54886   0.32198   0.91531   0.00000  Uiso   1.00
H220   H     0.89377   0.01749   0.09864   0.00000  Uiso   1.00
H221   H     0.40248   0.93117   0.99234   0.00000  Uiso   1.00
O222   O     0.52253   0.42474   0.97004   0.00000  Uiso   1.00
O223   O     0.97504   0.02525   0.21056   0.00000  Uiso   1.00
O224   O     0.33048   0.91200   0.07110   0.00000  Uiso   1.00
N225   N     0.54438   0.35374   0.04677   0.00000  Uiso   1.00
N226   N     0.86685   0.06907   0.21817   0.00000  Uiso   1.00
N227   N     0.40755   0.98836   0.11879   0.00000  Uiso   1.00
N228   N     0.55051   0.32096   0.95874   0.00000  Uiso   1.00
N229   N     0.87299   0.03629   0.13014   0.00000  Uiso   1.00
N230   N     0.41369   0.95558   0.03077   0.00000  Uiso   1.00
C231   C     0.46972   0.87609   0.26128   0.00000  Uiso   1.00
C232   C     0.43393   0.93702   0.27215   0.00000  Uiso   1.00
C233   C     0.36084   0.94950   0.25792   0.00000  Uiso   1.00
C234   C     0.33877   0.00805   0.27146   0.00000  Uiso   1.00
C235   C     0.27569   0.09588   0.28429   0.00000  Uiso   1.00
C236   C     0.51808   0.85640   0.32186   0.00000  Uiso   1.00
C237   C     0.51574   0.80110   0.34940   0.00000  Uiso   1.00
C238   C     0.56452   0.79180   0.40479   0.00000  Uiso   1.00
C239   C     0.63213   0.75446   0.49477   0.00000  Uiso   1.00
C240   C     0.51936   0.89090   0.22367   0.00000  Uiso   1.00
C241   C     0.51812   0.86459   0.16866   0.00000  Uiso   1.00
C242   C     0.56799   0.88431   0.14139   0.00000  Uiso   1.00
C243   C     0.63758   0.90053   0.07891   0.00000  Uiso   1.00
C244   C     0.56050   0.95788   0.31065   0.00000  Uiso   1.00
C245   C     0.48324   0.98144   0.29897   0.00000  Uiso   1.00
C246   C     0.46128   0.03999   0.31254   0.00000  Uiso   1.00
C247   C     0.38816   0.05256   0.29833   0.00000  Uiso   1.00
C248   C     0.56739   0.90083   0.34867   0.00000  Uiso   1.00
C249   C     0.61618   0.89160   0.40403   0.00000  Uiso   1.00
C250   C     0.61392   0.83630   0.43166   0.00000  Uiso   1.00
C251   C     0.56867   0.93532   0.25048   0.00000  Uiso   1.00
C252   C     0.61856   0.95509   0.22329   0.00000  Uiso   1.00
C253   C     0.61739   0.92882   0.16825   0.00000  Uiso   1.00
H254   H     0.43133   0.84150   0.24040   0.00000  Uiso   1.00
H255   H     0.32269   0.91510   0.23717   0.00000  Uiso   1.00
H256   H     0.47758   0.76673   0.32864   0.00000  Uiso   1.00
H257   H     0.47995   0.83021   0.14793   0.00000  Uiso   1.00
H258   H     0.22399   0.01629   0.24543   0.00000  Uiso   1.00
H259   H     0.55060   0.70343   0.43829   0.00000  Uiso   1.00
H260   H     0.55560   0.83729   0.05722   0.00000  Uiso   1.00
H261   H     0.59889   0.99247   0.33153   0.00000  Uiso   1.00
H262   H     0.49945   0.07436   0.33329   0.00000  Uiso   1.00
H263   H     0.65434   0.92599   0.42477   0.00000  Uiso   1.00
H264   H     0.65671   0.98947   0.24405   0.00000  Uiso   1.00
H265   H     0.36745   0.14555   0.32345   0.00000  Uiso   1.00
H266   H     0.69406   0.83269   0.51631   0.00000  Uiso   1.00
H267   H     0.69906   0.96655   0.13524   0.00000  Uiso   1.00
O268   O     0.22728   0.13206   0.28397   0.00000  Uiso   1.00
O269   O     0.65579   0.72159   0.53699   0.00000  Uiso   1.00
O270   O     0.66234   0.89721   0.03704   0.00000  Uiso   1.00
N271   N     0.27140   0.03547   0.26354   0.00000  Uiso   1.00
N272   N     0.57676   0.74298   0.44386   0.00000  Uiso   1.00
N273   N     0.58144   0.86811   0.08759   0.00000  Uiso   1.00
N274   N     0.34860   0.10503   0.30552   0.00000  Uiso   1.00
N275   N     0.65395   0.81253   0.48584   0.00000  Uiso   1.00
N276   N     0.65864   0.93766   0.12958   0.00000  Uiso   1.00
C277   C     0.20670   0.84572   0.34106   0.00000  Uiso   1.00
C278   C     0.27217   0.85134   0.39473   0.00000  Uiso   1.00
C279   C     0.33839   0.87129   0.39335   0.00000  Uiso   1.00
C280   C     0.39140   0.87317   0.44725   0.00000  Uiso   1.00
C281   C     0.49500   0.88458   0.52248   0.00000  Uiso   1.00
C282   C     0.14727   0.88456   0.35628   0.00000  Uiso   1.00
C283   C     0.10847   0.93244   0.32256   0.00000  Uiso   1.00
C284   C     0.05634   0.96229   0.34410   0.00000  Uiso   1.00
C285   C     0.96599   0.02524   0.35960   0.00000  Uiso   1.00
C286   C     0.18449   0.77925   0.33947   0.00000  Uiso   1.00
C287   C     0.17697   0.73859   0.29160   0.00000  Uiso   1.00
C288   C     0.15615   0.67977   0.29897   0.00000  Uiso   1.00
C289   C     0.12359   0.57921   0.28837   0.00000  Uiso   1.00
C290   C     0.18309   0.81358   0.43925   0.00000  Uiso   1.00
C291   C     0.25934   0.83388   0.44806   0.00000  Uiso   1.00
C292   C     0.31227   0.83573   0.50198   0.00000  Uiso   1.00
C293   C     0.37856   0.85568   0.50068   0.00000  Uiso   1.00
C294   C     0.13444   0.86711   0.40961   0.00000  Uiso   1.00
C295   C     0.08235   0.89688   0.43120   0.00000  Uiso   1.00
C296   C     0.04349   0.94480   0.39752   0.00000  Uiso   1.00
C297   C     0.17167   0.76179   0.39280   0.00000  Uiso   1.00
C298   C     0.15085   0.70303   0.40024   0.00000  Uiso   1.00
C299   C     0.14331   0.66228   0.35240   0.00000  Uiso   1.00
H300   H     0.21668   0.85932   0.29954   0.00000  Uiso   1.00
H301   H     0.34829   0.88480   0.35207   0.00000  Uiso   1.00
H302   H     0.11840   0.94594   0.28129   0.00000  Uiso   1.00
H303   H     0.18689   0.75211   0.25034   0.00000  Uiso   1.00
H304   H     0.48854   0.90538   0.43382   0.00000  Uiso   1.00
H305   H     0.00379   0.03428   0.28458   0.00000  Uiso   1.00
H306   H     0.14822   0.62556   0.21931   0.00000  Uiso   1.00
H307   H     0.17311   0.79999   0.48077   0.00000  Uiso   1.00
H308   H     0.30233   0.82222   0.54325   0.00000  Uiso   1.00
H309   H     0.07244   0.88336   0.47247   0.00000  Uiso   1.00
H310   H     0.14093   0.68953   0.44152   0.00000  Uiso   1.00
H311   H     0.45124   0.85459   0.58899   0.00000  Uiso   1.00
H312   H     0.96649   0.98348   0.43974   0.00000  Uiso   1.00
H313   H     0.11092   0.57477   0.37448   0.00000  Uiso   1.00
O314   O     0.55567   0.89570   0.54924   0.00000  Uiso   1.00
O315   O     0.91970   0.06480   0.35342   0.00000  Uiso   1.00
O316   O     0.10918   0.52857   0.26779   0.00000  Uiso   1.00
N317   N     0.46203   0.89036   0.46177   0.00000  Uiso   1.00
N318   N     0.00883   0.01088   0.32224   0.00000  Uiso   1.00
N319   N     0.14384   0.62877   0.26121   0.00000  Uiso   1.00
N320   N     0.44196   0.86303   0.54526   0.00000  Uiso   1.00
N321   N     0.98876   0.98355   0.40573   0.00000  Uiso   1.00
N322   N     0.12376   0.60144   0.34470   0.00000  Uiso   1.00
C323   C     0.77715   0.37208   0.14229   0.00000  Uiso   1.00
C324   C     0.79839   0.34885   0.08729   0.00000  Uiso   1.00
C325   C     0.78556   0.29101   0.06118   0.00000  Uiso   1.00
C326   C     0.80918   0.27865   0.01110   0.00000  Uiso   1.00
C327   C     0.83678   0.23591   0.92919   0.00000  Uiso   1.00
C328   C     0.73155   0.43048   0.12339   0.00000  Uiso   1.00
C329   C     0.66253   0.44127   0.12764   0.00000  Uiso   1.00
C330   C     0.62989   0.49763   0.10795   0.00000  Uiso   1.00
C331   C     0.55373   0.58164   0.08213   0.00000  Uiso   1.00
C332   C     0.84589   0.39234   0.18705   0.00000  Uiso   1.00
C333   C     0.87300   0.37107   0.24484   0.00000  Uiso   1.00
C334   C     0.93662   0.39533   0.27875   0.00000  Uiso   1.00
C335   C     0.03800   0.42012   0.35178   0.00000  Uiso   1.00
C336   C     0.84192   0.45298   0.09978   0.00000  Uiso   1.00
C337   C     0.83357   0.39280   0.06420   0.00000  Uiso   1.00
C338   C     0.85722   0.38052   0.01415   0.00000  Uiso   1.00
C339   C     0.84443   0.32267   0.98797   0.00000  Uiso   1.00
C340   C     0.76673   0.47443   0.10030   0.00000  Uiso   1.00
C341   C     0.73419   0.53078   0.08061   0.00000  Uiso   1.00
C342   C     0.66513   0.54165   0.08482   0.00000  Uiso   1.00
C343   C     0.88108   0.43628   0.16396   0.00000  Uiso   1.00
C344   C     0.94466   0.46058   0.19780   0.00000  Uiso   1.00
C345   C     0.97187   0.43935   0.25562   0.00000  Uiso   1.00
H346   H     0.74976   0.33787   0.16026   0.00000  Uiso   1.00
H347   H     0.75833   0.25702   0.07906   0.00000  Uiso   1.00
H348   H     0.63532   0.40726   0.14551   0.00000  Uiso   1.00
H349   H     0.84576   0.33707   0.26269   0.00000  Uiso   1.00
H350   H     0.78332   0.18677   0.97883   0.00000  Uiso   1.00
H351   H     0.52395   0.50356   0.11897   0.00000  Uiso   1.00
H352   H     0.96771   0.35555   0.36606   0.00000  Uiso   1.00
H353   H     0.86931   0.48720   0.08181   0.00000  Uiso   1.00
H354   H     0.88445   0.41454   0.99629   0.00000  Uiso   1.00
H355   H     0.76143   0.56478   0.06275   0.00000  Uiso   1.00
H356   H     0.97188   0.49459   0.17992   0.00000  Uiso   1.00
H357   H     0.88568   0.31462   0.91165   0.00000  Uiso   1.00
H358   H     0.62631   0.63142   0.05180   0.00000  Uiso   1.00
H359   H     0.07007   0.48340   0.29888   0.00000  Uiso   1.00
O360   O     0.84227   0.20021   0.89039   0.00000  Uiso   1.00
O361   O     0.50200   0.61584   0.07427   0.00000  Uiso   1.00
O362   O     0.08421   0.42165   0.39843   0.00000  Uiso   1.00
N363   N     0.80535   0.22682   0.97476   0.00000  Uiso   1.00
N364   N     0.56285   0.52301   0.10578   0.00000  Uiso   1.00
N365   N     0.97772   0.38464   0.33679   0.00000  Uiso   1.00
N366   N     0.86043   0.29562   0.93861   0.00000  Uiso   1.00
N367   N     0.61793   0.59180   0.06963   0.00000  Uiso   1.00
N368   N     0.03280   0.45344   0.30064   0.00000  Uiso   1.00
C369   C     0.88803   0.48916   0.60538   0.00000  Uiso   1.00
C370   C     0.88396   0.42121   0.61774   0.00000  Uiso   1.00
C371   C     0.88829   0.39631   0.67285   0.00000  Uiso   1.00
C372   C     0.88339   0.33306   0.67487   0.00000  Uiso   1.00
C373   C     0.87839   0.23317   0.70184   0.00000  Uiso   1.00
C374   C     0.81983   0.50576   0.55680   0.00000  Uiso   1.00
C375   C     0.77024   0.55196   0.56068   0.00000  Uiso   1.00
C376   C     0.71137   0.55988   0.51139   0.00000  Uiso   1.00
C377   C     0.60682   0.59129   0.44375   0.00000  Uiso   1.00
C378   C     0.94908   0.49387   0.57690   0.00000  Uiso   1.00
C379   C     0.00815   0.53010   0.59766   0.00000  Uiso   1.00
C380   C     0.05809   0.52803   0.56528   0.00000  Uiso   1.00
C381   C     0.15422   0.54099   0.52885   0.00000  Uiso   1.00
C382   C     0.87166   0.42110   0.51095   0.00000  Uiso   1.00
C383   C     0.87506   0.38424   0.56644   0.00000  Uiso   1.00
C384   C     0.87017   0.32101   0.56837   0.00000  Uiso   1.00
C385   C     0.87448   0.29602   0.62348   0.00000  Uiso   1.00
C386   C     0.81093   0.46879   0.50551   0.00000  Uiso   1.00
C387   C     0.75212   0.47665   0.45620   0.00000  Uiso   1.00
C388   C     0.70245   0.52285   0.46001   0.00000  Uiso   1.00
C389   C     0.94018   0.45690   0.52560   0.00000  Uiso   1.00
C390   C     0.99003   0.45479   0.49319   0.00000  Uiso   1.00
C391   C     0.04917   0.49100   0.51390   0.00000  Uiso   1.00
H392   H     0.89496   0.51795   0.64531   0.00000  Uiso   1.00
H393   H     0.89516   0.42494   0.71253   0.00000  Uiso   1.00
H394   H     0.77714   0.58056   0.60038   0.00000  Uiso   1.00
H395   H     0.01502   0.55870   0.63735   0.00000  Uiso   1.00
H396   H     0.89144   0.30553   0.76444   0.00000  Uiso   1.00
H397   H     0.64260   0.63368   0.52794   0.00000  Uiso   1.00
H398   H     0.14421   0.58758   0.60592   0.00000  Uiso   1.00
H399   H     0.86473   0.39231   0.47102   0.00000  Uiso   1.00
H400   H     0.86328   0.29241   0.52867   0.00000  Uiso   1.00
H401   H     0.74526   0.44803   0.41652   0.00000  Uiso   1.00
H402   H     0.98313   0.42617   0.45350   0.00000  Uiso   1.00
H403   H     0.86556   0.19796   0.61521   0.00000  Uiso   1.00
H404   H     0.61672   0.52612   0.37871   0.00000  Uiso   1.00
H405   H     0.11833   0.48002   0.45669   0.00000  Uiso   1.00
O406   O     0.87807   0.18829   0.73089   0.00000  Uiso   1.00
O407   O     0.55161   0.61883   0.42061   0.00000  Uiso   1.00
O408   O     0.20971   0.55835   0.52292   0.00000  Uiso   1.00
N409   N     0.88557   0.29392   0.72141   0.00000  Uiso   1.00
N410   N     0.65291   0.60072   0.50030   0.00000  Uiso   1.00
N411   N     0.12186   0.55763   0.57319   0.00000  Uiso   1.00
N412   N     0.87164   0.23604   0.64111   0.00000  Uiso   1.00
N413   N     0.63898   0.54284   0.42000   0.00000  Uiso   1.00
N414   N     0.10793   0.49975   0.49289   0.00000  Uiso   1.00
C415   C     0.19081   0.27649   0.19163   0.00000  Uiso   1.00
C416   C     0.26806   0.25990   0.19343   0.00000  Uiso   1.00
C417   C     0.32313   0.24695   0.24436   0.00000  Uiso   1.00
C418   C     0.39002   0.23280   0.23661   0.00000  Uiso   1.00
C419   C     0.50826   0.20724   0.24803   0.00000  Uiso   1.00
C420   C     0.17343   0.33824   0.16057   0.00000  Uiso   1.00
C421   C     0.14893   0.39114   0.18388   0.00000  Uiso   1.00
C422   C     0.13616   0.44294   0.14846   0.00000  Uiso   1.00
C423   C     0.10744   0.53899   0.10885   0.00000  Uiso   1.00
C424   C     0.14523   0.22992   0.14938   0.00000  Uiso   1.00
C425   C     0.09700   0.19176   0.16328   0.00000  Uiso   1.00
C426   C     0.06047   0.15237   0.11844   0.00000  Uiso   1.00
C427   C     0.98796   0.08024   0.06145   0.00000  Uiso   1.00
C428   C     0.21167   0.27441   0.08728   0.00000  Uiso   1.00
C429   C     0.27939   0.25877   0.13675   0.00000  Uiso   1.00
C430   C     0.34622   0.24464   0.12892   0.00000  Uiso   1.00
C431   C     0.40138   0.23167   0.17983   0.00000  Uiso   1.00
C432   C     0.18477   0.33711   0.10389   0.00000  Uiso   1.00
C433   C     0.17202   0.38884   0.06843   0.00000  Uiso   1.00
C434   C     0.14751   0.44181   0.09168   0.00000  Uiso   1.00
C435   C     0.15657   0.22879   0.09270   0.00000  Uiso   1.00
C436   C     0.12010   0.18945   0.04783   0.00000  Uiso   1.00
C437   C     0.07182   0.15124   0.06166   0.00000  Uiso   1.00
H438   H     0.18198   0.27738   0.23575   0.00000  Uiso   1.00
H439   H     0.31434   0.24783   0.28822   0.00000  Uiso   1.00
H440   H     0.14016   0.39201   0.22774   0.00000  Uiso   1.00
H441   H     0.08824   0.19265   0.20714   0.00000  Uiso   1.00
H442   H     0.46609   0.21460   0.32140   0.00000  Uiso   1.00
H443   H     0.09880   0.51859   0.19386   0.00000  Uiso   1.00
H444   H     0.98932   0.09821   0.15043   0.00000  Uiso   1.00
H445   H     0.22050   0.27353   0.04315   0.00000  Uiso   1.00
H446   H     0.35497   0.24377   0.08505   0.00000  Uiso   1.00
H447   H     0.18080   0.38794   0.02457   0.00000  Uiso   1.00
H448   H     0.12888   0.18859   0.00397   0.00000  Uiso   1.00
H449   H     0.49907   0.21130   0.15650   0.00000  Uiso   1.00
H450   H     0.13178   0.51529   0.02896   0.00000  Uiso   1.00
H451   H     0.02230   0.09492   0.98553   0.00000  Uiso   1.00
O452   O     0.57035   0.19346   0.26999   0.00000  Uiso   1.00
O453   O     0.08847   0.59228   0.10266   0.00000  Uiso   1.00
O454   O     0.94484   0.04076   0.04568   0.00000  Uiso   1.00
N455   N     0.45539   0.21790   0.27684   0.00000  Uiso   1.00
N456   N     0.11201   0.50211   0.15760   0.00000  Uiso   1.00
N457   N     0.00964   0.10911   0.11699   0.00000  Uiso   1.00
N458   N     0.47314   0.21612   0.18811   0.00000  Uiso   1.00
N459   N     0.12976   0.50033   0.06887   0.00000  Uiso   1.00
N460   N     0.02739   0.10733   0.02826   0.00000  Uiso   1.00
C461   C     0.70568   0.83472   0.80155   0.00000  Uiso   1.00
C462   C     0.72704   0.77502   0.83573   0.00000  Uiso   1.00
C463   C     0.74480   0.71952   0.81223   0.00000  Uiso   1.00
C464   C     0.76281   0.67025   0.85080   0.00000  Uiso   1.00
C465   C     0.79591   0.57661   0.89476   0.00000  Uiso   1.00
C466   C     0.63271   0.85448   0.80891   0.00000  Uiso   1.00
C467   C     0.57116   0.86579   0.76285   0.00000  Uiso   1.00
C468   C     0.50977   0.88341   0.77884   0.00000  Uiso   1.00
C469   C     0.39643   0.91317   0.78116   0.00000  Uiso   1.00
C470   C     0.75756   0.88235   0.83559   0.00000  Uiso   1.00
C471   C     0.80097   0.91711   0.81196   0.00000  Uiso   1.00
C472   C     0.84468   0.95820   0.85042   0.00000  Uiso   1.00
C473   C     0.92519   0.03124   0.89416   0.00000  Uiso   1.00
C474   C     0.70609   0.84591   0.91185   0.00000  Uiso   1.00
C475   C     0.72726   0.78110   0.89565   0.00000  Uiso   1.00
C476   C     0.74525   0.73190   0.93427   0.00000  Uiso   1.00
C477   C     0.76303   0.67633   0.91082   0.00000  Uiso   1.00
C478   C     0.63293   0.86055   0.86882   0.00000  Uiso   1.00
C479   C     0.57161   0.87817   0.88489   0.00000  Uiso   1.00
C480   C     0.50999   0.88950   0.83886   0.00000  Uiso   1.00
C481   C     0.75778   0.88842   0.89551   0.00000  Uiso   1.00
C482   C     0.80142   0.92948   0.93400   0.00000  Uiso   1.00
C483   C     0.84490   0.96429   0.91044   0.00000  Uiso   1.00
H484   H     0.70551   0.82999   0.75490   0.00000  Uiso   1.00
H485   H     0.74462   0.71483   0.76585   0.00000  Uiso   1.00
H486   H     0.57101   0.86109   0.71649   0.00000  Uiso   1.00
H487   H     0.80079   0.91239   0.76560   0.00000  Uiso   1.00
H488   H     0.78805   0.58983   0.80441   0.00000  Uiso   1.00
H489   H     0.42200   0.89823   0.70032   0.00000  Uiso   1.00
H490   H     0.90653   0.00642   0.80387   0.00000  Uiso   1.00
H491   H     0.70626   0.85065   0.95850   0.00000  Uiso   1.00
H492   H     0.74541   0.73661   0.98063   0.00000  Uiso   1.00
H493   H     0.57180   0.88287   0.93126   0.00000  Uiso   1.00
H494   H     0.80158   0.93417   0.98037   0.00000  Uiso   1.00
H495   H     0.78869   0.60751   0.97873   0.00000  Uiso   1.00
H496   H     0.42264   0.91591   0.87464   0.00000  Uiso   1.00
H497   H     0.90717   0.02410   0.97819   0.00000  Uiso   1.00
O498   O     0.81409   0.52328   0.90245   0.00000  Uiso   1.00
O499   O     0.33385   0.92790   0.76588   0.00000  Uiso   1.00
O500   O     0.96954   0.06983   0.90174   0.00000  Uiso   1.00
N501   N     0.78284   0.60964   0.84241   0.00000  Uiso   1.00
N502   N     0.44060   0.89797   0.74508   0.00000  Uiso   1.00
N503   N     0.89358   0.99913   0.84189   0.00000  Uiso   1.00
N504   N     0.78319   0.61915   0.93620   0.00000  Uiso   1.00
N505   N     0.44095   0.90748   0.83888   0.00000  Uiso   1.00
N506   N     0.89393   0.00864   0.93569   0.00000  Uiso   1.00
C507   C     0.74558   0.04565   0.64738   0.00000  Uiso   1.00
C508   C     0.75877   0.97707   0.63876   0.00000  Uiso   1.00
C509   C     0.82129   0.94963   0.63155   0.00000  Uiso   1.00
C510   C     0.82275   0.88623   0.62428   0.00000  Uiso   1.00
C511   C     0.85218   0.78501   0.61087   0.00000  Uiso   1.00
C512   C     0.67895   0.06379   0.59781   0.00000  Uiso   1.00
C513   C     0.67436   0.10927   0.55617   0.00000  Uiso   1.00
C514   C     0.60861   0.11887   0.51443   0.00000  Uiso   1.00
C515   C     0.51411   0.15232   0.43748   0.00000  Uiso   1.00
C516   C     0.72461   0.05237   0.70549   0.00000  Uiso   1.00
C517   C     0.75839   0.08826   0.75440   0.00000  Uiso   1.00
C518   C     0.73108   0.08826   0.80332   0.00000  Uiso   1.00
C519   C     0.70746   0.10398   0.89357   0.00000  Uiso   1.00
C520   C     0.63698   0.98184   0.64729   0.00000  Uiso   1.00
C521   C     0.69978   0.94241   0.63871   0.00000  Uiso   1.00
C522   C     0.70114   0.87903   0.63146   0.00000  Uiso   1.00
C523   C     0.76366   0.85150   0.62423   0.00000  Uiso   1.00
C524   C     0.61996   0.02913   0.59776   0.00000  Uiso   1.00
C525   C     0.55421   0.03867   0.55608   0.00000  Uiso   1.00
C526   C     0.54952   0.08415   0.51439   0.00000  Uiso   1.00
C527   C     0.66562   0.01771   0.70545   0.00000  Uiso   1.00
C528   C     0.63824   0.01765   0.75431   0.00000  Uiso   1.00
C529   C     0.67198   0.05354   0.80327   0.00000  Uiso   1.00
H530   H     0.79150   0.07264   0.64741   0.00000  Uiso   1.00
H531   H     0.86693   0.97647   0.63158   0.00000  Uiso   1.00
H532   H     0.72001   0.13609   0.55622   0.00000  Uiso   1.00
H533   H     0.80404   0.11508   0.75441   0.00000  Uiso   1.00
H534   H     0.92453   0.85457   0.61399   0.00000  Uiso   1.00
H535   H     0.61475   0.19115   0.45510   0.00000  Uiso   1.00
H536   H     0.79192   0.14685   0.87303   0.00000  Uiso   1.00
H537   H     0.59106   0.95485   0.64726   0.00000  Uiso   1.00
H538   H     0.65549   0.85222   0.63142   0.00000  Uiso   1.00
H539   H     0.50857   0.01184   0.55606   0.00000  Uiso   1.00
H540   H     0.59259   0.99083   0.75426   0.00000  Uiso   1.00
H541   H     0.75291   0.75372   0.61386   0.00000  Uiso   1.00
H542   H     0.44313   0.09030   0.45497   0.00000  Uiso   1.00
H543   H     0.62030   0.04600   0.87291   0.00000  Uiso   1.00
O544   O     0.88471   0.73876   0.60349   0.00000  Uiso   1.00
O545   O     0.47829   0.18035   0.39505   0.00000  Uiso   1.00
O546   O     0.71074   0.12222   0.94336   0.00000  Uiso   1.00
N547   N     0.87530   0.84492   0.61614   0.00000  Uiso   1.00
N548   N     0.58568   0.15960   0.46759   0.00000  Uiso   1.00
N549   N     0.75131   0.11819   0.85831   0.00000  Uiso   1.00
N550   N     0.78296   0.79065   0.61607   0.00000  Uiso   1.00
N551   N     0.49333   0.10533   0.46752   0.00000  Uiso   1.00
N552   N     0.65896   0.06392   0.85824   0.00000  Uiso   1.00
