data_job_01241
_audit_creation_date              2018-12-19
_audit_creation_method            'Materials Studio'
_symmetry_space_group_name_H-M    'P1'
_symmetry_Int_Tables_number       1
_symmetry_cell_setting            triclinic
loop_
_symmetry_equiv_pos_as_xyz
  x,y,z
_cell_length_a                    14.8005
_cell_length_b                    31.4847
_cell_length_c                    11.7438
_cell_angle_alpha                 90.0000
_cell_angle_beta                  90.0000
_cell_angle_gamma                 90.0000
loop_
_atom_site_label
_atom_site_type_symbol
_atom_site_fract_x
_atom_site_fract_y
_atom_site_fract_z
_atom_site_U_iso_or_equiv
_atom_site_adp_type
_atom_site_occupancy
C1     C     0.18893   0.12497   0.90355   0.00000  Uiso   1.00
C2     C     0.24388   0.08649   0.94124   0.00000  Uiso   1.00
C3     C     0.21474   0.04460   0.93905   0.00000  Uiso   1.00
C4     C     0.27512   0.01399   0.97715   0.00000  Uiso   1.00
C5     C     0.34729   0.95257   0.02981   0.00000  Uiso   1.00
C6     C     0.18649   0.15493   0.00553   0.00000  Uiso   1.00
C7     C     0.10909   0.17059   0.05740   0.00000  Uiso   1.00
C8     C     0.12116   0.19760   0.14961   0.00000  Uiso   1.00
C9     C     0.10423   0.24247   0.30204   0.00000  Uiso   1.00
C10    C     0.24541   0.14729   0.81292   0.00000  Uiso   1.00
C11    C     0.21755   0.15653   0.70284   0.00000  Uiso   1.00
C12    C     0.27922   0.17712   0.63289   0.00000  Uiso   1.00
C13    C     0.35376   0.21012   0.48625   0.00000  Uiso   1.00
C14    C     0.34797   0.14509   0.97509   0.00000  Uiso   1.00
C15    C     0.33026   0.09742   0.98009   0.00000  Uiso   1.00
C16    C     0.39070   0.06686   0.01820   0.00000  Uiso   1.00
C17    C     0.36166   0.02493   0.01607   0.00000  Uiso   1.00
C18    C     0.27286   0.16586   0.04439   0.00000  Uiso   1.00
C19    C     0.28505   0.19285   0.13654   0.00000  Uiso   1.00
C20    C     0.20770   0.20855   0.18854   0.00000  Uiso   1.00
C21    C     0.33179   0.15821   0.85177   0.00000  Uiso   1.00
C22    C     0.39351   0.17879   0.78198   0.00000  Uiso   1.00
C23    C     0.36576   0.18807   0.67181   0.00000  Uiso   1.00
H24    H     0.12168   0.11646   0.87331   0.00000  Uiso   1.00
H25    H     0.14788   0.03615   0.90899   0.00000  Uiso   1.00
H26    H     0.04226   0.16213   0.02730   0.00000  Uiso   1.00
H27    H     0.15070   0.14807   0.67280   0.00000  Uiso   1.00
H28    H     0.21503   0.95194   0.96572   0.00000  Uiso   1.00
H29    H     0.99230   0.21758   0.21517   0.00000  Uiso   1.00
H30    H     0.22097   0.18793   0.46763   0.00000  Uiso   1.00
H31    H     0.41522   0.15360   0.00534   0.00000  Uiso   1.00
H32    H     0.45754   0.07533   0.04826   0.00000  Uiso   1.00
H33    H     0.35191   0.20131   0.16658   0.00000  Uiso   1.00
H34    H     0.46035   0.18725   0.81208   0.00000  Uiso   1.00
H35    H     0.46635   0.98373   0.07877   0.00000  Uiso   1.00
H36    H     0.24363   0.24938   0.32822   0.00000  Uiso   1.00
H37    H     0.47230   0.21973   0.58068   0.00000  Uiso   1.00
O38    O     0.36322   0.91567   0.04813   0.00000  Uiso   1.00
O39    O     0.07101   0.26419   0.37539   0.00000  Uiso   1.00
O40    O     0.37102   0.22529   0.39463   0.00000  Uiso   1.00
N41    N     0.26838   0.97016   0.98641   0.00000  Uiso   1.00
N42    N     0.06014   0.21852   0.21965   0.00000  Uiso   1.00
N43    N     0.27392   0.19081   0.52077   0.00000  Uiso   1.00
N44    N     0.40361   0.98727   0.04724   0.00000  Uiso   1.00
N45    N     0.19538   0.23562   0.28048   0.00000  Uiso   1.00
N46    N     0.40915   0.20792   0.58160   0.00000  Uiso   1.00
C47    C     0.31107   0.87503   0.40355   0.00000  Uiso   1.00
C48    C     0.25612   0.91351   0.44124   0.00000  Uiso   1.00
C49    C     0.28526   0.95540   0.43905   0.00000  Uiso   1.00
C50    C     0.22488   0.98601   0.47715   0.00000  Uiso   1.00
C51    C     0.15271   0.04743   0.52981   0.00000  Uiso   1.00
C52    C     0.31351   0.84507   0.50553   0.00000  Uiso   1.00
C53    C     0.39091   0.82941   0.55740   0.00000  Uiso   1.00
C54    C     0.37884   0.80240   0.64961   0.00000  Uiso   1.00
C55    C     0.39577   0.75753   0.80204   0.00000  Uiso   1.00
C56    C     0.25459   0.85271   0.31292   0.00000  Uiso   1.00
C57    C     0.28245   0.84347   0.20284   0.00000  Uiso   1.00
C58    C     0.22078   0.82288   0.13289   0.00000  Uiso   1.00
C59    C     0.14624   0.78988   0.98625   0.00000  Uiso   1.00
C60    C     0.15203   0.85491   0.47509   0.00000  Uiso   1.00
C61    C     0.16974   0.90258   0.48009   0.00000  Uiso   1.00
C62    C     0.10930   0.93314   0.51820   0.00000  Uiso   1.00
C63    C     0.13834   0.97507   0.51607   0.00000  Uiso   1.00
C64    C     0.22714   0.83414   0.54439   0.00000  Uiso   1.00
C65    C     0.21495   0.80715   0.63654   0.00000  Uiso   1.00
C66    C     0.29230   0.79145   0.68854   0.00000  Uiso   1.00
C67    C     0.16821   0.84179   0.35177   0.00000  Uiso   1.00
C68    C     0.10649   0.82121   0.28198   0.00000  Uiso   1.00
C69    C     0.13424   0.81193   0.17181   0.00000  Uiso   1.00
H70    H     0.37832   0.88354   0.37331   0.00000  Uiso   1.00
H71    H     0.35212   0.96385   0.40899   0.00000  Uiso   1.00
H72    H     0.45774   0.83787   0.52730   0.00000  Uiso   1.00
H73    H     0.34930   0.85193   0.17280   0.00000  Uiso   1.00
H74    H     0.28497   0.04806   0.46572   0.00000  Uiso   1.00
H75    H     0.50770   0.78242   0.71517   0.00000  Uiso   1.00
H76    H     0.27903   0.81207   0.96763   0.00000  Uiso   1.00
H77    H     0.08478   0.84640   0.50534   0.00000  Uiso   1.00
H78    H     0.04246   0.92467   0.54826   0.00000  Uiso   1.00
H79    H     0.14809   0.79869   0.66658   0.00000  Uiso   1.00
H80    H     0.03965   0.81275   0.31208   0.00000  Uiso   1.00
H81    H     0.03365   0.01627   0.57877   0.00000  Uiso   1.00
H82    H     0.25637   0.75062   0.82822   0.00000  Uiso   1.00
H83    H     0.02770   0.78027   0.08068   0.00000  Uiso   1.00
O84    O     0.13678   0.08433   0.54813   0.00000  Uiso   1.00
O85    O     0.42899   0.73581   0.87539   0.00000  Uiso   1.00
O86    O     0.12898   0.77471   0.89463   0.00000  Uiso   1.00
N87    N     0.23162   0.02984   0.48641   0.00000  Uiso   1.00
N88    N     0.43986   0.78148   0.71965   0.00000  Uiso   1.00
N89    N     0.22608   0.80919   0.02077   0.00000  Uiso   1.00
N90    N     0.09639   0.01273   0.54724   0.00000  Uiso   1.00
N91    N     0.30462   0.76438   0.78048   0.00000  Uiso   1.00
N92    N     0.09085   0.79208   0.08160   0.00000  Uiso   1.00
C93    C     0.81107   0.62497   0.59645   0.00000  Uiso   1.00
C94    C     0.75612   0.58649   0.55876   0.00000  Uiso   1.00
C95    C     0.78526   0.54460   0.56095   0.00000  Uiso   1.00
C96    C     0.72488   0.51399   0.52285   0.00000  Uiso   1.00
C97    C     0.65271   0.45257   0.47019   0.00000  Uiso   1.00
C98    C     0.81351   0.65493   0.49447   0.00000  Uiso   1.00
C99    C     0.89091   0.67059   0.44260   0.00000  Uiso   1.00
C100   C     0.87884   0.69760   0.35039   0.00000  Uiso   1.00
C101   C     0.89577   0.74247   0.19796   0.00000  Uiso   1.00
C102   C     0.75459   0.64729   0.68708   0.00000  Uiso   1.00
C103   C     0.78245   0.65653   0.79716   0.00000  Uiso   1.00
C104   C     0.72078   0.67712   0.86711   0.00000  Uiso   1.00
C105   C     0.64624   0.71012   0.01375   0.00000  Uiso   1.00
C106   C     0.65203   0.64509   0.52491   0.00000  Uiso   1.00
C107   C     0.66974   0.59742   0.51991   0.00000  Uiso   1.00
C108   C     0.60930   0.56686   0.48180   0.00000  Uiso   1.00
C109   C     0.63834   0.52493   0.48393   0.00000  Uiso   1.00
C110   C     0.72714   0.66586   0.45561   0.00000  Uiso   1.00
C111   C     0.71495   0.69285   0.36346   0.00000  Uiso   1.00
C112   C     0.79230   0.70855   0.31146   0.00000  Uiso   1.00
C113   C     0.66821   0.65821   0.64823   0.00000  Uiso   1.00
C114   C     0.60649   0.67879   0.71802   0.00000  Uiso   1.00
C115   C     0.63424   0.68807   0.82819   0.00000  Uiso   1.00
H116   H     0.87832   0.61646   0.62669   0.00000  Uiso   1.00
H117   H     0.85212   0.53615   0.59101   0.00000  Uiso   1.00
H118   H     0.95774   0.66213   0.47270   0.00000  Uiso   1.00
H119   H     0.84930   0.64807   0.82720   0.00000  Uiso   1.00
H120   H     0.78497   0.45194   0.53428   0.00000  Uiso   1.00
H121   H     0.00770   0.71758   0.28483   0.00000  Uiso   1.00
H122   H     0.77903   0.68793   0.03237   0.00000  Uiso   1.00
H123   H     0.58478   0.65360   0.49466   0.00000  Uiso   1.00
H124   H     0.54246   0.57533   0.45174   0.00000  Uiso   1.00
H125   H     0.64809   0.70131   0.33342   0.00000  Uiso   1.00
H126   H     0.53965   0.68725   0.68792   0.00000  Uiso   1.00
H127   H     0.53365   0.48373   0.42123   0.00000  Uiso   1.00
H128   H     0.75637   0.74938   0.17178   0.00000  Uiso   1.00
H129   H     0.52770   0.71973   0.91932   0.00000  Uiso   1.00
O130   O     0.63678   0.41567   0.45187   0.00000  Uiso   1.00
O131   O     0.92899   0.76419   0.12461   0.00000  Uiso   1.00
O132   O     0.62898   0.72529   0.10537   0.00000  Uiso   1.00
N133   N     0.73162   0.47016   0.51359   0.00000  Uiso   1.00
N134   N     0.93986   0.71852   0.28035   0.00000  Uiso   1.00
N135   N     0.72608   0.69081   0.97923   0.00000  Uiso   1.00
N136   N     0.59639   0.48727   0.45276   0.00000  Uiso   1.00
N137   N     0.80462   0.73562   0.21952   0.00000  Uiso   1.00
N138   N     0.59085   0.70792   0.91840   0.00000  Uiso   1.00
C139   C     0.68893   0.37503   0.09645   0.00000  Uiso   1.00
C140   C     0.74388   0.41351   0.05876   0.00000  Uiso   1.00
C141   C     0.71474   0.45540   0.06095   0.00000  Uiso   1.00
C142   C     0.77512   0.48601   0.02285   0.00000  Uiso   1.00
C143   C     0.84729   0.54743   0.97019   0.00000  Uiso   1.00
C144   C     0.68649   0.34507   0.99447   0.00000  Uiso   1.00
C145   C     0.60909   0.32941   0.94260   0.00000  Uiso   1.00
C146   C     0.62116   0.30240   0.85039   0.00000  Uiso   1.00
C147   C     0.60423   0.25753   0.69796   0.00000  Uiso   1.00
C148   C     0.74541   0.35271   0.18708   0.00000  Uiso   1.00
C149   C     0.71755   0.34347   0.29716   0.00000  Uiso   1.00
C150   C     0.77922   0.32288   0.36711   0.00000  Uiso   1.00
C151   C     0.85376   0.28988   0.51375   0.00000  Uiso   1.00
C152   C     0.84797   0.35491   0.02491   0.00000  Uiso   1.00
C153   C     0.83026   0.40258   0.01991   0.00000  Uiso   1.00
C154   C     0.89070   0.43314   0.98180   0.00000  Uiso   1.00
C155   C     0.86166   0.47507   0.98393   0.00000  Uiso   1.00
C156   C     0.77286   0.33414   0.95561   0.00000  Uiso   1.00
C157   C     0.78505   0.30715   0.86346   0.00000  Uiso   1.00
C158   C     0.70770   0.29145   0.81146   0.00000  Uiso   1.00
C159   C     0.83179   0.34179   0.14823   0.00000  Uiso   1.00
C160   C     0.89351   0.32121   0.21802   0.00000  Uiso   1.00
C161   C     0.86576   0.31193   0.32819   0.00000  Uiso   1.00
H162   H     0.62168   0.38354   0.12669   0.00000  Uiso   1.00
H163   H     0.64788   0.46385   0.09101   0.00000  Uiso   1.00
H164   H     0.54226   0.33787   0.97270   0.00000  Uiso   1.00
H165   H     0.65070   0.35193   0.32720   0.00000  Uiso   1.00
H166   H     0.71503   0.54806   0.03428   0.00000  Uiso   1.00
H167   H     0.49230   0.28242   0.78483   0.00000  Uiso   1.00
H168   H     0.72097   0.31207   0.53237   0.00000  Uiso   1.00
H169   H     0.91522   0.34640   0.99466   0.00000  Uiso   1.00
H170   H     0.95754   0.42467   0.95174   0.00000  Uiso   1.00
H171   H     0.85191   0.29869   0.83342   0.00000  Uiso   1.00
H172   H     0.96035   0.31275   0.18792   0.00000  Uiso   1.00
H173   H     0.96635   0.51627   0.92123   0.00000  Uiso   1.00
H174   H     0.74363   0.25062   0.67178   0.00000  Uiso   1.00
H175   H     0.97230   0.28027   0.41932   0.00000  Uiso   1.00
O176   O     0.86322   0.58433   0.95187   0.00000  Uiso   1.00
O177   O     0.57101   0.23581   0.62461   0.00000  Uiso   1.00
O178   O     0.87102   0.27471   0.60537   0.00000  Uiso   1.00
N179   N     0.76838   0.52984   0.01359   0.00000  Uiso   1.00
N180   N     0.56014   0.28148   0.78035   0.00000  Uiso   1.00
N181   N     0.77392   0.30919   0.47923   0.00000  Uiso   1.00
N182   N     0.90361   0.51273   0.95276   0.00000  Uiso   1.00
N183   N     0.69538   0.26438   0.71952   0.00000  Uiso   1.00
N184   N     0.90915   0.29208   0.41840   0.00000  Uiso   1.00
C185   C     0.81107   0.87503   0.09645   0.00000  Uiso   1.00
C186   C     0.75612   0.91351   0.05876   0.00000  Uiso   1.00
C187   C     0.78526   0.95540   0.06095   0.00000  Uiso   1.00
C188   C     0.72488   0.98601   0.02285   0.00000  Uiso   1.00
C189   C     0.65271   0.04743   0.97019   0.00000  Uiso   1.00
C190   C     0.81351   0.84507   0.99447   0.00000  Uiso   1.00
C191   C     0.89091   0.82941   0.94260   0.00000  Uiso   1.00
C192   C     0.87884   0.80240   0.85039   0.00000  Uiso   1.00
C193   C     0.89577   0.75753   0.69796   0.00000  Uiso   1.00
C194   C     0.75459   0.85271   0.18708   0.00000  Uiso   1.00
C195   C     0.78245   0.84347   0.29716   0.00000  Uiso   1.00
C196   C     0.72078   0.82288   0.36711   0.00000  Uiso   1.00
C197   C     0.64624   0.78988   0.51375   0.00000  Uiso   1.00
C198   C     0.65203   0.85491   0.02491   0.00000  Uiso   1.00
C199   C     0.66974   0.90258   0.01991   0.00000  Uiso   1.00
C200   C     0.60930   0.93314   0.98180   0.00000  Uiso   1.00
C201   C     0.63834   0.97507   0.98393   0.00000  Uiso   1.00
C202   C     0.72714   0.83414   0.95561   0.00000  Uiso   1.00
C203   C     0.71495   0.80715   0.86346   0.00000  Uiso   1.00
C204   C     0.79230   0.79145   0.81146   0.00000  Uiso   1.00
C205   C     0.66821   0.84179   0.14823   0.00000  Uiso   1.00
C206   C     0.60649   0.82121   0.21802   0.00000  Uiso   1.00
C207   C     0.63424   0.81193   0.32819   0.00000  Uiso   1.00
H208   H     0.87832   0.88354   0.12669   0.00000  Uiso   1.00
H209   H     0.85212   0.96385   0.09101   0.00000  Uiso   1.00
H210   H     0.95774   0.83787   0.97270   0.00000  Uiso   1.00
H211   H     0.84930   0.85193   0.32720   0.00000  Uiso   1.00
H212   H     0.78497   0.04806   0.03428   0.00000  Uiso   1.00
H213   H     0.00770   0.78242   0.78483   0.00000  Uiso   1.00
H214   H     0.77903   0.81207   0.53237   0.00000  Uiso   1.00
H215   H     0.58478   0.84640   0.99466   0.00000  Uiso   1.00
H216   H     0.54246   0.92467   0.95174   0.00000  Uiso   1.00
H217   H     0.64809   0.79869   0.83342   0.00000  Uiso   1.00
H218   H     0.53965   0.81275   0.18792   0.00000  Uiso   1.00
H219   H     0.53365   0.01627   0.92123   0.00000  Uiso   1.00
H220   H     0.75637   0.75062   0.67178   0.00000  Uiso   1.00
H221   H     0.52770   0.78027   0.41932   0.00000  Uiso   1.00
O222   O     0.63678   0.08433   0.95187   0.00000  Uiso   1.00
O223   O     0.92899   0.73581   0.62461   0.00000  Uiso   1.00
O224   O     0.62898   0.77471   0.60537   0.00000  Uiso   1.00
N225   N     0.73162   0.02984   0.01359   0.00000  Uiso   1.00
N226   N     0.93986   0.78148   0.78035   0.00000  Uiso   1.00
N227   N     0.72608   0.80919   0.47923   0.00000  Uiso   1.00
N228   N     0.59639   0.01273   0.95276   0.00000  Uiso   1.00
N229   N     0.80462   0.76438   0.71952   0.00000  Uiso   1.00
N230   N     0.59085   0.79208   0.41840   0.00000  Uiso   1.00
C231   C     0.68893   0.12497   0.59645   0.00000  Uiso   1.00
C232   C     0.74388   0.08649   0.55876   0.00000  Uiso   1.00
C233   C     0.71474   0.04460   0.56095   0.00000  Uiso   1.00
C234   C     0.77512   0.01399   0.52285   0.00000  Uiso   1.00
C235   C     0.84729   0.95257   0.47019   0.00000  Uiso   1.00
C236   C     0.68649   0.15493   0.49447   0.00000  Uiso   1.00
C237   C     0.60909   0.17059   0.44260   0.00000  Uiso   1.00
C238   C     0.62116   0.19760   0.35039   0.00000  Uiso   1.00
C239   C     0.60423   0.24247   0.19796   0.00000  Uiso   1.00
C240   C     0.74541   0.14729   0.68708   0.00000  Uiso   1.00
C241   C     0.71755   0.15653   0.79716   0.00000  Uiso   1.00
C242   C     0.77922   0.17712   0.86711   0.00000  Uiso   1.00
C243   C     0.85376   0.21012   0.01375   0.00000  Uiso   1.00
C244   C     0.84797   0.14509   0.52491   0.00000  Uiso   1.00
C245   C     0.83026   0.09742   0.51991   0.00000  Uiso   1.00
C246   C     0.89070   0.06686   0.48180   0.00000  Uiso   1.00
C247   C     0.86166   0.02493   0.48393   0.00000  Uiso   1.00
C248   C     0.77286   0.16586   0.45561   0.00000  Uiso   1.00
C249   C     0.78505   0.19285   0.36346   0.00000  Uiso   1.00
C250   C     0.70770   0.20855   0.31146   0.00000  Uiso   1.00
C251   C     0.83179   0.15821   0.64823   0.00000  Uiso   1.00
C252   C     0.89351   0.17879   0.71802   0.00000  Uiso   1.00
C253   C     0.86576   0.18807   0.82819   0.00000  Uiso   1.00
H254   H     0.62168   0.11646   0.62669   0.00000  Uiso   1.00
H255   H     0.64788   0.03615   0.59101   0.00000  Uiso   1.00
H256   H     0.54226   0.16213   0.47270   0.00000  Uiso   1.00
H257   H     0.65070   0.14807   0.82720   0.00000  Uiso   1.00
H258   H     0.71503   0.95194   0.53428   0.00000  Uiso   1.00
H259   H     0.49230   0.21758   0.28483   0.00000  Uiso   1.00
H260   H     0.72097   0.18793   0.03237   0.00000  Uiso   1.00
H261   H     0.91522   0.15360   0.49466   0.00000  Uiso   1.00
H262   H     0.95754   0.07533   0.45174   0.00000  Uiso   1.00
H263   H     0.85191   0.20131   0.33342   0.00000  Uiso   1.00
H264   H     0.96035   0.18725   0.68792   0.00000  Uiso   1.00
H265   H     0.96635   0.98373   0.42123   0.00000  Uiso   1.00
H266   H     0.74363   0.24938   0.17178   0.00000  Uiso   1.00
H267   H     0.97230   0.21973   0.91932   0.00000  Uiso   1.00
O268   O     0.86322   0.91567   0.45187   0.00000  Uiso   1.00
O269   O     0.57101   0.26419   0.12461   0.00000  Uiso   1.00
O270   O     0.87102   0.22529   0.10537   0.00000  Uiso   1.00
N271   N     0.76838   0.97016   0.51359   0.00000  Uiso   1.00
N272   N     0.56014   0.21852   0.28035   0.00000  Uiso   1.00
N273   N     0.77392   0.19081   0.97923   0.00000  Uiso   1.00
N274   N     0.90361   0.98727   0.45276   0.00000  Uiso   1.00
N275   N     0.69538   0.23562   0.21952   0.00000  Uiso   1.00
N276   N     0.90915   0.20792   0.91840   0.00000  Uiso   1.00
C277   C     0.18893   0.37503   0.40355   0.00000  Uiso   1.00
C278   C     0.24388   0.41351   0.44124   0.00000  Uiso   1.00
C279   C     0.21474   0.45540   0.43905   0.00000  Uiso   1.00
C280   C     0.27512   0.48601   0.47715   0.00000  Uiso   1.00
C281   C     0.34729   0.54743   0.52981   0.00000  Uiso   1.00
C282   C     0.18649   0.34507   0.50553   0.00000  Uiso   1.00
C283   C     0.10909   0.32941   0.55740   0.00000  Uiso   1.00
C284   C     0.12116   0.30240   0.64961   0.00000  Uiso   1.00
C285   C     0.10423   0.25753   0.80204   0.00000  Uiso   1.00
C286   C     0.24541   0.35271   0.31292   0.00000  Uiso   1.00
C287   C     0.21755   0.34347   0.20284   0.00000  Uiso   1.00
C288   C     0.27922   0.32288   0.13289   0.00000  Uiso   1.00
C289   C     0.35376   0.28988   0.98625   0.00000  Uiso   1.00
C290   C     0.34797   0.35491   0.47509   0.00000  Uiso   1.00
C291   C     0.33026   0.40258   0.48009   0.00000  Uiso   1.00
C292   C     0.39070   0.43314   0.51820   0.00000  Uiso   1.00
C293   C     0.36166   0.47507   0.51607   0.00000  Uiso   1.00
C294   C     0.27286   0.33414   0.54439   0.00000  Uiso   1.00
C295   C     0.28505   0.30715   0.63654   0.00000  Uiso   1.00
C296   C     0.20770   0.29145   0.68854   0.00000  Uiso   1.00
C297   C     0.33179   0.34179   0.35177   0.00000  Uiso   1.00
C298   C     0.39351   0.32121   0.28198   0.00000  Uiso   1.00
C299   C     0.36576   0.31193   0.17181   0.00000  Uiso   1.00
H300   H     0.12168   0.38354   0.37331   0.00000  Uiso   1.00
H301   H     0.14788   0.46385   0.40899   0.00000  Uiso   1.00
H302   H     0.04226   0.33787   0.52730   0.00000  Uiso   1.00
H303   H     0.15070   0.35193   0.17280   0.00000  Uiso   1.00
H304   H     0.21503   0.54806   0.46572   0.00000  Uiso   1.00
H305   H     0.99230   0.28242   0.71517   0.00000  Uiso   1.00
H306   H     0.22097   0.31207   0.96763   0.00000  Uiso   1.00
H307   H     0.41522   0.34640   0.50534   0.00000  Uiso   1.00
H308   H     0.45754   0.42467   0.54826   0.00000  Uiso   1.00
H309   H     0.35191   0.29869   0.66658   0.00000  Uiso   1.00
H310   H     0.46035   0.31275   0.31208   0.00000  Uiso   1.00
H311   H     0.46635   0.51627   0.57877   0.00000  Uiso   1.00
H312   H     0.24363   0.25062   0.82822   0.00000  Uiso   1.00
H313   H     0.47230   0.28027   0.08068   0.00000  Uiso   1.00
O314   O     0.36322   0.58433   0.54813   0.00000  Uiso   1.00
O315   O     0.07101   0.23581   0.87539   0.00000  Uiso   1.00
O316   O     0.37102   0.27471   0.89463   0.00000  Uiso   1.00
N317   N     0.26838   0.52984   0.48641   0.00000  Uiso   1.00
N318   N     0.06014   0.28148   0.71965   0.00000  Uiso   1.00
N319   N     0.27392   0.30919   0.02077   0.00000  Uiso   1.00
N320   N     0.40361   0.51273   0.54724   0.00000  Uiso   1.00
N321   N     0.19538   0.26438   0.78048   0.00000  Uiso   1.00
N322   N     0.40915   0.29208   0.08160   0.00000  Uiso   1.00
C323   C     0.31107   0.62497   0.90355   0.00000  Uiso   1.00
C324   C     0.25612   0.58649   0.94124   0.00000  Uiso   1.00
C325   C     0.28526   0.54460   0.93905   0.00000  Uiso   1.00
C326   C     0.22488   0.51399   0.97715   0.00000  Uiso   1.00
C327   C     0.15271   0.45257   0.02981   0.00000  Uiso   1.00
C328   C     0.31351   0.65493   0.00553   0.00000  Uiso   1.00
C329   C     0.39091   0.67059   0.05740   0.00000  Uiso   1.00
C330   C     0.37884   0.69760   0.14961   0.00000  Uiso   1.00
C331   C     0.39577   0.74247   0.30204   0.00000  Uiso   1.00
C332   C     0.25459   0.64729   0.81292   0.00000  Uiso   1.00
C333   C     0.28245   0.65653   0.70284   0.00000  Uiso   1.00
C334   C     0.22078   0.67712   0.63289   0.00000  Uiso   1.00
C335   C     0.14624   0.71012   0.48625   0.00000  Uiso   1.00
C336   C     0.15203   0.64509   0.97509   0.00000  Uiso   1.00
C337   C     0.16974   0.59742   0.98009   0.00000  Uiso   1.00
C338   C     0.10930   0.56686   0.01820   0.00000  Uiso   1.00
C339   C     0.13834   0.52493   0.01607   0.00000  Uiso   1.00
C340   C     0.22714   0.66586   0.04439   0.00000  Uiso   1.00
C341   C     0.21495   0.69285   0.13654   0.00000  Uiso   1.00
C342   C     0.29230   0.70855   0.18854   0.00000  Uiso   1.00
C343   C     0.16821   0.65821   0.85177   0.00000  Uiso   1.00
C344   C     0.10649   0.67879   0.78198   0.00000  Uiso   1.00
C345   C     0.13424   0.68807   0.67181   0.00000  Uiso   1.00
H346   H     0.37832   0.61646   0.87331   0.00000  Uiso   1.00
H347   H     0.35212   0.53615   0.90899   0.00000  Uiso   1.00
H348   H     0.45774   0.66213   0.02730   0.00000  Uiso   1.00
H349   H     0.34930   0.64807   0.67280   0.00000  Uiso   1.00
H350   H     0.28497   0.45194   0.96572   0.00000  Uiso   1.00
H351   H     0.50770   0.71758   0.21517   0.00000  Uiso   1.00
H352   H     0.27903   0.68793   0.46763   0.00000  Uiso   1.00
H353   H     0.08478   0.65360   0.00534   0.00000  Uiso   1.00
H354   H     0.04246   0.57533   0.04826   0.00000  Uiso   1.00
H355   H     0.14809   0.70131   0.16658   0.00000  Uiso   1.00
H356   H     0.03965   0.68725   0.81208   0.00000  Uiso   1.00
H357   H     0.03365   0.48373   0.07877   0.00000  Uiso   1.00
H358   H     0.25637   0.74938   0.32822   0.00000  Uiso   1.00
H359   H     0.02770   0.71973   0.58068   0.00000  Uiso   1.00
O360   O     0.13678   0.41567   0.04813   0.00000  Uiso   1.00
O361   O     0.42899   0.76419   0.37539   0.00000  Uiso   1.00
O362   O     0.12898   0.72529   0.39463   0.00000  Uiso   1.00
N363   N     0.23162   0.47016   0.98641   0.00000  Uiso   1.00
N364   N     0.43986   0.71852   0.21965   0.00000  Uiso   1.00
N365   N     0.22608   0.69081   0.52077   0.00000  Uiso   1.00
N366   N     0.09639   0.48727   0.04724   0.00000  Uiso   1.00
N367   N     0.30462   0.73562   0.28048   0.00000  Uiso   1.00
N368   N     0.09085   0.70792   0.58160   0.00000  Uiso   1.00
