data_job_06357
_audit_creation_date              2018-12-19
_audit_creation_method            'Materials Studio'
_symmetry_space_group_name_H-M    'P1'
_symmetry_Int_Tables_number       1
_symmetry_cell_setting            triclinic
loop_
_symmetry_equiv_pos_as_xyz
  x,y,z
_cell_length_a                    15.8758
_cell_length_b                    15.7823
_cell_length_c                    15.6582
_cell_angle_alpha                 94.6227
_cell_angle_beta                  94.6359
_cell_angle_gamma                 94.5660
loop_
_atom_site_label
_atom_site_type_symbol
_atom_site_fract_x
_atom_site_fract_y
_atom_site_fract_z
_atom_site_U_iso_or_equiv
_atom_site_adp_type
_atom_site_occupancy
C1     C     0.45837   0.90901   0.12215   0.00000  Uiso   1.00
C2     C     0.53543   0.86343   0.09823   0.00000  Uiso   1.00
C3     C     0.57736   0.87270   0.02469   0.00000  Uiso   1.00
C4     C     0.64650   0.82538   0.01455   0.00000  Uiso   1.00
C5     C     0.76214   0.76287   0.96806   0.00000  Uiso   1.00
C6     C     0.38968   0.83903   0.13468   0.00000  Uiso   1.00
C7     C     0.30905   0.82781   0.09180   0.00000  Uiso   1.00
C8     C     0.25551   0.75996   0.11237   0.00000  Uiso   1.00
C9     C     0.14484   0.65962   0.12252   0.00000  Uiso   1.00
C10    C     0.48306   0.95569   0.21082   0.00000  Uiso   1.00
C11    C     0.48094   0.04255   0.23198   0.00000  Uiso   1.00
C12    C     0.50600   0.07292   0.31666   0.00000  Uiso   1.00
C13    C     0.54034   0.15370   0.44503   0.00000  Uiso   1.00
C14    C     0.50662   0.80849   0.23492   0.00000  Uiso   1.00
C15    C     0.56163   0.80882   0.15947   0.00000  Uiso   1.00
C16    C     0.63074   0.76148   0.14945   0.00000  Uiso   1.00
C17    C     0.67276   0.77069   0.07591   0.00000  Uiso   1.00
C18    C     0.41588   0.78443   0.19593   0.00000  Uiso   1.00
C19    C     0.36243   0.71659   0.21656   0.00000  Uiso   1.00
C20    C     0.28176   0.70526   0.17372   0.00000  Uiso   1.00
C21    C     0.50927   0.90109   0.27207   0.00000  Uiso   1.00
C22    C     0.53433   0.93133   0.35673   0.00000  Uiso   1.00
C23    C     0.53225   0.01822   0.37801   0.00000  Uiso   1.00
H24    H     0.43796   0.95152   0.07447   0.00000  Uiso   1.00
H25    H     0.55705   0.91496   0.97730   0.00000  Uiso   1.00
H26    H     0.28879   0.87008   0.04442   0.00000  Uiso   1.00
H27    H     0.46066   0.08478   0.18457   0.00000  Uiso   1.00
H28    H     0.70062   0.85032   0.89657   0.00000  Uiso   1.00
H29    H     0.13497   0.75571   0.03810   0.00000  Uiso   1.00
H30    H     0.49738   0.20845   0.33364   0.00000  Uiso   1.00
H31    H     0.52702   0.76598   0.28260   0.00000  Uiso   1.00
H32    H     0.65100   0.71923   0.19685   0.00000  Uiso   1.00
H33    H     0.38274   0.67435   0.26396   0.00000  Uiso   1.00
H34    H     0.55460   0.88906   0.40411   0.00000  Uiso   1.00
H35    H     0.77687   0.69146   0.07476   0.00000  Uiso   1.00
H36    H     0.21121   0.59685   0.21630   0.00000  Uiso   1.00
H37    H     0.57363   0.04959   0.51183   0.00000  Uiso   1.00
O38    O     0.81868   0.74346   0.92548   0.00000  Uiso   1.00
O39    O     0.07656   0.61935   0.11119   0.00000  Uiso   1.00
O40    O     0.55205   0.21334   0.49892   0.00000  Uiso   1.00
N41    N     0.70156   0.81936   0.95028   0.00000  Uiso   1.00
N42    N     0.17272   0.73089   0.08260   0.00000  Uiso   1.00
N43    N     0.51152   0.15417   0.35890   0.00000  Uiso   1.00
N44    N     0.74259   0.73388   0.04617   0.00000  Uiso   1.00
N45    N     0.21375   0.64541   0.17848   0.00000  Uiso   1.00
N46    N     0.55255   0.06869   0.45479   0.00000  Uiso   1.00
C47    C     0.12278   0.45824   0.90963   0.00000  Uiso   1.00
C48    C     0.09912   0.53574   0.86371   0.00000  Uiso   1.00
C49    C     0.02657   0.57796   0.87307   0.00000  Uiso   1.00
C50    C     0.01652   0.64750   0.82540   0.00000  Uiso   1.00
C51    C     0.97059   0.76382   0.76244   0.00000  Uiso   1.00
C52    C     0.13517   0.38910   0.83906   0.00000  Uiso   1.00
C53    C     0.09294   0.30802   0.82770   0.00000  Uiso   1.00
C54    C     0.11325   0.25411   0.75929   0.00000  Uiso   1.00
C55    C     0.12332   0.14274   0.65810   0.00000  Uiso   1.00
C56    C     0.21022   0.48305   0.95670   0.00000  Uiso   1.00
C57    C     0.23109   0.48095   0.04426   0.00000  Uiso   1.00
C58    C     0.31458   0.50613   0.07490   0.00000  Uiso   1.00
C59    C     0.44118   0.54063   0.15636   0.00000  Uiso   1.00
C60    C     0.23395   0.50666   0.80835   0.00000  Uiso   1.00
C61    C     0.15951   0.56204   0.80870   0.00000  Uiso   1.00
C62    C     0.14957   0.63154   0.76101   0.00000  Uiso   1.00
C63    C     0.07702   0.67386   0.77030   0.00000  Uiso   1.00
C64    C     0.19556   0.41540   0.78405   0.00000  Uiso   1.00
C65    C     0.21594   0.36160   0.71564   0.00000  Uiso   1.00
C66    C     0.17374   0.28046   0.70418   0.00000  Uiso   1.00
C67    C     0.27060   0.50936   0.90169   0.00000  Uiso   1.00
C68    C     0.35409   0.53453   0.93220   0.00000  Uiso   1.00
C69    C     0.37508   0.53247   0.01978   0.00000  Uiso   1.00
H70    H     0.07576   0.43775   0.95246   0.00000  Uiso   1.00
H71    H     0.97985   0.55758   0.91564   0.00000  Uiso   1.00
H72    H     0.04621   0.28768   0.87029   0.00000  Uiso   1.00
H73    H     0.18434   0.46059   0.08681   0.00000  Uiso   1.00
H74    H     0.90013   0.70201   0.85054   0.00000  Uiso   1.00
H75    H     0.04008   0.13290   0.75493   0.00000  Uiso   1.00
H76    H     0.33134   0.49751   0.21151   0.00000  Uiso   1.00
H77    H     0.28097   0.52714   0.76552   0.00000  Uiso   1.00
H78    H     0.19632   0.65188   0.71844   0.00000  Uiso   1.00
H79    H     0.26268   0.38197   0.67309   0.00000  Uiso   1.00
H80    H     0.40080   0.55488   0.88961   0.00000  Uiso   1.00
H81    H     0.07582   0.77854   0.69048   0.00000  Uiso   1.00
H82    H     0.21577   0.20943   0.59487   0.00000  Uiso   1.00
H83    H     0.50703   0.57405   0.05145   0.00000  Uiso   1.00
O84    O     0.92857   0.82070   0.74290   0.00000  Uiso   1.00
O85    O     0.11219   0.07405   0.61747   0.00000  Uiso   1.00
O86    O     0.49432   0.55241   0.21649   0.00000  Uiso   1.00
N87    N     0.95310   0.70291   0.81934   0.00000  Uiso   1.00
N88    N     0.08394   0.17083   0.72994   0.00000  Uiso   1.00
N89    N     0.35625   0.51169   0.15681   0.00000  Uiso   1.00
N90    N     0.04764   0.74410   0.73322   0.00000  Uiso   1.00
N91    N     0.17848   0.21202   0.64382   0.00000  Uiso   1.00
N92    N     0.45079   0.55288   0.07068   0.00000  Uiso   1.00
C93    C     0.90855   0.12246   0.45797   0.00000  Uiso   1.00
C94    C     0.86328   0.09873   0.53607   0.00000  Uiso   1.00
C95    C     0.87255   0.02577   0.57859   0.00000  Uiso   1.00
C96    C     0.82556   0.01571   0.64867   0.00000  Uiso   1.00
C97    C     0.76349   0.96960   0.76588   0.00000  Uiso   1.00
C98    C     0.83893   0.13494   0.38827   0.00000  Uiso   1.00
C99    C     0.82776   0.09242   0.30652   0.00000  Uiso   1.00
C100   C     0.76027   0.11286   0.25218   0.00000  Uiso   1.00
C101   C     0.66045   0.12300   0.13991   0.00000  Uiso   1.00
C102   C     0.95492   0.21041   0.48303   0.00000  Uiso   1.00
C103   C     0.04126   0.23135   0.48094   0.00000  Uiso   1.00
C104   C     0.07142   0.31534   0.50636   0.00000  Uiso   1.00
C105   C     0.15169   0.44266   0.54122   0.00000  Uiso   1.00
C106   C     0.80859   0.23437   0.50682   0.00000  Uiso   1.00
C107   C     0.80898   0.15952   0.56260   0.00000  Uiso   1.00
C108   C     0.76196   0.14958   0.63264   0.00000  Uiso   1.00
C109   C     0.77117   0.07661   0.67525   0.00000  Uiso   1.00
C110   C     0.78464   0.19572   0.41480   0.00000  Uiso   1.00
C111   C     0.71716   0.21623   0.36057   0.00000  Uiso   1.00
C112   C     0.70588   0.17376   0.27876   0.00000  Uiso   1.00
C113   C     0.90063   0.27119   0.50956   0.00000  Uiso   1.00
C114   C     0.93066   0.35517   0.53499   0.00000  Uiso   1.00
C115   C     0.01703   0.37624   0.53294   0.00000  Uiso   1.00
H116   H     0.95081   0.07514   0.43730   0.00000  Uiso   1.00
H117   H     0.91457   0.97873   0.55803   0.00000  Uiso   1.00
H118   H     0.86979   0.04539   0.28600   0.00000  Uiso   1.00
H119   H     0.08325   0.18430   0.46040   0.00000  Uiso   1.00
H120   H     0.85042   0.89864   0.70356   0.00000  Uiso   1.00
H121   H     0.75601   0.03921   0.12997   0.00000  Uiso   1.00
H122   H     0.20615   0.33213   0.49771   0.00000  Uiso   1.00
H123   H     0.76631   0.28170   0.52747   0.00000  Uiso   1.00
H124   H     0.71995   0.19663   0.65315   0.00000  Uiso   1.00
H125   H     0.67516   0.26328   0.38112   0.00000  Uiso   1.00
H126   H     0.88863   0.40219   0.55552   0.00000  Uiso   1.00
H127   H     0.69245   0.07549   0.78076   0.00000  Uiso   1.00
H128   H     0.59804   0.21606   0.20716   0.00000  Uiso   1.00
H129   H     0.04818   0.50897   0.57491   0.00000  Uiso   1.00
O130   O     0.74425   0.92736   0.82319   0.00000  Uiso   1.00
O131   O     0.62039   0.11179   0.07066   0.00000  Uiso   1.00
O132   O     0.21096   0.49609   0.55313   0.00000  Uiso   1.00
N133   N     0.81962   0.95195   0.70449   0.00000  Uiso   1.00
N134   N     0.73134   0.08336   0.16822   0.00000  Uiso   1.00
N135   N     0.15218   0.35722   0.51201   0.00000  Uiso   1.00
N136   N     0.73462   0.04711   0.74604   0.00000  Uiso   1.00
N137   N     0.64634   0.17852   0.20976   0.00000  Uiso   1.00
N138   N     0.06718   0.45238   0.55355   0.00000  Uiso   1.00
C139   C     0.54163   0.09099   0.87785   0.00000  Uiso   1.00
C140   C     0.46457   0.13657   0.90177   0.00000  Uiso   1.00
C141   C     0.42264   0.12730   0.97531   0.00000  Uiso   1.00
C142   C     0.35350   0.17462   0.98545   0.00000  Uiso   1.00
C143   C     0.23786   0.23713   0.03194   0.00000  Uiso   1.00
C144   C     0.61032   0.16097   0.86532   0.00000  Uiso   1.00
C145   C     0.69094   0.17219   0.90820   0.00000  Uiso   1.00
C146   C     0.74449   0.24004   0.88763   0.00000  Uiso   1.00
C147   C     0.85516   0.34038   0.87748   0.00000  Uiso   1.00
C148   C     0.51694   0.04431   0.78918   0.00000  Uiso   1.00
C149   C     0.51906   0.95745   0.76802   0.00000  Uiso   1.00
C150   C     0.49400   0.92708   0.68334   0.00000  Uiso   1.00
C151   C     0.45966   0.84630   0.55497   0.00000  Uiso   1.00
C152   C     0.49338   0.19151   0.76508   0.00000  Uiso   1.00
C153   C     0.43837   0.19118   0.84053   0.00000  Uiso   1.00
C154   C     0.36926   0.23852   0.85055   0.00000  Uiso   1.00
C155   C     0.32724   0.22931   0.92409   0.00000  Uiso   1.00
C156   C     0.58412   0.21557   0.80407   0.00000  Uiso   1.00
C157   C     0.63757   0.28341   0.78344   0.00000  Uiso   1.00
C158   C     0.71824   0.29474   0.82628   0.00000  Uiso   1.00
C159   C     0.49073   0.09891   0.72793   0.00000  Uiso   1.00
C160   C     0.46567   0.06867   0.64327   0.00000  Uiso   1.00
C161   C     0.46775   0.98178   0.62199   0.00000  Uiso   1.00
H162   H     0.56204   0.04848   0.92553   0.00000  Uiso   1.00
H163   H     0.44295   0.08504   0.02270   0.00000  Uiso   1.00
H164   H     0.71121   0.12992   0.95558   0.00000  Uiso   1.00
H165   H     0.53934   0.91522   0.81543   0.00000  Uiso   1.00
H166   H     0.29938   0.14968   0.10343   0.00000  Uiso   1.00
H167   H     0.86503   0.24429   0.96190   0.00000  Uiso   1.00
H168   H     0.50262   0.79155   0.66636   0.00000  Uiso   1.00
H169   H     0.47298   0.23402   0.71740   0.00000  Uiso   1.00
H170   H     0.34900   0.28077   0.80315   0.00000  Uiso   1.00
H171   H     0.61726   0.32565   0.73604   0.00000  Uiso   1.00
H172   H     0.44540   0.11094   0.59589   0.00000  Uiso   1.00
H173   H     0.22313   0.30854   0.92524   0.00000  Uiso   1.00
H174   H     0.78879   0.40315   0.78370   0.00000  Uiso   1.00
H175   H     0.42637   0.95041   0.48817   0.00000  Uiso   1.00
O176   O     0.18132   0.25654   0.07452   0.00000  Uiso   1.00
O177   O     0.92344   0.38065   0.88881   0.00000  Uiso   1.00
O178   O     0.44795   0.78666   0.50108   0.00000  Uiso   1.00
N179   N     0.29844   0.18064   0.04972   0.00000  Uiso   1.00
N180   N     0.82728   0.26911   0.91740   0.00000  Uiso   1.00
N181   N     0.48848   0.84583   0.64110   0.00000  Uiso   1.00
N182   N     0.25741   0.26612   0.95383   0.00000  Uiso   1.00
N183   N     0.78625   0.35459   0.82152   0.00000  Uiso   1.00
N184   N     0.44745   0.93131   0.54521   0.00000  Uiso   1.00
C185   C     0.87722   0.54176   0.09037   0.00000  Uiso   1.00
C186   C     0.90088   0.46426   0.13629   0.00000  Uiso   1.00
C187   C     0.97343   0.42204   0.12693   0.00000  Uiso   1.00
C188   C     0.98348   0.35250   0.17460   0.00000  Uiso   1.00
C189   C     0.02941   0.23618   0.23756   0.00000  Uiso   1.00
C190   C     0.86483   0.61090   0.16094   0.00000  Uiso   1.00
C191   C     0.90706   0.69198   0.17230   0.00000  Uiso   1.00
C192   C     0.88675   0.74589   0.24071   0.00000  Uiso   1.00
C193   C     0.87667   0.85726   0.34190   0.00000  Uiso   1.00
C194   C     0.78978   0.51695   0.04330   0.00000  Uiso   1.00
C195   C     0.76891   0.51905   0.95574   0.00000  Uiso   1.00
C196   C     0.68542   0.49387   0.92510   0.00000  Uiso   1.00
C197   C     0.55882   0.45937   0.84364   0.00000  Uiso   1.00
C198   C     0.76605   0.49334   0.19165   0.00000  Uiso   1.00
C199   C     0.84049   0.43796   0.19130   0.00000  Uiso   1.00
C200   C     0.85043   0.36846   0.23899   0.00000  Uiso   1.00
C201   C     0.92298   0.32614   0.22970   0.00000  Uiso   1.00
C202   C     0.80444   0.58460   0.21595   0.00000  Uiso   1.00
C203   C     0.78406   0.63840   0.28436   0.00000  Uiso   1.00
C204   C     0.82626   0.71954   0.29582   0.00000  Uiso   1.00
C205   C     0.72940   0.49064   0.09831   0.00000  Uiso   1.00
C206   C     0.64591   0.46547   0.06780   0.00000  Uiso   1.00
C207   C     0.62492   0.46753   0.98022   0.00000  Uiso   1.00
H208   H     0.92424   0.56225   0.04754   0.00000  Uiso   1.00
H209   H     0.02015   0.44242   0.08436   0.00000  Uiso   1.00
H210   H     0.95379   0.71232   0.12971   0.00000  Uiso   1.00
H211   H     0.81566   0.53941   0.91319   0.00000  Uiso   1.00
H212   H     0.09987   0.29799   0.14946   0.00000  Uiso   1.00
H213   H     0.95992   0.86710   0.24507   0.00000  Uiso   1.00
H214   H     0.66866   0.50249   0.78849   0.00000  Uiso   1.00
H215   H     0.71903   0.47286   0.23448   0.00000  Uiso   1.00
H216   H     0.80368   0.34812   0.28156   0.00000  Uiso   1.00
H217   H     0.73732   0.61803   0.32691   0.00000  Uiso   1.00
H218   H     0.59920   0.44511   0.11039   0.00000  Uiso   1.00
H219   H     0.92418   0.22146   0.30952   0.00000  Uiso   1.00
H220   H     0.78423   0.79057   0.40513   0.00000  Uiso   1.00
H221   H     0.49297   0.42595   0.94855   0.00000  Uiso   1.00
O222   O     0.07143   0.17930   0.25710   0.00000  Uiso   1.00
O223   O     0.88781   0.92595   0.38253   0.00000  Uiso   1.00
O224   O     0.50568   0.44759   0.78351   0.00000  Uiso   1.00
N225   N     0.04690   0.29709   0.18066   0.00000  Uiso   1.00
N226   N     0.91606   0.82917   0.27006   0.00000  Uiso   1.00
N227   N     0.64375   0.48831   0.84319   0.00000  Uiso   1.00
N228   N     0.95236   0.25590   0.26678   0.00000  Uiso   1.00
N229   N     0.82152   0.78798   0.35618   0.00000  Uiso   1.00
N230   N     0.54921   0.44712   0.92932   0.00000  Uiso   1.00
C231   C     0.09145   0.87754   0.54203   0.00000  Uiso   1.00
C232   C     0.13672   0.90127   0.46393   0.00000  Uiso   1.00
C233   C     0.12745   0.97423   0.42141   0.00000  Uiso   1.00
C234   C     0.17444   0.98428   0.35133   0.00000  Uiso   1.00
C235   C     0.23651   0.03040   0.23412   0.00000  Uiso   1.00
C236   C     0.16107   0.86506   0.61173   0.00000  Uiso   1.00
C237   C     0.17224   0.90758   0.69348   0.00000  Uiso   1.00
C238   C     0.23973   0.88714   0.74782   0.00000  Uiso   1.00
C239   C     0.33955   0.87700   0.86009   0.00000  Uiso   1.00
C240   C     0.04508   0.78959   0.51697   0.00000  Uiso   1.00
C241   C     0.95874   0.76865   0.51906   0.00000  Uiso   1.00
C242   C     0.92858   0.68466   0.49364   0.00000  Uiso   1.00
C243   C     0.84831   0.55734   0.45878   0.00000  Uiso   1.00
C244   C     0.19141   0.76563   0.49318   0.00000  Uiso   1.00
C245   C     0.19102   0.84048   0.43740   0.00000  Uiso   1.00
C246   C     0.23804   0.85042   0.36736   0.00000  Uiso   1.00
C247   C     0.22883   0.92339   0.32475   0.00000  Uiso   1.00
C248   C     0.21536   0.80428   0.58520   0.00000  Uiso   1.00
C249   C     0.28284   0.78376   0.63943   0.00000  Uiso   1.00
C250   C     0.29412   0.82624   0.72124   0.00000  Uiso   1.00
C251   C     0.09937   0.72881   0.49044   0.00000  Uiso   1.00
C252   C     0.06934   0.64483   0.46501   0.00000  Uiso   1.00
C253   C     0.98297   0.62376   0.46706   0.00000  Uiso   1.00
H254   H     0.04919   0.92486   0.56270   0.00000  Uiso   1.00
H255   H     0.08543   0.02126   0.44197   0.00000  Uiso   1.00
H256   H     0.13021   0.95461   0.71400   0.00000  Uiso   1.00
H257   H     0.91675   0.81570   0.53960   0.00000  Uiso   1.00
H258   H     0.14958   0.10136   0.29644   0.00000  Uiso   1.00
H259   H     0.24399   0.96079   0.87003   0.00000  Uiso   1.00
H260   H     0.79385   0.66787   0.50229   0.00000  Uiso   1.00
H261   H     0.23369   0.71830   0.47253   0.00000  Uiso   1.00
H262   H     0.28005   0.80337   0.34685   0.00000  Uiso   1.00
H263   H     0.32484   0.73672   0.61888   0.00000  Uiso   1.00
H264   H     0.11137   0.59781   0.44448   0.00000  Uiso   1.00
H265   H     0.30755   0.92451   0.21924   0.00000  Uiso   1.00
H266   H     0.40196   0.78394   0.79284   0.00000  Uiso   1.00
H267   H     0.95182   0.49103   0.42509   0.00000  Uiso   1.00
O268   O     0.25575   0.07264   0.17681   0.00000  Uiso   1.00
O269   O     0.37961   0.88821   0.92934   0.00000  Uiso   1.00
O270   O     0.78904   0.50391   0.44687   0.00000  Uiso   1.00
N271   N     0.18038   0.04805   0.29551   0.00000  Uiso   1.00
N272   N     0.26866   0.91664   0.83178   0.00000  Uiso   1.00
N273   N     0.84782   0.64278   0.48799   0.00000  Uiso   1.00
N274   N     0.26538   0.95289   0.25396   0.00000  Uiso   1.00
N275   N     0.35366   0.82148   0.79024   0.00000  Uiso   1.00
N276   N     0.93282   0.54762   0.44645   0.00000  Uiso   1.00
