data_job_00407
_audit_creation_date              2018-12-19
_audit_creation_method            'Materials Studio'
_symmetry_space_group_name_H-M    'P1'
_symmetry_Int_Tables_number       1
_symmetry_cell_setting            triclinic
loop_
_symmetry_equiv_pos_as_xyz
  x,y,z
_cell_length_a                    11.5262
_cell_length_b                    20.8903
_cell_length_c                    17.5421
_cell_angle_alpha                 90.0000
_cell_angle_beta                  135.6915
_cell_angle_gamma                 90.0000
loop_
_atom_site_label
_atom_site_type_symbol
_atom_site_fract_x
_atom_site_fract_y
_atom_site_fract_z
_atom_site_U_iso_or_equiv
_atom_site_adp_type
_atom_site_occupancy
C1     C     0.11013   0.68485   0.34862   0.00000  Uiso   1.00
C2     C     0.23315   0.64420   0.45146   0.00000  Uiso   1.00
C3     C     0.19814   0.61053   0.50127   0.00000  Uiso   1.00
C4     C     0.32767   0.57621   0.59474   0.00000  Uiso   1.00
C5     C     0.49456   0.51320   0.74805   0.00000  Uiso   1.00
C6     C     0.18683   0.75146   0.37946   0.00000  Uiso   1.00
C7     C     0.11285   0.80796   0.36873   0.00000  Uiso   1.00
C8     C     0.20338   0.86394   0.40157   0.00000  Uiso   1.00
C9     C     0.29830   0.96745   0.44304   0.00000  Uiso   1.00
C10    C     0.11072   0.65819   0.26798   0.00000  Uiso   1.00
C11    C     0.97275   0.63629   0.16350   0.00000  Uiso   1.00
C12    C     0.99920   0.61375   0.10247   0.00000  Uiso   1.00
C13    C     0.97596   0.57245   0.97084   0.00000  Uiso   1.00
C14    C     0.40242   0.68379   0.42601   0.00000  Uiso   1.00
C15    C     0.39191   0.64362   0.49349   0.00000  Uiso   1.00
C16    C     0.52153   0.60935   0.58690   0.00000  Uiso   1.00
C17    C     0.48672   0.57563   0.63685   0.00000  Uiso   1.00
C18    C     0.34558   0.75088   0.42150   0.00000  Uiso   1.00
C19    C     0.43623   0.80679   0.45436   0.00000  Uiso   1.00
C20    C     0.36243   0.86336   0.44369   0.00000  Uiso   1.00
C21    C     0.26948   0.65761   0.31002   0.00000  Uiso   1.00
C22    C     0.29614   0.63511   0.24913   0.00000  Uiso   1.00
C23    C     0.15825   0.61318   0.14458   0.00000  Uiso   1.00
H24    H     0.98653   0.68531   0.31589   0.00000  Uiso   1.00
H25    H     0.07527   0.61099   0.46872   0.00000  Uiso   1.00
H26    H     0.98999   0.80840   0.33619   0.00000  Uiso   1.00
H27    H     0.84992   0.63674   0.13100   0.00000  Uiso   1.00
H28    H     0.24368   0.52836   0.65673   0.00000  Uiso   1.00
H29    H     0.06384   0.94460   0.37723   0.00000  Uiso   1.00
H30    H     0.76847   0.58264   0.94454   0.00000  Uiso   1.00
H31    H     0.52602   0.68334   0.45874   0.00000  Uiso   1.00
H32    H     0.64437   0.60891   0.61941   0.00000  Uiso   1.00
H33    H     0.55908   0.80632   0.48688   0.00000  Uiso   1.00
H34    H     0.41902   0.63467   0.28169   0.00000  Uiso   1.00
H35    H     0.70559   0.52668   0.77903   0.00000  Uiso   1.00
H36    H     0.52573   0.94292   0.49954   0.00000  Uiso   1.00
H37    H     0.23037   0.58096   0.06685   0.00000  Uiso   1.00
O38    O     0.54277   0.47861   0.82102   0.00000  Uiso   1.00
O39    O     0.30680   0.02470   0.45431   0.00000  Uiso   1.00
O40    O     0.91929   0.54982   0.88663   0.00000  Uiso   1.00
N41    N     0.33614   0.53817   0.66345   0.00000  Uiso   1.00
N42    N     0.16801   0.92733   0.40216   0.00000  Uiso   1.00
N43    N     0.89185   0.58894   0.99761   0.00000  Uiso   1.00
N44    N     0.58469   0.53726   0.72926   0.00000  Uiso   1.00
N45    N     0.41655   0.92642   0.46797   0.00000  Uiso   1.00
N46    N     0.14040   0.58804   0.06342   0.00000  Uiso   1.00
C47    C     0.88987   0.18485   0.15138   0.00000  Uiso   1.00
C48    C     0.76685   0.14420   0.04854   0.00000  Uiso   1.00
C49    C     0.80186   0.11053   0.99873   0.00000  Uiso   1.00
C50    C     0.67233   0.07621   0.90526   0.00000  Uiso   1.00
C51    C     0.50544   0.01320   0.75195   0.00000  Uiso   1.00
C52    C     0.81317   0.25146   0.12054   0.00000  Uiso   1.00
C53    C     0.88715   0.30796   0.13127   0.00000  Uiso   1.00
C54    C     0.79662   0.36394   0.09843   0.00000  Uiso   1.00
C55    C     0.70170   0.46745   0.05696   0.00000  Uiso   1.00
C56    C     0.88928   0.15819   0.23202   0.00000  Uiso   1.00
C57    C     0.02725   0.13629   0.33650   0.00000  Uiso   1.00
C58    C     0.00080   0.11375   0.39753   0.00000  Uiso   1.00
C59    C     0.02404   0.07245   0.52916   0.00000  Uiso   1.00
C60    C     0.59758   0.18379   0.07399   0.00000  Uiso   1.00
C61    C     0.60809   0.14362   0.00651   0.00000  Uiso   1.00
C62    C     0.47847   0.10935   0.91310   0.00000  Uiso   1.00
C63    C     0.51328   0.07563   0.86315   0.00000  Uiso   1.00
C64    C     0.65442   0.25088   0.07850   0.00000  Uiso   1.00
C65    C     0.56377   0.30679   0.04564   0.00000  Uiso   1.00
C66    C     0.63757   0.36336   0.05631   0.00000  Uiso   1.00
C67    C     0.73052   0.15761   0.18998   0.00000  Uiso   1.00
C68    C     0.70386   0.13511   0.25087   0.00000  Uiso   1.00
C69    C     0.84175   0.11318   0.35542   0.00000  Uiso   1.00
H70    H     0.01347   0.18531   0.18411   0.00000  Uiso   1.00
H71    H     0.92473   0.11099   0.03128   0.00000  Uiso   1.00
H72    H     0.01001   0.30840   0.16381   0.00000  Uiso   1.00
H73    H     0.15008   0.13674   0.36900   0.00000  Uiso   1.00
H74    H     0.75632   0.02836   0.84327   0.00000  Uiso   1.00
H75    H     0.93616   0.44460   0.12277   0.00000  Uiso   1.00
H76    H     0.23153   0.08264   0.55546   0.00000  Uiso   1.00
H77    H     0.47398   0.18334   0.04126   0.00000  Uiso   1.00
H78    H     0.35563   0.10891   0.88059   0.00000  Uiso   1.00
H79    H     0.44092   0.30632   0.01312   0.00000  Uiso   1.00
H80    H     0.58098   0.13467   0.21831   0.00000  Uiso   1.00
H81    H     0.29441   0.02668   0.72097   0.00000  Uiso   1.00
H82    H     0.47427   0.44292   0.00046   0.00000  Uiso   1.00
H83    H     0.76963   0.08096   0.43315   0.00000  Uiso   1.00
O84    O     0.45723   0.97861   0.67898   0.00000  Uiso   1.00
O85    O     0.69320   0.52470   0.04569   0.00000  Uiso   1.00
O86    O     0.08071   0.04982   0.61337   0.00000  Uiso   1.00
N87    N     0.66386   0.03817   0.83655   0.00000  Uiso   1.00
N88    N     0.83199   0.42733   0.09784   0.00000  Uiso   1.00
N89    N     0.10815   0.08894   0.50239   0.00000  Uiso   1.00
N90    N     0.41531   0.03726   0.77074   0.00000  Uiso   1.00
N91    N     0.58345   0.42642   0.03203   0.00000  Uiso   1.00
N92    N     0.85960   0.08804   0.43658   0.00000  Uiso   1.00
C93    C     0.88987   0.31515   0.65138   0.00000  Uiso   1.00
C94    C     0.76685   0.35580   0.54854   0.00000  Uiso   1.00
C95    C     0.80186   0.38947   0.49873   0.00000  Uiso   1.00
C96    C     0.67233   0.42379   0.40526   0.00000  Uiso   1.00
C97    C     0.50544   0.48680   0.25195   0.00000  Uiso   1.00
C98    C     0.81317   0.24854   0.62054   0.00000  Uiso   1.00
C99    C     0.88715   0.19204   0.63127   0.00000  Uiso   1.00
C100   C     0.79662   0.13606   0.59843   0.00000  Uiso   1.00
C101   C     0.70170   0.03255   0.55696   0.00000  Uiso   1.00
C102   C     0.88928   0.34181   0.73202   0.00000  Uiso   1.00
C103   C     0.02725   0.36371   0.83650   0.00000  Uiso   1.00
C104   C     0.00080   0.38625   0.89753   0.00000  Uiso   1.00
C105   C     0.02404   0.42755   0.02916   0.00000  Uiso   1.00
C106   C     0.59758   0.31621   0.57399   0.00000  Uiso   1.00
C107   C     0.60809   0.35638   0.50651   0.00000  Uiso   1.00
C108   C     0.47847   0.39065   0.41310   0.00000  Uiso   1.00
C109   C     0.51328   0.42437   0.36315   0.00000  Uiso   1.00
C110   C     0.65442   0.24912   0.57850   0.00000  Uiso   1.00
C111   C     0.56377   0.19321   0.54564   0.00000  Uiso   1.00
C112   C     0.63757   0.13664   0.55631   0.00000  Uiso   1.00
C113   C     0.73052   0.34239   0.68998   0.00000  Uiso   1.00
C114   C     0.70386   0.36489   0.75087   0.00000  Uiso   1.00
C115   C     0.84175   0.38682   0.85542   0.00000  Uiso   1.00
H116   H     0.01347   0.31469   0.68411   0.00000  Uiso   1.00
H117   H     0.92473   0.38901   0.53128   0.00000  Uiso   1.00
H118   H     0.01001   0.19160   0.66381   0.00000  Uiso   1.00
H119   H     0.15008   0.36326   0.86900   0.00000  Uiso   1.00
H120   H     0.75632   0.47164   0.34327   0.00000  Uiso   1.00
H121   H     0.93616   0.05540   0.62277   0.00000  Uiso   1.00
H122   H     0.23153   0.41736   0.05546   0.00000  Uiso   1.00
H123   H     0.47398   0.31666   0.54126   0.00000  Uiso   1.00
H124   H     0.35563   0.39109   0.38059   0.00000  Uiso   1.00
H125   H     0.44092   0.19368   0.51312   0.00000  Uiso   1.00
H126   H     0.58098   0.36533   0.71831   0.00000  Uiso   1.00
H127   H     0.29441   0.47332   0.22097   0.00000  Uiso   1.00
H128   H     0.47427   0.05708   0.50046   0.00000  Uiso   1.00
H129   H     0.76963   0.41904   0.93315   0.00000  Uiso   1.00
O130   O     0.45723   0.52139   0.17898   0.00000  Uiso   1.00
O131   O     0.69320   0.97530   0.54569   0.00000  Uiso   1.00
O132   O     0.08071   0.45018   0.11337   0.00000  Uiso   1.00
N133   N     0.66386   0.46183   0.33655   0.00000  Uiso   1.00
N134   N     0.83199   0.07267   0.59784   0.00000  Uiso   1.00
N135   N     0.10815   0.41106   0.00239   0.00000  Uiso   1.00
N136   N     0.41531   0.46274   0.27074   0.00000  Uiso   1.00
N137   N     0.58345   0.07358   0.53203   0.00000  Uiso   1.00
N138   N     0.85960   0.41196   0.93658   0.00000  Uiso   1.00
C139   C     0.11013   0.81515   0.84862   0.00000  Uiso   1.00
C140   C     0.23315   0.85580   0.95146   0.00000  Uiso   1.00
C141   C     0.19814   0.88947   0.00127   0.00000  Uiso   1.00
C142   C     0.32767   0.92379   0.09474   0.00000  Uiso   1.00
C143   C     0.49456   0.98680   0.24805   0.00000  Uiso   1.00
C144   C     0.18683   0.74854   0.87946   0.00000  Uiso   1.00
C145   C     0.11285   0.69204   0.86873   0.00000  Uiso   1.00
C146   C     0.20338   0.63606   0.90157   0.00000  Uiso   1.00
C147   C     0.29830   0.53255   0.94304   0.00000  Uiso   1.00
C148   C     0.11072   0.84181   0.76798   0.00000  Uiso   1.00
C149   C     0.97275   0.86371   0.66350   0.00000  Uiso   1.00
C150   C     0.99920   0.88625   0.60247   0.00000  Uiso   1.00
C151   C     0.97596   0.92755   0.47084   0.00000  Uiso   1.00
C152   C     0.40242   0.81621   0.92601   0.00000  Uiso   1.00
C153   C     0.39191   0.85638   0.99349   0.00000  Uiso   1.00
C154   C     0.52153   0.89065   0.08690   0.00000  Uiso   1.00
C155   C     0.48672   0.92437   0.13685   0.00000  Uiso   1.00
C156   C     0.34558   0.74912   0.92150   0.00000  Uiso   1.00
C157   C     0.43623   0.69321   0.95436   0.00000  Uiso   1.00
C158   C     0.36243   0.63664   0.94369   0.00000  Uiso   1.00
C159   C     0.26948   0.84239   0.81002   0.00000  Uiso   1.00
C160   C     0.29614   0.86489   0.74913   0.00000  Uiso   1.00
C161   C     0.15825   0.88682   0.64458   0.00000  Uiso   1.00
H162   H     0.98653   0.81469   0.81589   0.00000  Uiso   1.00
H163   H     0.07527   0.88901   0.96872   0.00000  Uiso   1.00
H164   H     0.98999   0.69160   0.83619   0.00000  Uiso   1.00
H165   H     0.84992   0.86326   0.63100   0.00000  Uiso   1.00
H166   H     0.24368   0.97164   0.15673   0.00000  Uiso   1.00
H167   H     0.06384   0.55540   0.87723   0.00000  Uiso   1.00
H168   H     0.76847   0.91736   0.44454   0.00000  Uiso   1.00
H169   H     0.52602   0.81666   0.95874   0.00000  Uiso   1.00
H170   H     0.64437   0.89109   0.11941   0.00000  Uiso   1.00
H171   H     0.55908   0.69368   0.98688   0.00000  Uiso   1.00
H172   H     0.41902   0.86533   0.78169   0.00000  Uiso   1.00
H173   H     0.70559   0.97332   0.27903   0.00000  Uiso   1.00
H174   H     0.52573   0.55708   0.99954   0.00000  Uiso   1.00
H175   H     0.23037   0.91904   0.56685   0.00000  Uiso   1.00
O176   O     0.54277   0.02139   0.32102   0.00000  Uiso   1.00
O177   O     0.30680   0.47530   0.95431   0.00000  Uiso   1.00
O178   O     0.91929   0.95018   0.38663   0.00000  Uiso   1.00
N179   N     0.33614   0.96183   0.16345   0.00000  Uiso   1.00
N180   N     0.16801   0.57267   0.90216   0.00000  Uiso   1.00
N181   N     0.89185   0.91106   0.49761   0.00000  Uiso   1.00
N182   N     0.58469   0.96274   0.22926   0.00000  Uiso   1.00
N183   N     0.41655   0.57358   0.96797   0.00000  Uiso   1.00
N184   N     0.14040   0.91196   0.56342   0.00000  Uiso   1.00
