data_job_00664
_audit_creation_date              2018-12-19
_audit_creation_method            'Materials Studio'
_symmetry_space_group_name_H-M    'P1'
_symmetry_Int_Tables_number       1
_symmetry_cell_setting            triclinic
loop_
_symmetry_equiv_pos_as_xyz
  x,y,z
_cell_length_a                    17.7890
_cell_length_b                    15.7200
_cell_length_c                    16.9666
_cell_angle_alpha                 90.0000
_cell_angle_beta                  64.5490
_cell_angle_gamma                 90.0000
loop_
_atom_site_label
_atom_site_type_symbol
_atom_site_fract_x
_atom_site_fract_y
_atom_site_fract_z
_atom_site_U_iso_or_equiv
_atom_site_adp_type
_atom_site_occupancy
C1     C     0.21415   0.46590   0.75586   0.00000  Uiso   1.00
C2     C     0.19551   0.44172   0.67902   0.00000  Uiso   1.00
C3     C     0.12946   0.47181   0.66403   0.00000  Uiso   1.00
C4     C     0.12319   0.44200   0.59006   0.00000  Uiso   1.00
C5     C     0.08543   0.41323   0.47943   0.00000  Uiso   1.00
C6     C     0.21696   0.38255   0.80051   0.00000  Uiso   1.00
C7     C     0.16896   0.36290   0.88767   0.00000  Uiso   1.00
C8     C     0.18077   0.28328   0.91595   0.00000  Uiso   1.00
C9     C     0.17636   0.16268   0.99395   0.00000  Uiso   1.00
C10    C     0.30286   0.50045   0.71627   0.00000  Uiso   1.00
C11    C     0.32708   0.57992   0.73263   0.00000  Uiso   1.00
C12    C     0.41121   0.59955   0.69001   0.00000  Uiso   1.00
C13    C     0.54016   0.66200   0.63722   0.00000  Uiso   1.00
C14    C     0.32050   0.35944   0.65112   0.00000  Uiso   1.00
C15    C     0.25327   0.38390   0.62214   0.00000  Uiso   1.00
C16    C     0.24711   0.35403   0.54816   0.00000  Uiso   1.00
C17    C     0.18106   0.38408   0.53307   0.00000  Uiso   1.00
C18    C     0.27472   0.32473   0.74362   0.00000  Uiso   1.00
C19    C     0.28661   0.24512   0.77179   0.00000  Uiso   1.00
C20    C     0.23863   0.22535   0.85897   0.00000  Uiso   1.00
C21    C     0.36062   0.44263   0.65938   0.00000  Uiso   1.00
C22    C     0.44473   0.46214   0.61675   0.00000  Uiso   1.00
C23    C     0.46908   0.54162   0.63302   0.00000  Uiso   1.00
H24    H     0.16918   0.51091   0.80015   0.00000  Uiso   1.00
H25    H     0.08476   0.51656   0.70808   0.00000  Uiso   1.00
H26    H     0.12427   0.40767   0.93167   0.00000  Uiso   1.00
H27    H     0.28236   0.62465   0.77665   0.00000  Uiso   1.00
H28    H     0.01662   0.49729   0.58093   0.00000  Uiso   1.00
H29    H     0.09994   0.26770   0.05240   0.00000  Uiso   1.00
H30    H     0.43331   0.72525   0.72551   0.00000  Uiso   1.00
H31    H     0.36547   0.31442   0.60683   0.00000  Uiso   1.00
H32    H     0.29182   0.30929   0.50415   0.00000  Uiso   1.00
H33    H     0.33132   0.20039   0.72775   0.00000  Uiso   1.00
H34    H     0.48941   0.41738   0.57273   0.00000  Uiso   1.00
H35    H     0.18467   0.32906   0.41542   0.00000  Uiso   1.00
H36    H     0.26799   0.09947   0.88689   0.00000  Uiso   1.00
H37    H     0.60136   0.55702   0.56000   0.00000  Uiso   1.00
O38    O     0.04864   0.41332   0.43413   0.00000  Uiso   1.00
O39    O     0.15796   0.11212   0.05269   0.00000  Uiso   1.00
O40    O     0.59534   0.71242   0.62381   0.00000  Uiso   1.00
N41    N     0.06629   0.45842   0.55606   0.00000  Uiso   1.00
N42    N     0.14418   0.24376   0.99686   0.00000  Uiso   1.00
N43    N     0.45586   0.67152   0.69126   0.00000  Uiso   1.00
N44    N     0.15672   0.36789   0.46700   0.00000  Uiso   1.00
N45    N     0.23460   0.15324   0.90779   0.00000  Uiso   1.00
N46    N     0.54628   0.58100   0.60220   0.00000  Uiso   1.00
C47    C     0.71415   0.96590   0.75586   0.00000  Uiso   1.00
C48    C     0.69551   0.94172   0.67902   0.00000  Uiso   1.00
C49    C     0.62946   0.97181   0.66403   0.00000  Uiso   1.00
C50    C     0.62319   0.94200   0.59006   0.00000  Uiso   1.00
C51    C     0.58543   0.91323   0.47943   0.00000  Uiso   1.00
C52    C     0.71696   0.88255   0.80051   0.00000  Uiso   1.00
C53    C     0.66896   0.86290   0.88767   0.00000  Uiso   1.00
C54    C     0.68077   0.78328   0.91595   0.00000  Uiso   1.00
C55    C     0.67636   0.66268   0.99395   0.00000  Uiso   1.00
C56    C     0.80286   0.00045   0.71627   0.00000  Uiso   1.00
C57    C     0.82708   0.07992   0.73263   0.00000  Uiso   1.00
C58    C     0.91121   0.09955   0.69001   0.00000  Uiso   1.00
C59    C     0.04016   0.16200   0.63722   0.00000  Uiso   1.00
C60    C     0.82050   0.85944   0.65112   0.00000  Uiso   1.00
C61    C     0.75327   0.88390   0.62214   0.00000  Uiso   1.00
C62    C     0.74711   0.85403   0.54816   0.00000  Uiso   1.00
C63    C     0.68106   0.88408   0.53307   0.00000  Uiso   1.00
C64    C     0.77472   0.82473   0.74362   0.00000  Uiso   1.00
C65    C     0.78661   0.74512   0.77179   0.00000  Uiso   1.00
C66    C     0.73863   0.72535   0.85897   0.00000  Uiso   1.00
C67    C     0.86062   0.94263   0.65938   0.00000  Uiso   1.00
C68    C     0.94473   0.96214   0.61675   0.00000  Uiso   1.00
C69    C     0.96908   0.04162   0.63302   0.00000  Uiso   1.00
H70    H     0.66918   0.01091   0.80015   0.00000  Uiso   1.00
H71    H     0.58476   0.01656   0.70808   0.00000  Uiso   1.00
H72    H     0.62427   0.90767   0.93167   0.00000  Uiso   1.00
H73    H     0.78236   0.12465   0.77665   0.00000  Uiso   1.00
H74    H     0.51662   0.99729   0.58093   0.00000  Uiso   1.00
H75    H     0.59994   0.76770   0.05240   0.00000  Uiso   1.00
H76    H     0.93331   0.22525   0.72551   0.00000  Uiso   1.00
H77    H     0.86547   0.81442   0.60683   0.00000  Uiso   1.00
H78    H     0.79182   0.80929   0.50415   0.00000  Uiso   1.00
H79    H     0.83132   0.70039   0.72775   0.00000  Uiso   1.00
H80    H     0.98941   0.91738   0.57273   0.00000  Uiso   1.00
H81    H     0.68467   0.82906   0.41542   0.00000  Uiso   1.00
H82    H     0.76799   0.59947   0.88689   0.00000  Uiso   1.00
H83    H     0.10136   0.05702   0.56000   0.00000  Uiso   1.00
O84    O     0.54864   0.91332   0.43413   0.00000  Uiso   1.00
O85    O     0.65796   0.61212   0.05269   0.00000  Uiso   1.00
O86    O     0.09534   0.21242   0.62381   0.00000  Uiso   1.00
N87    N     0.56629   0.95842   0.55606   0.00000  Uiso   1.00
N88    N     0.64418   0.74376   0.99686   0.00000  Uiso   1.00
N89    N     0.95586   0.17152   0.69126   0.00000  Uiso   1.00
N90    N     0.65672   0.86789   0.46700   0.00000  Uiso   1.00
N91    N     0.73460   0.65324   0.90779   0.00000  Uiso   1.00
N92    N     0.04628   0.08100   0.60220   0.00000  Uiso   1.00
C93    C     0.78585   0.46590   0.74414   0.00000  Uiso   1.00
C94    C     0.80449   0.44172   0.82098   0.00000  Uiso   1.00
C95    C     0.87054   0.47181   0.83597   0.00000  Uiso   1.00
C96    C     0.87681   0.44200   0.90994   0.00000  Uiso   1.00
C97    C     0.91457   0.41323   0.02057   0.00000  Uiso   1.00
C98    C     0.78304   0.38255   0.69949   0.00000  Uiso   1.00
C99    C     0.83104   0.36290   0.61233   0.00000  Uiso   1.00
C100   C     0.81923   0.28328   0.58405   0.00000  Uiso   1.00
C101   C     0.82364   0.16268   0.50605   0.00000  Uiso   1.00
C102   C     0.69714   0.50045   0.78373   0.00000  Uiso   1.00
C103   C     0.67292   0.57992   0.76737   0.00000  Uiso   1.00
C104   C     0.58879   0.59955   0.80999   0.00000  Uiso   1.00
C105   C     0.45984   0.66200   0.86278   0.00000  Uiso   1.00
C106   C     0.67950   0.35944   0.84888   0.00000  Uiso   1.00
C107   C     0.74673   0.38390   0.87786   0.00000  Uiso   1.00
C108   C     0.75289   0.35403   0.95184   0.00000  Uiso   1.00
C109   C     0.81894   0.38408   0.96693   0.00000  Uiso   1.00
C110   C     0.72528   0.32473   0.75638   0.00000  Uiso   1.00
C111   C     0.71339   0.24512   0.72821   0.00000  Uiso   1.00
C112   C     0.76137   0.22535   0.64103   0.00000  Uiso   1.00
C113   C     0.63938   0.44263   0.84062   0.00000  Uiso   1.00
C114   C     0.55527   0.46214   0.88325   0.00000  Uiso   1.00
C115   C     0.53092   0.54162   0.86698   0.00000  Uiso   1.00
H116   H     0.83082   0.51091   0.69985   0.00000  Uiso   1.00
H117   H     0.91524   0.51656   0.79192   0.00000  Uiso   1.00
H118   H     0.87573   0.40767   0.56833   0.00000  Uiso   1.00
H119   H     0.71764   0.62465   0.72335   0.00000  Uiso   1.00
H120   H     0.98338   0.49729   0.91907   0.00000  Uiso   1.00
H121   H     0.90006   0.26770   0.44760   0.00000  Uiso   1.00
H122   H     0.56669   0.72525   0.77449   0.00000  Uiso   1.00
H123   H     0.63453   0.31442   0.89317   0.00000  Uiso   1.00
H124   H     0.70818   0.30929   0.99585   0.00000  Uiso   1.00
H125   H     0.66868   0.20039   0.77225   0.00000  Uiso   1.00
H126   H     0.51059   0.41738   0.92727   0.00000  Uiso   1.00
H127   H     0.81533   0.32906   0.08458   0.00000  Uiso   1.00
H128   H     0.73201   0.09947   0.61311   0.00000  Uiso   1.00
H129   H     0.39864   0.55702   0.94000   0.00000  Uiso   1.00
O130   O     0.95136   0.41332   0.06587   0.00000  Uiso   1.00
O131   O     0.84204   0.11212   0.44731   0.00000  Uiso   1.00
O132   O     0.40466   0.71242   0.87619   0.00000  Uiso   1.00
N133   N     0.93371   0.45842   0.94394   0.00000  Uiso   1.00
N134   N     0.85582   0.24376   0.50314   0.00000  Uiso   1.00
N135   N     0.54414   0.67152   0.80874   0.00000  Uiso   1.00
N136   N     0.84328   0.36789   0.03300   0.00000  Uiso   1.00
N137   N     0.76540   0.15324   0.59221   0.00000  Uiso   1.00
N138   N     0.45372   0.58100   0.89780   0.00000  Uiso   1.00
C139   C     0.28585   0.96590   0.74414   0.00000  Uiso   1.00
C140   C     0.30449   0.94172   0.82098   0.00000  Uiso   1.00
C141   C     0.37054   0.97181   0.83597   0.00000  Uiso   1.00
C142   C     0.37681   0.94200   0.90994   0.00000  Uiso   1.00
C143   C     0.41457   0.91323   0.02057   0.00000  Uiso   1.00
C144   C     0.28304   0.88255   0.69949   0.00000  Uiso   1.00
C145   C     0.33104   0.86290   0.61233   0.00000  Uiso   1.00
C146   C     0.31923   0.78328   0.58405   0.00000  Uiso   1.00
C147   C     0.32364   0.66268   0.50605   0.00000  Uiso   1.00
C148   C     0.19714   0.00045   0.78373   0.00000  Uiso   1.00
C149   C     0.17292   0.07992   0.76737   0.00000  Uiso   1.00
C150   C     0.08879   0.09955   0.80999   0.00000  Uiso   1.00
C151   C     0.95984   0.16200   0.86278   0.00000  Uiso   1.00
C152   C     0.17950   0.85944   0.84888   0.00000  Uiso   1.00
C153   C     0.24673   0.88390   0.87786   0.00000  Uiso   1.00
C154   C     0.25289   0.85403   0.95184   0.00000  Uiso   1.00
C155   C     0.31894   0.88408   0.96693   0.00000  Uiso   1.00
C156   C     0.22528   0.82473   0.75638   0.00000  Uiso   1.00
C157   C     0.21339   0.74512   0.72821   0.00000  Uiso   1.00
C158   C     0.26137   0.72535   0.64103   0.00000  Uiso   1.00
C159   C     0.13938   0.94263   0.84062   0.00000  Uiso   1.00
C160   C     0.05527   0.96214   0.88325   0.00000  Uiso   1.00
C161   C     0.03092   0.04162   0.86698   0.00000  Uiso   1.00
H162   H     0.33082   0.01091   0.69985   0.00000  Uiso   1.00
H163   H     0.41524   0.01656   0.79192   0.00000  Uiso   1.00
H164   H     0.37573   0.90767   0.56833   0.00000  Uiso   1.00
H165   H     0.21764   0.12465   0.72335   0.00000  Uiso   1.00
H166   H     0.48338   0.99729   0.91907   0.00000  Uiso   1.00
H167   H     0.40006   0.76770   0.44760   0.00000  Uiso   1.00
H168   H     0.06669   0.22525   0.77449   0.00000  Uiso   1.00
H169   H     0.13453   0.81442   0.89317   0.00000  Uiso   1.00
H170   H     0.20818   0.80929   0.99585   0.00000  Uiso   1.00
H171   H     0.16868   0.70039   0.77225   0.00000  Uiso   1.00
H172   H     0.01059   0.91738   0.92727   0.00000  Uiso   1.00
H173   H     0.31533   0.82906   0.08458   0.00000  Uiso   1.00
H174   H     0.23201   0.59947   0.61311   0.00000  Uiso   1.00
H175   H     0.89864   0.05702   0.94000   0.00000  Uiso   1.00
O176   O     0.45136   0.91332   0.06587   0.00000  Uiso   1.00
O177   O     0.34204   0.61212   0.44731   0.00000  Uiso   1.00
O178   O     0.90466   0.21242   0.87619   0.00000  Uiso   1.00
N179   N     0.43371   0.95842   0.94394   0.00000  Uiso   1.00
N180   N     0.35582   0.74376   0.50314   0.00000  Uiso   1.00
N181   N     0.04414   0.17152   0.80874   0.00000  Uiso   1.00
N182   N     0.34328   0.86789   0.03300   0.00000  Uiso   1.00
N183   N     0.26540   0.65324   0.59221   0.00000  Uiso   1.00
N184   N     0.95372   0.08100   0.89780   0.00000  Uiso   1.00
C185   C     0.78585   0.53410   0.24414   0.00000  Uiso   1.00
C186   C     0.80449   0.55828   0.32098   0.00000  Uiso   1.00
C187   C     0.87054   0.52819   0.33597   0.00000  Uiso   1.00
C188   C     0.87681   0.55800   0.40994   0.00000  Uiso   1.00
C189   C     0.91457   0.58677   0.52057   0.00000  Uiso   1.00
C190   C     0.78304   0.61745   0.19949   0.00000  Uiso   1.00
C191   C     0.83104   0.63710   0.11233   0.00000  Uiso   1.00
C192   C     0.81923   0.71672   0.08405   0.00000  Uiso   1.00
C193   C     0.82364   0.83732   0.00605   0.00000  Uiso   1.00
C194   C     0.69714   0.49955   0.28373   0.00000  Uiso   1.00
C195   C     0.67292   0.42008   0.26737   0.00000  Uiso   1.00
C196   C     0.58879   0.40045   0.30999   0.00000  Uiso   1.00
C197   C     0.45984   0.33800   0.36278   0.00000  Uiso   1.00
C198   C     0.67950   0.64056   0.34888   0.00000  Uiso   1.00
C199   C     0.74673   0.61610   0.37786   0.00000  Uiso   1.00
C200   C     0.75289   0.64597   0.45184   0.00000  Uiso   1.00
C201   C     0.81894   0.61592   0.46693   0.00000  Uiso   1.00
C202   C     0.72528   0.67527   0.25638   0.00000  Uiso   1.00
C203   C     0.71339   0.75488   0.22821   0.00000  Uiso   1.00
C204   C     0.76137   0.77465   0.14103   0.00000  Uiso   1.00
C205   C     0.63938   0.55737   0.34062   0.00000  Uiso   1.00
C206   C     0.55527   0.53786   0.38325   0.00000  Uiso   1.00
C207   C     0.53092   0.45838   0.36698   0.00000  Uiso   1.00
H208   H     0.83082   0.48909   0.19985   0.00000  Uiso   1.00
H209   H     0.91524   0.48344   0.29192   0.00000  Uiso   1.00
H210   H     0.87573   0.59233   0.06833   0.00000  Uiso   1.00
H211   H     0.71764   0.37535   0.22335   0.00000  Uiso   1.00
H212   H     0.98338   0.50271   0.41907   0.00000  Uiso   1.00
H213   H     0.90006   0.73230   0.94760   0.00000  Uiso   1.00
H214   H     0.56669   0.27475   0.27449   0.00000  Uiso   1.00
H215   H     0.63453   0.68558   0.39317   0.00000  Uiso   1.00
H216   H     0.70818   0.69071   0.49585   0.00000  Uiso   1.00
H217   H     0.66868   0.79961   0.27225   0.00000  Uiso   1.00
H218   H     0.51059   0.58262   0.42727   0.00000  Uiso   1.00
H219   H     0.81533   0.67094   0.58458   0.00000  Uiso   1.00
H220   H     0.73201   0.90053   0.11311   0.00000  Uiso   1.00
H221   H     0.39864   0.44298   0.44000   0.00000  Uiso   1.00
O222   O     0.95136   0.58668   0.56587   0.00000  Uiso   1.00
O223   O     0.84204   0.88788   0.94731   0.00000  Uiso   1.00
O224   O     0.40466   0.28758   0.37619   0.00000  Uiso   1.00
N225   N     0.93371   0.54158   0.44394   0.00000  Uiso   1.00
N226   N     0.85582   0.75624   0.00314   0.00000  Uiso   1.00
N227   N     0.54414   0.32848   0.30874   0.00000  Uiso   1.00
N228   N     0.84328   0.63211   0.53300   0.00000  Uiso   1.00
N229   N     0.76540   0.84676   0.09221   0.00000  Uiso   1.00
N230   N     0.45372   0.41900   0.39780   0.00000  Uiso   1.00
C231   C     0.28585   0.03410   0.24414   0.00000  Uiso   1.00
C232   C     0.30449   0.05828   0.32098   0.00000  Uiso   1.00
C233   C     0.37054   0.02819   0.33597   0.00000  Uiso   1.00
C234   C     0.37681   0.05800   0.40994   0.00000  Uiso   1.00
C235   C     0.41457   0.08677   0.52057   0.00000  Uiso   1.00
C236   C     0.28304   0.11745   0.19949   0.00000  Uiso   1.00
C237   C     0.33104   0.13710   0.11233   0.00000  Uiso   1.00
C238   C     0.31923   0.21672   0.08405   0.00000  Uiso   1.00
C239   C     0.32364   0.33732   0.00605   0.00000  Uiso   1.00
C240   C     0.19714   0.99955   0.28373   0.00000  Uiso   1.00
C241   C     0.17292   0.92008   0.26737   0.00000  Uiso   1.00
C242   C     0.08879   0.90045   0.30999   0.00000  Uiso   1.00
C243   C     0.95984   0.83800   0.36278   0.00000  Uiso   1.00
C244   C     0.17950   0.14056   0.34888   0.00000  Uiso   1.00
C245   C     0.24673   0.11610   0.37786   0.00000  Uiso   1.00
C246   C     0.25289   0.14597   0.45184   0.00000  Uiso   1.00
C247   C     0.31894   0.11592   0.46693   0.00000  Uiso   1.00
C248   C     0.22528   0.17527   0.25638   0.00000  Uiso   1.00
C249   C     0.21339   0.25488   0.22821   0.00000  Uiso   1.00
C250   C     0.26137   0.27465   0.14103   0.00000  Uiso   1.00
C251   C     0.13938   0.05737   0.34062   0.00000  Uiso   1.00
C252   C     0.05527   0.03786   0.38325   0.00000  Uiso   1.00
C253   C     0.03092   0.95838   0.36698   0.00000  Uiso   1.00
H254   H     0.33082   0.98909   0.19985   0.00000  Uiso   1.00
H255   H     0.41524   0.98344   0.29192   0.00000  Uiso   1.00
H256   H     0.37573   0.09233   0.06833   0.00000  Uiso   1.00
H257   H     0.21764   0.87535   0.22335   0.00000  Uiso   1.00
H258   H     0.48338   0.00271   0.41907   0.00000  Uiso   1.00
H259   H     0.40006   0.23230   0.94760   0.00000  Uiso   1.00
H260   H     0.06669   0.77475   0.27449   0.00000  Uiso   1.00
H261   H     0.13453   0.18558   0.39317   0.00000  Uiso   1.00
H262   H     0.20818   0.19071   0.49585   0.00000  Uiso   1.00
H263   H     0.16868   0.29961   0.27225   0.00000  Uiso   1.00
H264   H     0.01059   0.08262   0.42727   0.00000  Uiso   1.00
H265   H     0.31533   0.17094   0.58458   0.00000  Uiso   1.00
H266   H     0.23201   0.40053   0.11311   0.00000  Uiso   1.00
H267   H     0.89864   0.94298   0.44000   0.00000  Uiso   1.00
O268   O     0.45136   0.08668   0.56587   0.00000  Uiso   1.00
O269   O     0.34204   0.38788   0.94731   0.00000  Uiso   1.00
O270   O     0.90466   0.78758   0.37619   0.00000  Uiso   1.00
N271   N     0.43371   0.04158   0.44394   0.00000  Uiso   1.00
N272   N     0.35582   0.25624   0.00314   0.00000  Uiso   1.00
N273   N     0.04414   0.82848   0.30874   0.00000  Uiso   1.00
N274   N     0.34328   0.13211   0.53300   0.00000  Uiso   1.00
N275   N     0.26540   0.34676   0.09221   0.00000  Uiso   1.00
N276   N     0.95372   0.91900   0.39780   0.00000  Uiso   1.00
C277   C     0.21415   0.53410   0.25586   0.00000  Uiso   1.00
C278   C     0.19551   0.55828   0.17902   0.00000  Uiso   1.00
C279   C     0.12946   0.52819   0.16403   0.00000  Uiso   1.00
C280   C     0.12319   0.55800   0.09006   0.00000  Uiso   1.00
C281   C     0.08543   0.58677   0.97943   0.00000  Uiso   1.00
C282   C     0.21696   0.61745   0.30051   0.00000  Uiso   1.00
C283   C     0.16896   0.63710   0.38767   0.00000  Uiso   1.00
C284   C     0.18077   0.71672   0.41595   0.00000  Uiso   1.00
C285   C     0.17636   0.83732   0.49395   0.00000  Uiso   1.00
C286   C     0.30286   0.49955   0.21627   0.00000  Uiso   1.00
C287   C     0.32708   0.42008   0.23263   0.00000  Uiso   1.00
C288   C     0.41121   0.40045   0.19001   0.00000  Uiso   1.00
C289   C     0.54016   0.33800   0.13722   0.00000  Uiso   1.00
C290   C     0.32050   0.64056   0.15112   0.00000  Uiso   1.00
C291   C     0.25327   0.61610   0.12214   0.00000  Uiso   1.00
C292   C     0.24711   0.64597   0.04816   0.00000  Uiso   1.00
C293   C     0.18106   0.61592   0.03307   0.00000  Uiso   1.00
C294   C     0.27472   0.67527   0.24362   0.00000  Uiso   1.00
C295   C     0.28661   0.75488   0.27179   0.00000  Uiso   1.00
C296   C     0.23863   0.77465   0.35897   0.00000  Uiso   1.00
C297   C     0.36062   0.55737   0.15938   0.00000  Uiso   1.00
C298   C     0.44473   0.53786   0.11675   0.00000  Uiso   1.00
C299   C     0.46908   0.45838   0.13302   0.00000  Uiso   1.00
H300   H     0.16918   0.48909   0.30015   0.00000  Uiso   1.00
H301   H     0.08476   0.48344   0.20808   0.00000  Uiso   1.00
H302   H     0.12427   0.59233   0.43167   0.00000  Uiso   1.00
H303   H     0.28236   0.37535   0.27665   0.00000  Uiso   1.00
H304   H     0.01662   0.50271   0.08093   0.00000  Uiso   1.00
H305   H     0.09994   0.73230   0.55240   0.00000  Uiso   1.00
H306   H     0.43331   0.27475   0.22551   0.00000  Uiso   1.00
H307   H     0.36547   0.68558   0.10683   0.00000  Uiso   1.00
H308   H     0.29182   0.69071   0.00415   0.00000  Uiso   1.00
H309   H     0.33132   0.79961   0.22775   0.00000  Uiso   1.00
H310   H     0.48941   0.58262   0.07273   0.00000  Uiso   1.00
H311   H     0.18467   0.67094   0.91542   0.00000  Uiso   1.00
H312   H     0.26799   0.90053   0.38689   0.00000  Uiso   1.00
H313   H     0.60136   0.44298   0.06000   0.00000  Uiso   1.00
O314   O     0.04864   0.58668   0.93413   0.00000  Uiso   1.00
O315   O     0.15796   0.88788   0.55269   0.00000  Uiso   1.00
O316   O     0.59534   0.28758   0.12381   0.00000  Uiso   1.00
N317   N     0.06629   0.54158   0.05606   0.00000  Uiso   1.00
N318   N     0.14418   0.75624   0.49686   0.00000  Uiso   1.00
N319   N     0.45586   0.32848   0.19126   0.00000  Uiso   1.00
N320   N     0.15672   0.63211   0.96700   0.00000  Uiso   1.00
N321   N     0.23460   0.84676   0.40779   0.00000  Uiso   1.00
N322   N     0.54628   0.41900   0.10220   0.00000  Uiso   1.00
C323   C     0.71415   0.03410   0.25586   0.00000  Uiso   1.00
C324   C     0.69551   0.05828   0.17902   0.00000  Uiso   1.00
C325   C     0.62946   0.02819   0.16403   0.00000  Uiso   1.00
C326   C     0.62319   0.05800   0.09006   0.00000  Uiso   1.00
C327   C     0.58543   0.08677   0.97943   0.00000  Uiso   1.00
C328   C     0.71696   0.11745   0.30051   0.00000  Uiso   1.00
C329   C     0.66896   0.13710   0.38767   0.00000  Uiso   1.00
C330   C     0.68077   0.21672   0.41595   0.00000  Uiso   1.00
C331   C     0.67636   0.33732   0.49395   0.00000  Uiso   1.00
C332   C     0.80286   0.99955   0.21627   0.00000  Uiso   1.00
C333   C     0.82708   0.92008   0.23263   0.00000  Uiso   1.00
C334   C     0.91121   0.90045   0.19001   0.00000  Uiso   1.00
C335   C     0.04016   0.83800   0.13722   0.00000  Uiso   1.00
C336   C     0.82050   0.14056   0.15112   0.00000  Uiso   1.00
C337   C     0.75327   0.11610   0.12214   0.00000  Uiso   1.00
C338   C     0.74711   0.14597   0.04816   0.00000  Uiso   1.00
C339   C     0.68106   0.11592   0.03307   0.00000  Uiso   1.00
C340   C     0.77472   0.17527   0.24362   0.00000  Uiso   1.00
C341   C     0.78661   0.25488   0.27179   0.00000  Uiso   1.00
C342   C     0.73863   0.27465   0.35897   0.00000  Uiso   1.00
C343   C     0.86062   0.05737   0.15938   0.00000  Uiso   1.00
C344   C     0.94473   0.03786   0.11675   0.00000  Uiso   1.00
C345   C     0.96908   0.95838   0.13302   0.00000  Uiso   1.00
H346   H     0.66918   0.98909   0.30015   0.00000  Uiso   1.00
H347   H     0.58476   0.98344   0.20808   0.00000  Uiso   1.00
H348   H     0.62427   0.09233   0.43167   0.00000  Uiso   1.00
H349   H     0.78236   0.87535   0.27665   0.00000  Uiso   1.00
H350   H     0.51662   0.00271   0.08093   0.00000  Uiso   1.00
H351   H     0.59994   0.23230   0.55240   0.00000  Uiso   1.00
H352   H     0.93331   0.77475   0.22551   0.00000  Uiso   1.00
H353   H     0.86547   0.18558   0.10683   0.00000  Uiso   1.00
H354   H     0.79182   0.19071   0.00415   0.00000  Uiso   1.00
H355   H     0.83132   0.29961   0.22775   0.00000  Uiso   1.00
H356   H     0.98941   0.08262   0.07273   0.00000  Uiso   1.00
H357   H     0.68467   0.17094   0.91542   0.00000  Uiso   1.00
H358   H     0.76799   0.40053   0.38689   0.00000  Uiso   1.00
H359   H     0.10136   0.94298   0.06000   0.00000  Uiso   1.00
O360   O     0.54864   0.08668   0.93413   0.00000  Uiso   1.00
O361   O     0.65796   0.38788   0.55269   0.00000  Uiso   1.00
O362   O     0.09534   0.78758   0.12381   0.00000  Uiso   1.00
N363   N     0.56629   0.04158   0.05606   0.00000  Uiso   1.00
N364   N     0.64418   0.25624   0.49686   0.00000  Uiso   1.00
N365   N     0.95586   0.82848   0.19126   0.00000  Uiso   1.00
N366   N     0.65672   0.13211   0.96700   0.00000  Uiso   1.00
N367   N     0.73460   0.34676   0.40779   0.00000  Uiso   1.00
N368   N     0.04628   0.91900   0.10220   0.00000  Uiso   1.00
