data_job_01879
_audit_creation_date              2018-12-19
_audit_creation_method            'Materials Studio'
_symmetry_space_group_name_H-M    'P1'
_symmetry_Int_Tables_number       1
_symmetry_cell_setting            triclinic
loop_
_symmetry_equiv_pos_as_xyz
  x,y,z
_cell_length_a                    47.0049
_cell_length_b                    7.1979
_cell_length_c                    18.4400
_cell_angle_alpha                 90.0000
_cell_angle_beta                  90.0000
_cell_angle_gamma                 90.0000
loop_
_atom_site_label
_atom_site_type_symbol
_atom_site_fract_x
_atom_site_fract_y
_atom_site_fract_z
_atom_site_U_iso_or_equiv
_atom_site_adp_type
_atom_site_occupancy
C1     C     0.87669   0.03451   0.17684   0.00000  Uiso   1.00
C2     C     0.90256   0.93264   0.14671   0.00000  Uiso   1.00
C3     C     0.92406   0.01161   0.10537   0.00000  Uiso   1.00
C4     C     0.94589   0.89497   0.08299   0.00000  Uiso   1.00
C5     C     0.98601   0.76549   0.03339   0.00000  Uiso   1.00
C6     C     0.85074   0.93035   0.14839   0.00000  Uiso   1.00
C7     C     0.82866   0.00740   0.10846   0.00000  Uiso   1.00
C8     C     0.80686   0.88884   0.08751   0.00000  Uiso   1.00
C9     C     0.76652   0.75582   0.04056   0.00000  Uiso   1.00
C10    C     0.87712   0.00236   0.25857   0.00000  Uiso   1.00
C11    C     0.87723   0.13997   0.31129   0.00000  Uiso   1.00
C12    C     0.87764   0.08203   0.38310   0.00000  Uiso   1.00
C13    C     0.87827   0.06084   0.50722   0.00000  Uiso   1.00
C14    C     0.87721   0.68694   0.21063   0.00000  Uiso   1.00
C15    C     0.90285   0.74385   0.16507   0.00000  Uiso   1.00
C16    C     0.92465   0.62707   0.14275   0.00000  Uiso   1.00
C17    C     0.94618   0.70585   0.10138   0.00000  Uiso   1.00
C18    C     0.85102   0.74157   0.16674   0.00000  Uiso   1.00
C19    C     0.82925   0.62286   0.14585   0.00000  Uiso   1.00
C20    C     0.80715   0.69971   0.10590   0.00000  Uiso   1.00
C21    C     0.87741   0.81358   0.27692   0.00000  Uiso   1.00
C22    C     0.87782   0.75542   0.34867   0.00000  Uiso   1.00
C23    C     0.87793   0.89291   0.40149   0.00000  Uiso   1.00
H24    H     0.87646   0.18148   0.16255   0.00000  Uiso   1.00
H25    H     0.92383   0.15771   0.09117   0.00000  Uiso   1.00
H26    H     0.82845   0.15350   0.09427   0.00000  Uiso   1.00
H27    H     0.87701   0.28604   0.29706   0.00000  Uiso   1.00
H28    H     0.97647   0.04808   0.02010   0.00000  Uiso   1.00
H29    H     0.77534   0.03923   0.02667   0.00000  Uiso   1.00
H30    H     0.87774   0.31872   0.45429   0.00000  Uiso   1.00
H31    H     0.87744   0.53996   0.22492   0.00000  Uiso   1.00
H32    H     0.92486   0.48098   0.15696   0.00000  Uiso   1.00
H33    H     0.82947   0.47678   0.16006   0.00000  Uiso   1.00
H34    H     0.87804   0.60932   0.36285   0.00000  Uiso   1.00
H35    H     0.97731   0.49882   0.07350   0.00000  Uiso   1.00
H36    H     0.77617   0.48997   0.08007   0.00000  Uiso   1.00
H37    H     0.87858   0.76946   0.50769   0.00000  Uiso   1.00
O38    O     0.00806   0.74621   0.00095   0.00000  Uiso   1.00
O39    O     0.74418   0.73461   0.00958   0.00000  Uiso   1.00
O40    O     0.87854   0.10129   0.57061   0.00000  Uiso   1.00
N41    N     0.97016   0.92691   0.04201   0.00000  Uiso   1.00
N42    N     0.78212   0.91863   0.04814   0.00000  Uiso   1.00
N43    N     0.87785   0.17993   0.44793   0.00000  Uiso   1.00
N44    N     0.97061   0.63136   0.07074   0.00000  Uiso   1.00
N45    N     0.78257   0.62308   0.07687   0.00000  Uiso   1.00
N46    N     0.87830   0.88438   0.47666   0.00000  Uiso   1.00
C47    C     0.62331   0.96549   0.67684   0.00000  Uiso   1.00
C48    C     0.59744   0.06736   0.64671   0.00000  Uiso   1.00
C49    C     0.57594   0.98839   0.60537   0.00000  Uiso   1.00
C50    C     0.55411   0.10503   0.58299   0.00000  Uiso   1.00
C51    C     0.51399   0.23451   0.53339   0.00000  Uiso   1.00
C52    C     0.64926   0.06965   0.64839   0.00000  Uiso   1.00
C53    C     0.67134   0.99260   0.60846   0.00000  Uiso   1.00
C54    C     0.69314   0.11116   0.58751   0.00000  Uiso   1.00
C55    C     0.73348   0.24418   0.54056   0.00000  Uiso   1.00
C56    C     0.62288   0.99764   0.75857   0.00000  Uiso   1.00
C57    C     0.62277   0.86003   0.81129   0.00000  Uiso   1.00
C58    C     0.62236   0.91797   0.88310   0.00000  Uiso   1.00
C59    C     0.62173   0.93916   0.00722   0.00000  Uiso   1.00
C60    C     0.62279   0.31306   0.71063   0.00000  Uiso   1.00
C61    C     0.59715   0.25615   0.66507   0.00000  Uiso   1.00
C62    C     0.57535   0.37293   0.64275   0.00000  Uiso   1.00
C63    C     0.55382   0.29415   0.60138   0.00000  Uiso   1.00
C64    C     0.64898   0.25843   0.66674   0.00000  Uiso   1.00
C65    C     0.67075   0.37714   0.64585   0.00000  Uiso   1.00
C66    C     0.69285   0.30029   0.60590   0.00000  Uiso   1.00
C67    C     0.62259   0.18642   0.77692   0.00000  Uiso   1.00
C68    C     0.62218   0.24458   0.84867   0.00000  Uiso   1.00
C69    C     0.62207   0.10709   0.90149   0.00000  Uiso   1.00
H70    H     0.62354   0.81852   0.66255   0.00000  Uiso   1.00
H71    H     0.57617   0.84229   0.59117   0.00000  Uiso   1.00
H72    H     0.67155   0.84650   0.59427   0.00000  Uiso   1.00
H73    H     0.62299   0.71396   0.79706   0.00000  Uiso   1.00
H74    H     0.52353   0.95192   0.52010   0.00000  Uiso   1.00
H75    H     0.72466   0.96077   0.52667   0.00000  Uiso   1.00
H76    H     0.62226   0.68128   0.95429   0.00000  Uiso   1.00
H77    H     0.62256   0.46004   0.72492   0.00000  Uiso   1.00
H78    H     0.57514   0.51902   0.65696   0.00000  Uiso   1.00
H79    H     0.67053   0.52322   0.66006   0.00000  Uiso   1.00
H80    H     0.62196   0.39068   0.86285   0.00000  Uiso   1.00
H81    H     0.52269   0.50118   0.57350   0.00000  Uiso   1.00
H82    H     0.72383   0.51003   0.58007   0.00000  Uiso   1.00
H83    H     0.62142   0.23054   0.00769   0.00000  Uiso   1.00
O84    O     0.49194   0.25379   0.50095   0.00000  Uiso   1.00
O85    O     0.75582   0.26539   0.50958   0.00000  Uiso   1.00
O86    O     0.62146   0.89871   0.07061   0.00000  Uiso   1.00
N87    N     0.52984   0.07309   0.54201   0.00000  Uiso   1.00
N88    N     0.71788   0.08137   0.54814   0.00000  Uiso   1.00
N89    N     0.62215   0.82007   0.94793   0.00000  Uiso   1.00
N90    N     0.52939   0.36864   0.57074   0.00000  Uiso   1.00
N91    N     0.71743   0.37692   0.57687   0.00000  Uiso   1.00
N92    N     0.62170   0.11562   0.97666   0.00000  Uiso   1.00
C93    C     0.12331   0.53451   0.32316   0.00000  Uiso   1.00
C94    C     0.09744   0.43264   0.35329   0.00000  Uiso   1.00
C95    C     0.07594   0.51161   0.39463   0.00000  Uiso   1.00
C96    C     0.05411   0.39497   0.41701   0.00000  Uiso   1.00
C97    C     0.01399   0.26549   0.46661   0.00000  Uiso   1.00
C98    C     0.14926   0.43035   0.35161   0.00000  Uiso   1.00
C99    C     0.17134   0.50740   0.39154   0.00000  Uiso   1.00
C100   C     0.19314   0.38884   0.41249   0.00000  Uiso   1.00
C101   C     0.23348   0.25582   0.45944   0.00000  Uiso   1.00
C102   C     0.12288   0.50236   0.24143   0.00000  Uiso   1.00
C103   C     0.12277   0.63997   0.18871   0.00000  Uiso   1.00
C104   C     0.12236   0.58203   0.11690   0.00000  Uiso   1.00
C105   C     0.12173   0.56084   0.99278   0.00000  Uiso   1.00
C106   C     0.12279   0.18694   0.28937   0.00000  Uiso   1.00
C107   C     0.09715   0.24385   0.33493   0.00000  Uiso   1.00
C108   C     0.07535   0.12707   0.35725   0.00000  Uiso   1.00
C109   C     0.05382   0.20585   0.39862   0.00000  Uiso   1.00
C110   C     0.14898   0.24157   0.33326   0.00000  Uiso   1.00
C111   C     0.17075   0.12286   0.35415   0.00000  Uiso   1.00
C112   C     0.19285   0.19971   0.39410   0.00000  Uiso   1.00
C113   C     0.12259   0.31358   0.22308   0.00000  Uiso   1.00
C114   C     0.12218   0.25542   0.15133   0.00000  Uiso   1.00
C115   C     0.12207   0.39291   0.09851   0.00000  Uiso   1.00
H116   H     0.12354   0.68148   0.33745   0.00000  Uiso   1.00
H117   H     0.07617   0.65771   0.40883   0.00000  Uiso   1.00
H118   H     0.17155   0.65350   0.40573   0.00000  Uiso   1.00
H119   H     0.12299   0.78604   0.20294   0.00000  Uiso   1.00
H120   H     0.02353   0.54808   0.47990   0.00000  Uiso   1.00
H121   H     0.22466   0.53923   0.47333   0.00000  Uiso   1.00
H122   H     0.12226   0.81872   0.04571   0.00000  Uiso   1.00
H123   H     0.12256   0.03996   0.27508   0.00000  Uiso   1.00
H124   H     0.07514   0.98098   0.34304   0.00000  Uiso   1.00
H125   H     0.17053   0.97678   0.33994   0.00000  Uiso   1.00
H126   H     0.12196   0.10932   0.13715   0.00000  Uiso   1.00
H127   H     0.02269   0.99882   0.42650   0.00000  Uiso   1.00
H128   H     0.22383   0.98997   0.41993   0.00000  Uiso   1.00
H129   H     0.12142   0.26946   0.99231   0.00000  Uiso   1.00
O130   O     0.99194   0.24621   0.49905   0.00000  Uiso   1.00
O131   O     0.25582   0.23461   0.49042   0.00000  Uiso   1.00
O132   O     0.12146   0.60129   0.92939   0.00000  Uiso   1.00
N133   N     0.02984   0.42691   0.45799   0.00000  Uiso   1.00
N134   N     0.21788   0.41863   0.45186   0.00000  Uiso   1.00
N135   N     0.12215   0.67993   0.05207   0.00000  Uiso   1.00
N136   N     0.02939   0.13136   0.42926   0.00000  Uiso   1.00
N137   N     0.21743   0.12308   0.42313   0.00000  Uiso   1.00
N138   N     0.12170   0.38438   0.02334   0.00000  Uiso   1.00
C139   C     0.37669   0.46549   0.82316   0.00000  Uiso   1.00
C140   C     0.40256   0.56736   0.85329   0.00000  Uiso   1.00
C141   C     0.42406   0.48839   0.89463   0.00000  Uiso   1.00
C142   C     0.44589   0.60503   0.91701   0.00000  Uiso   1.00
C143   C     0.48601   0.73451   0.96661   0.00000  Uiso   1.00
C144   C     0.35074   0.56965   0.85161   0.00000  Uiso   1.00
C145   C     0.32866   0.49260   0.89154   0.00000  Uiso   1.00
C146   C     0.30686   0.61116   0.91249   0.00000  Uiso   1.00
C147   C     0.26652   0.74418   0.95944   0.00000  Uiso   1.00
C148   C     0.37712   0.49764   0.74143   0.00000  Uiso   1.00
C149   C     0.37723   0.36003   0.68871   0.00000  Uiso   1.00
C150   C     0.37764   0.41797   0.61690   0.00000  Uiso   1.00
C151   C     0.37827   0.43916   0.49278   0.00000  Uiso   1.00
C152   C     0.37721   0.81306   0.78937   0.00000  Uiso   1.00
C153   C     0.40285   0.75615   0.83493   0.00000  Uiso   1.00
C154   C     0.42465   0.87293   0.85725   0.00000  Uiso   1.00
C155   C     0.44618   0.79415   0.89862   0.00000  Uiso   1.00
C156   C     0.35102   0.75843   0.83326   0.00000  Uiso   1.00
C157   C     0.32925   0.87714   0.85415   0.00000  Uiso   1.00
C158   C     0.30715   0.80029   0.89410   0.00000  Uiso   1.00
C159   C     0.37741   0.68642   0.72308   0.00000  Uiso   1.00
C160   C     0.37782   0.74458   0.65133   0.00000  Uiso   1.00
C161   C     0.37793   0.60709   0.59851   0.00000  Uiso   1.00
H162   H     0.37646   0.31852   0.83745   0.00000  Uiso   1.00
H163   H     0.42383   0.34229   0.90883   0.00000  Uiso   1.00
H164   H     0.32845   0.34650   0.90573   0.00000  Uiso   1.00
H165   H     0.37701   0.21396   0.70294   0.00000  Uiso   1.00
H166   H     0.47647   0.45192   0.97990   0.00000  Uiso   1.00
H167   H     0.27534   0.46077   0.97333   0.00000  Uiso   1.00
H168   H     0.37774   0.18128   0.54571   0.00000  Uiso   1.00
H169   H     0.37744   0.96004   0.77508   0.00000  Uiso   1.00
H170   H     0.42486   0.01902   0.84304   0.00000  Uiso   1.00
H171   H     0.32947   0.02322   0.83994   0.00000  Uiso   1.00
H172   H     0.37804   0.89068   0.63715   0.00000  Uiso   1.00
H173   H     0.47731   0.00118   0.92650   0.00000  Uiso   1.00
H174   H     0.27617   0.01003   0.91993   0.00000  Uiso   1.00
H175   H     0.37858   0.73054   0.49231   0.00000  Uiso   1.00
O176   O     0.50806   0.75379   0.99905   0.00000  Uiso   1.00
O177   O     0.24418   0.76539   0.99042   0.00000  Uiso   1.00
O178   O     0.37854   0.39871   0.42939   0.00000  Uiso   1.00
N179   N     0.47016   0.57309   0.95799   0.00000  Uiso   1.00
N180   N     0.28212   0.58137   0.95186   0.00000  Uiso   1.00
N181   N     0.37785   0.32007   0.55207   0.00000  Uiso   1.00
N182   N     0.47061   0.86864   0.92926   0.00000  Uiso   1.00
N183   N     0.28257   0.87692   0.92313   0.00000  Uiso   1.00
N184   N     0.37830   0.61562   0.52334   0.00000  Uiso   1.00
C185   C     0.12331   0.96549   0.82316   0.00000  Uiso   1.00
C186   C     0.09744   0.06736   0.85329   0.00000  Uiso   1.00
C187   C     0.07594   0.98839   0.89463   0.00000  Uiso   1.00
C188   C     0.05411   0.10503   0.91701   0.00000  Uiso   1.00
C189   C     0.01399   0.23451   0.96661   0.00000  Uiso   1.00
C190   C     0.14926   0.06965   0.85161   0.00000  Uiso   1.00
C191   C     0.17134   0.99260   0.89154   0.00000  Uiso   1.00
C192   C     0.19314   0.11116   0.91249   0.00000  Uiso   1.00
C193   C     0.23348   0.24418   0.95944   0.00000  Uiso   1.00
C194   C     0.12288   0.99764   0.74143   0.00000  Uiso   1.00
C195   C     0.12277   0.86003   0.68871   0.00000  Uiso   1.00
C196   C     0.12236   0.91797   0.61690   0.00000  Uiso   1.00
C197   C     0.12173   0.93916   0.49278   0.00000  Uiso   1.00
C198   C     0.12279   0.31306   0.78937   0.00000  Uiso   1.00
C199   C     0.09715   0.25615   0.83493   0.00000  Uiso   1.00
C200   C     0.07535   0.37293   0.85725   0.00000  Uiso   1.00
C201   C     0.05382   0.29415   0.89862   0.00000  Uiso   1.00
C202   C     0.14898   0.25843   0.83326   0.00000  Uiso   1.00
C203   C     0.17075   0.37714   0.85415   0.00000  Uiso   1.00
C204   C     0.19285   0.30029   0.89410   0.00000  Uiso   1.00
C205   C     0.12259   0.18642   0.72308   0.00000  Uiso   1.00
C206   C     0.12218   0.24458   0.65133   0.00000  Uiso   1.00
C207   C     0.12207   0.10709   0.59851   0.00000  Uiso   1.00
H208   H     0.12354   0.81852   0.83745   0.00000  Uiso   1.00
H209   H     0.07617   0.84229   0.90883   0.00000  Uiso   1.00
H210   H     0.17155   0.84650   0.90573   0.00000  Uiso   1.00
H211   H     0.12299   0.71396   0.70294   0.00000  Uiso   1.00
H212   H     0.02353   0.95192   0.97990   0.00000  Uiso   1.00
H213   H     0.22466   0.96077   0.97333   0.00000  Uiso   1.00
H214   H     0.12226   0.68128   0.54571   0.00000  Uiso   1.00
H215   H     0.12256   0.46004   0.77508   0.00000  Uiso   1.00
H216   H     0.07514   0.51902   0.84304   0.00000  Uiso   1.00
H217   H     0.17053   0.52322   0.83994   0.00000  Uiso   1.00
H218   H     0.12196   0.39068   0.63715   0.00000  Uiso   1.00
H219   H     0.02269   0.50118   0.92650   0.00000  Uiso   1.00
H220   H     0.22383   0.51003   0.91993   0.00000  Uiso   1.00
H221   H     0.12142   0.23054   0.49231   0.00000  Uiso   1.00
O222   O     0.99194   0.25379   0.99905   0.00000  Uiso   1.00
O223   O     0.25582   0.26539   0.99042   0.00000  Uiso   1.00
O224   O     0.12146   0.89871   0.42939   0.00000  Uiso   1.00
N225   N     0.02984   0.07309   0.95799   0.00000  Uiso   1.00
N226   N     0.21788   0.08137   0.95186   0.00000  Uiso   1.00
N227   N     0.12215   0.82007   0.55207   0.00000  Uiso   1.00
N228   N     0.02939   0.36864   0.92926   0.00000  Uiso   1.00
N229   N     0.21743   0.37692   0.92313   0.00000  Uiso   1.00
N230   N     0.12170   0.11562   0.52334   0.00000  Uiso   1.00
C231   C     0.37669   0.03451   0.32316   0.00000  Uiso   1.00
C232   C     0.40256   0.93264   0.35329   0.00000  Uiso   1.00
C233   C     0.42406   0.01161   0.39463   0.00000  Uiso   1.00
C234   C     0.44589   0.89497   0.41701   0.00000  Uiso   1.00
C235   C     0.48601   0.76549   0.46661   0.00000  Uiso   1.00
C236   C     0.35074   0.93035   0.35161   0.00000  Uiso   1.00
C237   C     0.32866   0.00740   0.39154   0.00000  Uiso   1.00
C238   C     0.30686   0.88884   0.41249   0.00000  Uiso   1.00
C239   C     0.26652   0.75582   0.45944   0.00000  Uiso   1.00
C240   C     0.37712   0.00236   0.24143   0.00000  Uiso   1.00
C241   C     0.37723   0.13997   0.18871   0.00000  Uiso   1.00
C242   C     0.37764   0.08203   0.11690   0.00000  Uiso   1.00
C243   C     0.37827   0.06084   0.99278   0.00000  Uiso   1.00
C244   C     0.37721   0.68694   0.28937   0.00000  Uiso   1.00
C245   C     0.40285   0.74385   0.33493   0.00000  Uiso   1.00
C246   C     0.42465   0.62707   0.35725   0.00000  Uiso   1.00
C247   C     0.44618   0.70585   0.39862   0.00000  Uiso   1.00
C248   C     0.35102   0.74157   0.33326   0.00000  Uiso   1.00
C249   C     0.32925   0.62286   0.35415   0.00000  Uiso   1.00
C250   C     0.30715   0.69971   0.39410   0.00000  Uiso   1.00
C251   C     0.37741   0.81358   0.22308   0.00000  Uiso   1.00
C252   C     0.37782   0.75542   0.15133   0.00000  Uiso   1.00
C253   C     0.37793   0.89291   0.09851   0.00000  Uiso   1.00
H254   H     0.37646   0.18148   0.33745   0.00000  Uiso   1.00
H255   H     0.42383   0.15771   0.40883   0.00000  Uiso   1.00
H256   H     0.32845   0.15350   0.40573   0.00000  Uiso   1.00
H257   H     0.37701   0.28604   0.20294   0.00000  Uiso   1.00
H258   H     0.47647   0.04808   0.47990   0.00000  Uiso   1.00
H259   H     0.27534   0.03923   0.47333   0.00000  Uiso   1.00
H260   H     0.37774   0.31872   0.04571   0.00000  Uiso   1.00
H261   H     0.37744   0.53996   0.27508   0.00000  Uiso   1.00
H262   H     0.42486   0.48098   0.34304   0.00000  Uiso   1.00
H263   H     0.32947   0.47678   0.33994   0.00000  Uiso   1.00
H264   H     0.37804   0.60932   0.13715   0.00000  Uiso   1.00
H265   H     0.47731   0.49882   0.42650   0.00000  Uiso   1.00
H266   H     0.27617   0.48997   0.41993   0.00000  Uiso   1.00
H267   H     0.37858   0.76946   0.99231   0.00000  Uiso   1.00
O268   O     0.50806   0.74621   0.49905   0.00000  Uiso   1.00
O269   O     0.24418   0.73461   0.49042   0.00000  Uiso   1.00
O270   O     0.37854   0.10129   0.92939   0.00000  Uiso   1.00
N271   N     0.47016   0.92691   0.45799   0.00000  Uiso   1.00
N272   N     0.28212   0.91863   0.45186   0.00000  Uiso   1.00
N273   N     0.37785   0.17993   0.05207   0.00000  Uiso   1.00
N274   N     0.47061   0.63136   0.42926   0.00000  Uiso   1.00
N275   N     0.28257   0.62308   0.42313   0.00000  Uiso   1.00
N276   N     0.37830   0.88438   0.02334   0.00000  Uiso   1.00
C277   C     0.87669   0.46549   0.67684   0.00000  Uiso   1.00
C278   C     0.90256   0.56736   0.64671   0.00000  Uiso   1.00
C279   C     0.92406   0.48839   0.60537   0.00000  Uiso   1.00
C280   C     0.94589   0.60503   0.58299   0.00000  Uiso   1.00
C281   C     0.98601   0.73451   0.53339   0.00000  Uiso   1.00
C282   C     0.85074   0.56965   0.64839   0.00000  Uiso   1.00
C283   C     0.82866   0.49260   0.60846   0.00000  Uiso   1.00
C284   C     0.80686   0.61116   0.58751   0.00000  Uiso   1.00
C285   C     0.76652   0.74418   0.54056   0.00000  Uiso   1.00
C286   C     0.87712   0.49764   0.75857   0.00000  Uiso   1.00
C287   C     0.87723   0.36003   0.81129   0.00000  Uiso   1.00
C288   C     0.87764   0.41797   0.88310   0.00000  Uiso   1.00
C289   C     0.87827   0.43916   0.00722   0.00000  Uiso   1.00
C290   C     0.87721   0.81306   0.71063   0.00000  Uiso   1.00
C291   C     0.90285   0.75615   0.66507   0.00000  Uiso   1.00
C292   C     0.92465   0.87293   0.64275   0.00000  Uiso   1.00
C293   C     0.94618   0.79415   0.60138   0.00000  Uiso   1.00
C294   C     0.85102   0.75843   0.66674   0.00000  Uiso   1.00
C295   C     0.82925   0.87714   0.64585   0.00000  Uiso   1.00
C296   C     0.80715   0.80029   0.60590   0.00000  Uiso   1.00
C297   C     0.87741   0.68642   0.77692   0.00000  Uiso   1.00
C298   C     0.87782   0.74458   0.84867   0.00000  Uiso   1.00
C299   C     0.87793   0.60709   0.90149   0.00000  Uiso   1.00
H300   H     0.87646   0.31852   0.66255   0.00000  Uiso   1.00
H301   H     0.92383   0.34229   0.59117   0.00000  Uiso   1.00
H302   H     0.82845   0.34650   0.59427   0.00000  Uiso   1.00
H303   H     0.87701   0.21396   0.79706   0.00000  Uiso   1.00
H304   H     0.97647   0.45192   0.52010   0.00000  Uiso   1.00
H305   H     0.77534   0.46077   0.52667   0.00000  Uiso   1.00
H306   H     0.87774   0.18128   0.95429   0.00000  Uiso   1.00
H307   H     0.87744   0.96004   0.72492   0.00000  Uiso   1.00
H308   H     0.92486   0.01902   0.65696   0.00000  Uiso   1.00
H309   H     0.82947   0.02322   0.66006   0.00000  Uiso   1.00
H310   H     0.87804   0.89068   0.86285   0.00000  Uiso   1.00
H311   H     0.97731   0.00118   0.57350   0.00000  Uiso   1.00
H312   H     0.77617   0.01003   0.58007   0.00000  Uiso   1.00
H313   H     0.87858   0.73054   0.00769   0.00000  Uiso   1.00
O314   O     0.00806   0.75379   0.50095   0.00000  Uiso   1.00
O315   O     0.74418   0.76539   0.50958   0.00000  Uiso   1.00
O316   O     0.87854   0.39871   0.07061   0.00000  Uiso   1.00
N317   N     0.97016   0.57309   0.54201   0.00000  Uiso   1.00
N318   N     0.78212   0.58137   0.54814   0.00000  Uiso   1.00
N319   N     0.87785   0.32007   0.94793   0.00000  Uiso   1.00
N320   N     0.97061   0.86864   0.57074   0.00000  Uiso   1.00
N321   N     0.78257   0.87692   0.57687   0.00000  Uiso   1.00
N322   N     0.87830   0.61562   0.97666   0.00000  Uiso   1.00
C323   C     0.62331   0.53451   0.17684   0.00000  Uiso   1.00
C324   C     0.59744   0.43264   0.14671   0.00000  Uiso   1.00
C325   C     0.57594   0.51161   0.10537   0.00000  Uiso   1.00
C326   C     0.55411   0.39497   0.08299   0.00000  Uiso   1.00
C327   C     0.51399   0.26549   0.03339   0.00000  Uiso   1.00
C328   C     0.64926   0.43035   0.14839   0.00000  Uiso   1.00
C329   C     0.67134   0.50740   0.10846   0.00000  Uiso   1.00
C330   C     0.69314   0.38884   0.08751   0.00000  Uiso   1.00
C331   C     0.73348   0.25582   0.04056   0.00000  Uiso   1.00
C332   C     0.62288   0.50236   0.25857   0.00000  Uiso   1.00
C333   C     0.62277   0.63997   0.31129   0.00000  Uiso   1.00
C334   C     0.62236   0.58203   0.38310   0.00000  Uiso   1.00
C335   C     0.62173   0.56084   0.50722   0.00000  Uiso   1.00
C336   C     0.62279   0.18694   0.21063   0.00000  Uiso   1.00
C337   C     0.59715   0.24385   0.16507   0.00000  Uiso   1.00
C338   C     0.57535   0.12707   0.14275   0.00000  Uiso   1.00
C339   C     0.55382   0.20585   0.10138   0.00000  Uiso   1.00
C340   C     0.64898   0.24157   0.16674   0.00000  Uiso   1.00
C341   C     0.67075   0.12286   0.14585   0.00000  Uiso   1.00
C342   C     0.69285   0.19971   0.10590   0.00000  Uiso   1.00
C343   C     0.62259   0.31358   0.27692   0.00000  Uiso   1.00
C344   C     0.62218   0.25542   0.34867   0.00000  Uiso   1.00
C345   C     0.62207   0.39291   0.40149   0.00000  Uiso   1.00
H346   H     0.62354   0.68148   0.16255   0.00000  Uiso   1.00
H347   H     0.57617   0.65771   0.09117   0.00000  Uiso   1.00
H348   H     0.67155   0.65350   0.09427   0.00000  Uiso   1.00
H349   H     0.62299   0.78604   0.29706   0.00000  Uiso   1.00
H350   H     0.52353   0.54808   0.02010   0.00000  Uiso   1.00
H351   H     0.72466   0.53923   0.02667   0.00000  Uiso   1.00
H352   H     0.62226   0.81872   0.45429   0.00000  Uiso   1.00
H353   H     0.62256   0.03996   0.22492   0.00000  Uiso   1.00
H354   H     0.57514   0.98098   0.15696   0.00000  Uiso   1.00
H355   H     0.67053   0.97678   0.16006   0.00000  Uiso   1.00
H356   H     0.62196   0.10932   0.36285   0.00000  Uiso   1.00
H357   H     0.52269   0.99882   0.07350   0.00000  Uiso   1.00
H358   H     0.72383   0.98997   0.08007   0.00000  Uiso   1.00
H359   H     0.62142   0.26946   0.50769   0.00000  Uiso   1.00
O360   O     0.49194   0.24621   0.00095   0.00000  Uiso   1.00
O361   O     0.75582   0.23461   0.00958   0.00000  Uiso   1.00
O362   O     0.62146   0.60129   0.57061   0.00000  Uiso   1.00
N363   N     0.52984   0.42691   0.04201   0.00000  Uiso   1.00
N364   N     0.71788   0.41863   0.04814   0.00000  Uiso   1.00
N365   N     0.62215   0.67993   0.44793   0.00000  Uiso   1.00
N366   N     0.52939   0.13136   0.07074   0.00000  Uiso   1.00
N367   N     0.71743   0.12308   0.07687   0.00000  Uiso   1.00
N368   N     0.62170   0.38438   0.47666   0.00000  Uiso   1.00
