data_job_06624
_audit_creation_date              2018-12-19
_audit_creation_method            'Materials Studio'
_symmetry_space_group_name_H-M    'P1'
_symmetry_Int_Tables_number       1
_symmetry_cell_setting            triclinic
loop_
_symmetry_equiv_pos_as_xyz
  x,y,z
_cell_length_a                    19.5350
_cell_length_b                    21.3043
_cell_length_c                    22.8488
_cell_angle_alpha                 82.2746
_cell_angle_beta                  95.1153
_cell_angle_gamma                 64.4206
loop_
_atom_site_label
_atom_site_type_symbol
_atom_site_fract_x
_atom_site_fract_y
_atom_site_fract_z
_atom_site_U_iso_or_equiv
_atom_site_adp_type
_atom_site_occupancy
C1     C     0.64883   0.04413   0.75014   0.00000  Uiso   1.00
C2     C     0.56682   0.10362   0.73918   0.00000  Uiso   1.00
C3     C     0.54623   0.17484   0.73811   0.00000  Uiso   1.00
C4     C     0.46812   0.22095   0.72737   0.00000  Uiso   1.00
C5     C     0.34921   0.31701   0.71180   0.00000  Uiso   1.00
C6     C     0.65351   0.99006   0.80333   0.00000  Uiso   1.00
C7     C     0.70582   0.96580   0.85619   0.00000  Uiso   1.00
C8     C     0.70069   0.91630   0.89945   0.00000  Uiso   1.00
C9     C     0.71641   0.83603   0.98347   0.00000  Uiso   1.00
C10    C     0.65618   0.00803   0.69615   0.00000  Uiso   1.00
C11    C     0.71075   0.99886   0.65889   0.00000  Uiso   1.00
C12    C     0.70788   0.96448   0.61192   0.00000  Uiso   1.00
C13    C     0.72775   0.91210   0.52951   0.00000  Uiso   1.00
C14    C     0.54671   0.99936   0.73298   0.00000  Uiso   1.00
C15    C     0.51135   0.07930   0.72986   0.00000  Uiso   1.00
C16    C     0.43325   0.12531   0.71912   0.00000  Uiso   1.00
C17    C     0.41255   0.19659   0.71802   0.00000  Uiso   1.00
C18    C     0.59804   0.96575   0.79401   0.00000  Uiso   1.00
C19    C     0.59283   0.91627   0.83720   0.00000  Uiso   1.00
C20    C     0.64512   0.89194   0.89011   0.00000  Uiso   1.00
C21    C     0.60071   0.98372   0.68683   0.00000  Uiso   1.00
C22    C     0.59776   0.94933   0.63990   0.00000  Uiso   1.00
C23    C     0.65231   0.94012   0.60258   0.00000  Uiso   1.00
H24    H     0.69202   0.06306   0.75740   0.00000  Uiso   1.00
H25    H     0.58918   0.19364   0.74533   0.00000  Uiso   1.00
H26    H     0.74874   0.98462   0.86339   0.00000  Uiso   1.00
H27    H     0.75367   0.01769   0.66612   0.00000  Uiso   1.00
H28    H     0.45070   0.32768   0.72785   0.00000  Uiso   1.00
H29    H     0.78717   0.88695   0.97679   0.00000  Uiso   1.00
H30    H     0.79756   0.95666   0.56081   0.00000  Uiso   1.00
H31    H     0.50352   0.98043   0.72572   0.00000  Uiso   1.00
H32    H     0.39033   0.10647   0.71190   0.00000  Uiso   1.00
H33    H     0.54990   0.89746   0.82997   0.00000  Uiso   1.00
H34    H     0.55483   0.93052   0.63270   0.00000  Uiso   1.00
H35    H     0.28931   0.25693   0.70073   0.00000  Uiso   1.00
H36    H     0.62578   0.81620   0.94967   0.00000  Uiso   1.00
H37    H     0.63617   0.88591   0.53368   0.00000  Uiso   1.00
O38    O     0.29895   0.37671   0.70580   0.00000  Uiso   1.00
O39    O     0.74040   0.79847   0.03238   0.00000  Uiso   1.00
O40    O     0.75402   0.88994   0.48663   0.00000  Uiso   1.00
N41    N     0.42825   0.29373   0.72335   0.00000  Uiso   1.00
N42    N     0.74282   0.88168   0.95610   0.00000  Uiso   1.00
N43    N     0.75255   0.94684   0.56720   0.00000  Uiso   1.00
N44    N     0.34141   0.25567   0.70876   0.00000  Uiso   1.00
N45    N     0.65598   0.84361   0.94150   0.00000  Uiso   1.00
N46    N     0.66571   0.90877   0.55260   0.00000  Uiso   1.00
C47    C     0.42064   0.31077   0.39410   0.00000  Uiso   1.00
C48    C     0.45246   0.32613   0.45093   0.00000  Uiso   1.00
C49    C     0.41136   0.35274   0.49578   0.00000  Uiso   1.00
C50    C     0.45085   0.36312   0.54417   0.00000  Uiso   1.00
C51    C     0.48841   0.38940   0.63188   0.00000  Uiso   1.00
C52    C     0.43559   0.35341   0.34205   0.00000  Uiso   1.00
C53    C     0.38030   0.40293   0.29535   0.00000  Uiso   1.00
C54    C     0.40561   0.43627   0.25207   0.00000  Uiso   1.00
C55    C     0.41698   0.50484   0.17072   0.00000  Uiso   1.00
C56    C     0.47204   0.23299   0.39356   0.00000  Uiso   1.00
C57    C     0.44740   0.18127   0.39016   0.00000  Uiso   1.00
C58    C     0.50340   0.11322   0.39024   0.00000  Uiso   1.00
C59    C     0.57136   0.99483   0.38887   0.00000  Uiso   1.00
C60    C     0.56388   0.28189   0.40029   0.00000  Uiso   1.00
C61    C     0.53026   0.31045   0.45429   0.00000  Uiso   1.00
C62    C     0.56983   0.32079   0.50262   0.00000  Uiso   1.00
C63    C     0.52880   0.34740   0.54754   0.00000  Uiso   1.00
C64    C     0.51338   0.33772   0.34541   0.00000  Uiso   1.00
C65    C     0.53878   0.37098   0.30219   0.00000  Uiso   1.00
C66    C     0.48355   0.42055   0.25544   0.00000  Uiso   1.00
C67    C     0.54984   0.21730   0.39692   0.00000  Uiso   1.00
C68    C     0.60588   0.14932   0.39700   0.00000  Uiso   1.00
C69    C     0.58134   0.09750   0.39360   0.00000  Uiso   1.00
H70    H     0.36007   0.32298   0.39149   0.00000  Uiso   1.00
H71    H     0.35114   0.36488   0.49316   0.00000  Uiso   1.00
H72    H     0.32010   0.41506   0.29276   0.00000  Uiso   1.00
H73    H     0.38719   0.19343   0.38756   0.00000  Uiso   1.00
H74    H     0.37555   0.40443   0.60736   0.00000  Uiso   1.00
H75    H     0.31010   0.51022   0.18479   0.00000  Uiso   1.00
H76    H     0.45157   0.04287   0.38469   0.00000  Uiso   1.00
H77    H     0.62445   0.26968   0.40290   0.00000  Uiso   1.00
H78    H     0.63004   0.30865   0.50521   0.00000  Uiso   1.00
H79    H     0.59899   0.35883   0.30480   0.00000  Uiso   1.00
H80    H     0.66608   0.13720   0.39960   0.00000  Uiso   1.00
H81    H     0.60191   0.35880   0.61714   0.00000  Uiso   1.00
H82    H     0.53646   0.46458   0.19456   0.00000  Uiso   1.00
H83    H     0.67793   0.99723   0.39446   0.00000  Uiso   1.00
O84    O     0.48763   0.40823   0.67933   0.00000  Uiso   1.00
O85    O     0.40176   0.54701   0.12493   0.00000  Uiso   1.00
O86    O     0.58736   0.93386   0.38719   0.00000  Uiso   1.00
N87    N     0.42806   0.38833   0.59563   0.00000  Uiso   1.00
N88    N     0.36687   0.48725   0.20055   0.00000  Uiso   1.00
N89    N     0.49913   0.05031   0.38742   0.00000  Uiso   1.00
N90    N     0.54986   0.36377   0.60089   0.00000  Uiso   1.00
N91    N     0.48867   0.46269   0.20581   0.00000  Uiso   1.00
N92    N     0.62093   0.02575   0.39268   0.00000  Uiso   1.00
C93    C     0.13422   0.15916   0.62088   0.00000  Uiso   1.00
C94    C     0.14396   0.22649   0.60595   0.00000  Uiso   1.00
C95    C     0.14291   0.27121   0.64514   0.00000  Uiso   1.00
C96    C     0.15282   0.33012   0.62287   0.00000  Uiso   1.00
C97    C     0.16630   0.43261   0.60871   0.00000  Uiso   1.00
C98    C     0.06669   0.16857   0.57554   0.00000  Uiso   1.00
C99    C     0.00068   0.16458   0.58917   0.00000  Uiso   1.00
C100   C     0.94557   0.17472   0.54130   0.00000  Uiso   1.00
C101   C     0.83911   0.18723   0.47994   0.00000  Uiso   1.00
C102   C     0.20535   0.09964   0.60627   0.00000  Uiso   1.00
C103   C     0.25592   0.03769   0.64573   0.00000  Uiso   1.00
C104   C     0.31753   0.98979   0.62373   0.00000  Uiso   1.00
C105   C     0.42636   0.89528   0.61008   0.00000  Uiso   1.00
C106   C     0.15371   0.18426   0.51164   0.00000  Uiso   1.00
C107   C     0.15455   0.24012   0.54661   0.00000  Uiso   1.00
C108   C     0.16447   0.29897   0.52428   0.00000  Uiso   1.00
C109   C     0.16344   0.34378   0.56343   0.00000  Uiso   1.00
C110   C     0.07728   0.18219   0.51621   0.00000  Uiso   1.00
C111   C     0.02225   0.19234   0.46831   0.00000  Uiso   1.00
C112   C     0.95617   0.18838   0.48186   0.00000  Uiso   1.00
C113   C     0.21594   0.11327   0.54694   0.00000  Uiso   1.00
C114   C     0.27749   0.06545   0.52487   0.00000  Uiso   1.00
C115   C     0.32814   0.00344   0.56429   0.00000  Uiso   1.00
H116   H     0.12597   0.14855   0.66707   0.00000  Uiso   1.00
H117   H     0.13470   0.26065   0.69106   0.00000  Uiso   1.00
H118   H     0.99251   0.15402   0.63509   0.00000  Uiso   1.00
H119   H     0.24770   0.02716   0.69165   0.00000  Uiso   1.00
H120   H     0.14902   0.39095   0.69147   0.00000  Uiso   1.00
H121   H     0.84921   0.16611   0.57348   0.00000  Uiso   1.00
H122   H     0.38734   0.89858   0.69273   0.00000  Uiso   1.00
H123   H     0.16196   0.19487   0.46544   0.00000  Uiso   1.00
H124   H     0.17267   0.30951   0.47836   0.00000  Uiso   1.00
H125   H     0.03047   0.20288   0.42240   0.00000  Uiso   1.00
H126   H     0.28566   0.07602   0.47895   0.00000  Uiso   1.00
H127   H     0.17983   0.43061   0.51884   0.00000  Uiso   1.00
H128   H     0.88002   0.20576   0.40084   0.00000  Uiso   1.00
H129   H     0.41815   0.93824   0.52010   0.00000  Uiso   1.00
O130   O     0.17080   0.48537   0.61729   0.00000  Uiso   1.00
O131   O     0.77746   0.19037   0.46249   0.00000  Uiso   1.00
O132   O     0.48347   0.83939   0.61894   0.00000  Uiso   1.00
N133   N     0.15482   0.38455   0.64907   0.00000  Uiso   1.00
N134   N     0.87451   0.17434   0.53876   0.00000  Uiso   1.00
N135   N     0.37760   0.92422   0.65024   0.00000  Uiso   1.00
N136   N     0.17140   0.40588   0.55618   0.00000  Uiso   1.00
N137   N     0.89109   0.19568   0.44586   0.00000  Uiso   1.00
N138   N     0.39418   0.94555   0.55735   0.00000  Uiso   1.00
C139   C     0.81614   0.42476   0.86809   0.00000  Uiso   1.00
C140   C     0.80836   0.42638   0.93375   0.00000  Uiso   1.00
C141   C     0.83468   0.46161   0.96970   0.00000  Uiso   1.00
C142   C     0.82195   0.45663   0.02859   0.00000  Uiso   1.00
C143   C     0.81557   0.46508   0.12718   0.00000  Uiso   1.00
C144   C     0.73469   0.45229   0.83427   0.00000  Uiso   1.00
C145   C     0.69909   0.50929   0.78657   0.00000  Uiso   1.00
C146   C     0.62436   0.52612   0.76171   0.00000  Uiso   1.00
C147   C     0.50363   0.57476   0.70583   0.00000  Uiso   1.00
C148   C     0.85779   0.34663   0.86410   0.00000  Uiso   1.00
C149   C     0.92568   0.31480   0.84147   0.00000  Uiso   1.00
C150   C     0.95458   0.24268   0.84171   0.00000  Uiso   1.00
C151   C     0.02499   0.12727   0.83215   0.00000  Uiso   1.00
C152   C     0.74674   0.35328   0.90875   0.00000  Uiso   1.00
C153   C     0.77066   0.38755   0.95584   0.00000  Uiso   1.00
C154   C     0.75789   0.38252   0.01469   0.00000  Uiso   1.00
C155   C     0.78419   0.41773   0.05072   0.00000  Uiso   1.00
C156   C     0.69700   0.41346   0.85636   0.00000  Uiso   1.00
C157   C     0.62230   0.43021   0.83156   0.00000  Uiso   1.00
C158   C     0.58659   0.48722   0.78384   0.00000  Uiso   1.00
C159   C     0.82010   0.30780   0.88619   0.00000  Uiso   1.00
C160   C     0.84890   0.23571   0.88647   0.00000  Uiso   1.00
C161   C     0.91682   0.20378   0.86384   0.00000  Uiso   1.00
H162   H     0.84548   0.45499   0.85089   0.00000  Uiso   1.00
H163   H     0.86384   0.49166   0.95259   0.00000  Uiso   1.00
H164   H     0.72828   0.53932   0.76949   0.00000  Uiso   1.00
H165   H     0.95484   0.34486   0.82438   0.00000  Uiso   1.00
H166   H     0.86755   0.51521   0.07507   0.00000  Uiso   1.00
H167   H     0.58171   0.61571   0.68898   0.00000  Uiso   1.00
H168   H     0.05946   0.20565   0.80473   0.00000  Uiso   1.00
H169   H     0.71739   0.32305   0.92595   0.00000  Uiso   1.00
H170   H     0.72872   0.35247   0.03177   0.00000  Uiso   1.00
H171   H     0.59315   0.40014   0.84867   0.00000  Uiso   1.00
H172   H     0.81971   0.20568   0.90356   0.00000  Uiso   1.00
H173   H     0.75787   0.40224   0.13934   0.00000  Uiso   1.00
H174   H     0.47204   0.50274   0.75324   0.00000  Uiso   1.00
H175   H     0.94978   0.09268   0.86900   0.00000  Uiso   1.00
O176   O     0.82245   0.48048   0.17546   0.00000  Uiso   1.00
O177   O     0.44746   0.61232   0.66891   0.00000  Uiso   1.00
O178   O     0.07425   0.07434   0.82078   0.00000  Uiso   1.00
N179   N     0.84019   0.48457   0.07568   0.00000  Uiso   1.00
N180   N     0.57295   0.57854   0.71471   0.00000  Uiso   1.00
N181   N     0.01959   0.19517   0.82292   0.00000  Uiso   1.00
N182   N     0.78118   0.42378   0.11026   0.00000  Uiso   1.00
N183   N     0.51394   0.51775   0.74929   0.00000  Uiso   1.00
N184   N     0.96058   0.13439   0.85750   0.00000  Uiso   1.00
C185   C     0.25611   0.15463   0.07911   0.00000  Uiso   1.00
C186   C     0.19398   0.23062   0.05668   0.00000  Uiso   1.00
C187   C     0.15551   0.27801   0.09240   0.00000  Uiso   1.00
C188   C     0.10064   0.34507   0.06329   0.00000  Uiso   1.00
C189   C     0.00660   0.46019   0.03798   0.00000  Uiso   1.00
C190   C     0.32636   0.14936   0.05176   0.00000  Uiso   1.00
C191   C     0.39919   0.12842   0.08334   0.00000  Uiso   1.00
C192   C     0.45576   0.12708   0.05008   0.00000  Uiso   1.00
C193   C     0.56726   0.11599   0.01714   0.00000  Uiso   1.00
C194   C     0.22809   0.10780   0.04993   0.00000  Uiso   1.00
C195   C     0.21831   0.05189   0.07997   0.00000  Uiso   1.00
C196   C     0.19215   0.01554   0.04517   0.00000  Uiso   1.00
C197   C     0.15107   0.93992   0.00938   0.00000  Uiso   1.00
C198   C     0.22708   0.18946   0.96389   0.00000  Uiso   1.00
C199   C     0.17822   0.24953   0.99410   0.00000  Uiso   1.00
C200   C     0.12339   0.31654   0.96493   0.00000  Uiso   1.00
C201   C     0.08484   0.36402   0.00059   0.00000  Uiso   1.00
C202   C     0.31060   0.16828   0.98918   0.00000  Uiso   1.00
C203   C     0.36708   0.16696   0.95587   0.00000  Uiso   1.00
C204   C     0.43997   0.14603   0.98739   0.00000  Uiso   1.00
C205   C     0.21232   0.12671   0.98735   0.00000  Uiso   1.00
C206   C     0.18619   0.09043   0.95250   0.00000  Uiso   1.00
C207   C     0.17636   0.03449   0.98248   0.00000  Uiso   1.00
H208   H     0.26839   0.13991   0.12783   0.00000  Uiso   1.00
H209   H     0.16773   0.26335   0.14083   0.00000  Uiso   1.00
H210   H     0.41138   0.11378   0.13177   0.00000  Uiso   1.00
H211   H     0.23051   0.03727   0.12840   0.00000  Uiso   1.00
H212   H     0.04920   0.40856   0.12764   0.00000  Uiso   1.00
H213   H     0.56295   0.09317   0.10854   0.00000  Uiso   1.00
H214   H     0.18157   0.93183   0.10143   0.00000  Uiso   1.00
H215   H     0.21481   0.20419   0.91517   0.00000  Uiso   1.00
H216   H     0.11120   0.33116   0.91650   0.00000  Uiso   1.00
H217   H     0.35485   0.18160   0.90744   0.00000  Uiso   1.00
H218   H     0.17399   0.10509   0.90407   0.00000  Uiso   1.00
H219   H     0.00332   0.46360   0.94557   0.00000  Uiso   1.00
H220   H     0.51708   0.14820   0.92647   0.00000  Uiso   1.00
H221   H     0.13569   0.98687   0.91936   0.00000  Uiso   1.00
O222   O     0.95910   0.51846   0.04131   0.00000  Uiso   1.00
O223   O     0.63312   0.10466   0.01625   0.00000  Uiso   1.00
O224   O     0.13275   0.89299   0.00693   0.00000  Uiso   1.00
N225   N     0.05261   0.40409   0.08461   0.00000  Uiso   1.00
N226   N     0.53293   0.10922   0.06675   0.00000  Uiso   1.00
N227   N     0.17639   0.95837   0.06010   0.00000  Uiso   1.00
N228   N     0.02792   0.43370   0.98663   0.00000  Uiso   1.00
N229   N     0.50825   0.13884   0.96878   0.00000  Uiso   1.00
N230   N     0.15171   0.98799   0.96213   0.00000  Uiso   1.00
C231   C     0.84500   0.13454   0.23958   0.00000  Uiso   1.00
C232   C     0.90280   0.16461   0.23472   0.00000  Uiso   1.00
C233   C     0.88500   0.23604   0.22277   0.00000  Uiso   1.00
C234   C     0.94611   0.25270   0.22016   0.00000  Uiso   1.00
C235   C     0.02428   0.30744   0.21127   0.00000  Uiso   1.00
C236   C     0.86932   0.08655   0.30116   0.00000  Uiso   1.00
C237   C     0.82336   0.09236   0.34507   0.00000  Uiso   1.00
C238   C     0.85629   0.04330   0.39839   0.00000  Uiso   1.00
C239   C     0.88246   0.97682   0.49264   0.00000  Uiso   1.00
C240   C     0.85895   0.08569   0.19426   0.00000  Uiso   1.00
C241   C     0.80427   0.09075   0.14829   0.00000  Uiso   1.00
C242   C     0.82847   0.04096   0.11161   0.00000  Uiso   1.00
C243   C     0.83854   0.97314   0.03986   0.00000  Uiso   1.00
C244   C     0.98520   0.03710   0.25620   0.00000  Uiso   1.00
C245   C     0.97895   0.11168   0.24375   0.00000  Uiso   1.00
C246   C     0.04011   0.12823   0.24116   0.00000  Uiso   1.00
C247   C     0.02240   0.19968   0.22920   0.00000  Uiso   1.00
C248   C     0.94547   0.03363   0.31019   0.00000  Uiso   1.00
C249   C     0.97847   0.98454   0.36346   0.00000  Uiso   1.00
C250   C     0.93257   0.99027   0.40744   0.00000  Uiso   1.00
C251   C     0.93510   0.03276   0.20328   0.00000  Uiso   1.00
C252   C     0.95939   0.98294   0.16667   0.00000  Uiso   1.00
C253   C     0.90475   0.98793   0.12065   0.00000  Uiso   1.00
H254   H     0.78572   0.17575   0.23256   0.00000  Uiso   1.00
H255   H     0.82606   0.27699   0.21579   0.00000  Uiso   1.00
H256   H     0.76443   0.13332   0.33807   0.00000  Uiso   1.00
H257   H     0.74535   0.13172   0.14132   0.00000  Uiso   1.00
H258   H     0.90437   0.36589   0.20121   0.00000  Uiso   1.00
H259   H     0.77442   0.06294   0.45903   0.00000  Uiso   1.00
H260   H     0.73417   0.05956   0.04413   0.00000  Uiso   1.00
H261   H     0.04449   0.99589   0.26323   0.00000  Uiso   1.00
H262   H     0.09903   0.08726   0.24814   0.00000  Uiso   1.00
H263   H     0.03740   0.94359   0.37043   0.00000  Uiso   1.00
H264   H     0.01832   0.94199   0.17367   0.00000  Uiso   1.00
H265   H     0.12593   0.21191   0.22747   0.00000  Uiso   1.00
H266   H     0.99597   0.90895   0.48529   0.00000  Uiso   1.00
H267   H     0.95573   0.90557   0.07039   0.00000  Uiso   1.00
O268   O     0.04636   0.35225   0.20388   0.00000  Uiso   1.00
O269   O     0.87586   0.95478   0.54213   0.00000  Uiso   1.00
O270   O     0.82306   0.95036   0.99779   0.00000  Uiso   1.00
N271   N     0.94903   0.31711   0.20945   0.00000  Uiso   1.00
N272   N     0.82753   0.03387   0.45050   0.00000  Uiso   1.00
N273   N     0.78990   0.03071   0.06262   0.00000  Uiso   1.00
N274   N     0.06824   0.23425   0.22358   0.00000  Uiso   1.00
N275   N     0.94675   0.95101   0.46463   0.00000  Uiso   1.00
N276   N     0.90912   0.94785   0.07674   0.00000  Uiso   1.00
C277   C     0.40716   0.84997   0.10915   0.00000  Uiso   1.00
C278   C     0.46677   0.77262   0.11770   0.00000  Uiso   1.00
C279   C     0.45104   0.71573   0.11300   0.00000  Uiso   1.00
C280   C     0.51357   0.64909   0.12241   0.00000  Uiso   1.00
C281   C     0.59465   0.53042   0.13358   0.00000  Uiso   1.00
C282   C     0.42889   0.89077   0.06028   0.00000  Uiso   1.00
C283   C     0.38130   0.93323   0.00731   0.00000  Uiso   1.00
C284   C     0.41195   0.96606   0.96839   0.00000  Uiso   1.00
C285   C     0.43420   0.03086   0.89043   0.00000  Uiso   1.00
C286   C     0.42109   0.87473   0.16665   0.00000  Uiso   1.00
C287   C     0.36694   0.90372   0.20312   0.00000  Uiso   1.00
C288   C     0.39102   0.92306   0.25375   0.00000  Uiso   1.00
C289   C     0.40116   0.96296   0.34095   0.00000  Uiso   1.00
C290   C     0.54620   0.83279   0.13422   0.00000  Uiso   1.00
C291   C     0.54230   0.76329   0.13131   0.00000  Uiso   1.00
C292   C     0.60487   0.69672   0.14074   0.00000  Uiso   1.00
C293   C     0.58923   0.63974   0.13606   0.00000  Uiso   1.00
C294   C     0.50441   0.88144   0.07389   0.00000  Uiso   1.00
C295   C     0.53514   0.91422   0.03504   0.00000  Uiso   1.00
C296   C     0.48761   0.95671   0.98203   0.00000  Uiso   1.00
C297   C     0.49662   0.86540   0.18027   0.00000  Uiso   1.00
C298   C     0.52078   0.88471   0.23085   0.00000  Uiso   1.00
C299   C     0.46668   0.91372   0.26739   0.00000  Uiso   1.00
H300   H     0.34836   0.85723   0.09855   0.00000  Uiso   1.00
H301   H     0.39258   0.72297   0.10246   0.00000  Uiso   1.00
H302   H     0.32286   0.94044   0.99679   0.00000  Uiso   1.00
H303   H     0.30850   0.91094   0.19257   0.00000  Uiso   1.00
H304   H     0.47492   0.57001   0.11278   0.00000  Uiso   1.00
H305   H     0.32789   0.02857   0.88997   0.00000  Uiso   1.00
H306   H     0.29762   0.96636   0.30281   0.00000  Uiso   1.00
H307   H     0.60500   0.82553   0.14482   0.00000  Uiso   1.00
H308   H     0.66331   0.68952   0.15127   0.00000  Uiso   1.00
H309   H     0.59358   0.90699   0.04559   0.00000  Uiso   1.00
H310   H     0.57923   0.87748   0.24137   0.00000  Uiso   1.00
H311   H     0.69465   0.54286   0.15239   0.00000  Uiso   1.00
H312   H     0.54762   0.00143   0.92958   0.00000  Uiso   1.00
H313   H     0.51735   0.93921   0.34242   0.00000  Uiso   1.00
O314   O     0.61851   0.46754   0.13597   0.00000  Uiso   1.00
O315   O     0.42561   0.06917   0.84366   0.00000  Uiso   1.00
O316   O     0.38590   0.98754   0.38530   0.00000  Uiso   1.00
N317   N     0.51863   0.58228   0.12123   0.00000  Uiso   1.00
N318   N     0.38117   0.01100   0.91291   0.00000  Uiso   1.00
N319   N     0.35286   0.95285   0.29887   0.00000  Uiso   1.00
N320   N     0.63687   0.56767   0.14254   0.00000  Uiso   1.00
N321   N     0.49940   0.99639   0.93423   0.00000  Uiso   1.00
N322   N     0.47110   0.93824   0.32019   0.00000  Uiso   1.00
C323   C     0.83369   0.42595   0.55461   0.00000  Uiso   1.00
C324   C     0.79726   0.42829   0.49198   0.00000  Uiso   1.00
C325   C     0.83525   0.38943   0.45078   0.00000  Uiso   1.00
C326   C     0.79171   0.39905   0.39591   0.00000  Uiso   1.00
C327   C     0.74710   0.39553   0.30067   0.00000  Uiso   1.00
C328   C     0.78746   0.40646   0.59761   0.00000  Uiso   1.00
C329   C     0.81722   0.34925   0.64523   0.00000  Uiso   1.00
C330   C     0.76544   0.34050   0.67928   0.00000  Uiso   1.00
C331   C     0.70563   0.30313   0.74806   0.00000  Uiso   1.00
C332   C     0.81707   0.50215   0.55767   0.00000  Uiso   1.00
C333   C     0.87171   0.52540   0.57172   0.00000  Uiso   1.00
C334   C     0.84485   0.59721   0.57216   0.00000  Uiso   1.00
C335   C     0.83101   0.70841   0.57892   0.00000  Uiso   1.00
C336   C     0.68882   0.51214   0.53043   0.00000  Uiso   1.00
C337   C     0.71857   0.47511   0.47885   0.00000  Uiso   1.00
C338   C     0.67496   0.48479   0.42402   0.00000  Uiso   1.00
C339   C     0.71287   0.44595   0.38275   0.00000  Uiso   1.00
C340   C     0.70878   0.45328   0.58448   0.00000  Uiso   1.00
C341   C     0.65693   0.44461   0.61847   0.00000  Uiso   1.00
C342   C     0.68660   0.38740   0.66612   0.00000  Uiso   1.00
C343   C     0.73838   0.54897   0.54453   0.00000  Uiso   1.00
C344   C     0.71142   0.62076   0.54496   0.00000  Uiso   1.00
C345   C     0.76602   0.64411   0.55900   0.00000  Uiso   1.00
H346   H     0.89495   0.38950   0.56484   0.00000  Uiso   1.00
H347   H     0.89614   0.35320   0.46097   0.00000  Uiso   1.00
H348   H     0.87812   0.31304   0.65539   0.00000  Uiso   1.00
H349   H     0.93260   0.48916   0.58189   0.00000  Uiso   1.00
H350   H     0.86275   0.33358   0.34002   0.00000  Uiso   1.00
H351   H     0.82476   0.24891   0.74998   0.00000  Uiso   1.00
H352   H     0.93965   0.62029   0.59498   0.00000  Uiso   1.00
H353   H     0.62755   0.54859   0.52020   0.00000  Uiso   1.00
H354   H     0.61406   0.52102   0.41387   0.00000  Uiso   1.00
H355   H     0.59604   0.48085   0.60829   0.00000  Uiso   1.00
H356   H     0.65052   0.65697   0.53479   0.00000  Uiso   1.00
H357   H     0.63380   0.46978   0.30179   0.00000  Uiso   1.00
H358   H     0.59581   0.38511   0.71175   0.00000  Uiso   1.00
H359   H     0.71070   0.75649   0.55676   0.00000  Uiso   1.00
O360   O     0.74423   0.38066   0.25177   0.00000  Uiso   1.00
O361   O     0.69439   0.26958   0.78963   0.00000  Uiso   1.00
O362   O     0.84511   0.75682   0.58628   0.00000  Uiso   1.00
N363   N     0.81072   0.36943   0.34561   0.00000  Uiso   1.00
N364   N     0.77520   0.29026   0.72889   0.00000  Uiso   1.00
N365   N     0.88261   0.63747   0.58400   0.00000  Uiso   1.00
N366   N     0.68753   0.44272   0.32504   0.00000  Uiso   1.00
N367   N     0.65201   0.36355   0.70832   0.00000  Uiso   1.00
N368   N     0.75941   0.71076   0.56343   0.00000  Uiso   1.00
C369   C     0.07702   0.61668   0.33727   0.00000  Uiso   1.00
C370   C     0.05630   0.55593   0.35338   0.00000  Uiso   1.00
C371   C     0.04684   0.51441   0.31457   0.00000  Uiso   1.00
C372   C     0.02792   0.46146   0.33794   0.00000  Uiso   1.00
C373   C     0.99716   0.36878   0.35382   0.00000  Uiso   1.00
C374   C     0.14972   0.59869   0.38072   0.00000  Uiso   1.00
C375   C     0.21880   0.59312   0.36491   0.00000  Uiso   1.00
C376   C     0.27851   0.57617   0.41131   0.00000  Uiso   1.00
C377   C     0.39277   0.54991   0.46964   0.00000  Uiso   1.00
C378   C     0.01355   0.68160   0.35346   0.00000  Uiso   1.00
C379   C     0.96816   0.74575   0.31472   0.00000  Uiso   1.00
C380   C     0.91323   0.79862   0.33816   0.00000  Uiso   1.00
C381   C     0.81608   0.90109   0.35416   0.00000  Uiso   1.00
C382   C     0.06023   0.59650   0.44779   0.00000  Uiso   1.00
C383   C     0.04718   0.54497   0.41341   0.00000  Uiso   1.00
C384   C     0.02826   0.49208   0.43685   0.00000  Uiso   1.00
C385   C     0.01877   0.45048   0.39808   0.00000  Uiso   1.00
C386   C     0.14060   0.58772   0.44075   0.00000  Uiso   1.00
C387   C     0.20021   0.57079   0.48719   0.00000  Uiso   1.00
C388   C     0.26937   0.56519   0.47145   0.00000  Uiso   1.00
C389   C     0.00443   0.67064   0.41349   0.00000  Uiso   1.00
C390   C     0.94957   0.72342   0.43700   0.00000  Uiso   1.00
C391   C     0.90409   0.78764   0.39830   0.00000  Uiso   1.00
H392   H     0.08413   0.62522   0.29053   0.00000  Uiso   1.00
H393   H     0.05391   0.52290   0.26811   0.00000  Uiso   1.00
H394   H     0.22584   0.60161   0.31845   0.00000  Uiso   1.00
H395   H     0.97523   0.75422   0.26826   0.00000  Uiso   1.00
H396   H     0.01642   0.40462   0.26973   0.00000  Uiso   1.00
H397   H     0.37892   0.57060   0.37586   0.00000  Uiso   1.00
H398   H     0.85047   0.89240   0.27004   0.00000  Uiso   1.00
H399   H     0.05312   0.58797   0.49454   0.00000  Uiso   1.00
H400   H     0.02120   0.48361   0.48331   0.00000  Uiso   1.00
H401   H     0.19313   0.56231   0.53364   0.00000  Uiso   1.00
H402   H     0.94252   0.71492   0.48346   0.00000  Uiso   1.00
H403   H     0.98987   0.37272   0.44439   0.00000  Uiso   1.00
H404   H     0.35238   0.53870   0.55052   0.00000  Uiso   1.00
H405   H     0.82392   0.86050   0.44471   0.00000  Uiso   1.00
O406   O     0.98273   0.32067   0.34600   0.00000  Uiso   1.00
O407   O     0.45832   0.53845   0.48524   0.00000  Uiso   1.00
O408   O     0.76500   0.96064   0.34641   0.00000  Uiso   1.00
N409   N     0.01453   0.41144   0.31238   0.00000  Uiso   1.00
N410   N     0.35346   0.56661   0.41160   0.00000  Uiso   1.00
N411   N     0.85942   0.86747   0.31268   0.00000  Uiso   1.00
N412   N     0.00025   0.39428   0.40636   0.00000  Uiso   1.00
N413   N     0.33918   0.54945   0.50559   0.00000  Uiso   1.00
N414   N     0.84513   0.85031   0.40666   0.00000  Uiso   1.00
C415   C     0.27467   0.50404   0.93998   0.00000  Uiso   1.00
C416   C     0.29204   0.51947   0.87739   0.00000  Uiso   1.00
C417   C     0.27204   0.49644   0.82756   0.00000  Uiso   1.00
C418   C     0.29317   0.51617   0.77433   0.00000  Uiso   1.00
C419   C     0.31415   0.53381   0.67763   0.00000  Uiso   1.00
C420   C     0.35202   0.46868   0.98167   0.00000  Uiso   1.00
C421   C     0.38243   0.40295   0.01953   0.00000  Uiso   1.00
C422   C     0.45405   0.37993   0.05410   0.00000  Uiso   1.00
C423   C     0.56810   0.31874   0.11933   0.00000  Uiso   1.00
C424   C     0.23004   0.57604   0.95685   0.00000  Uiso   1.00
C425   C     0.15790   0.60058   0.97385   0.00000  Uiso   1.00
C426   C     0.12682   0.66794   0.98753   0.00000  Uiso   1.00
C427   C     0.05149   0.77345   0.01422   0.00000  Uiso   1.00
C428   C     0.34776   0.58002   0.93407   0.00000  Uiso   1.00
C429   C     0.33174   0.56073   0.87418   0.00000  Uiso   1.00
C430   C     0.35291   0.58050   0.82102   0.00000  Uiso   1.00
C431   C     0.33294   0.55751   0.77112   0.00000  Uiso   1.00
C432   C     0.39172   0.50994   0.97846   0.00000  Uiso   1.00
C433   C     0.46330   0.48701   0.01299   0.00000  Uiso   1.00
C434   C     0.49382   0.42126   0.05088   0.00000  Uiso   1.00
C435   C     0.26973   0.61731   0.95364   0.00000  Uiso   1.00
C436   C     0.23876   0.68464   0.96730   0.00000  Uiso   1.00
C437   C     0.16659   0.70928   0.98432   0.00000  Uiso   1.00
H438   H     0.24377   0.47191   0.94249   0.00000  Uiso   1.00
H439   H     0.24133   0.46450   0.83006   0.00000  Uiso   1.00
H440   H     0.35170   0.37103   0.02201   0.00000  Uiso   1.00
H441   H     0.12720   0.56863   0.97633   0.00000  Uiso   1.00
H442   H     0.25616   0.47447   0.70400   0.00000  Uiso   1.00
H443   H     0.48886   0.27739   0.10875   0.00000  Uiso   1.00
H444   H     0.01547   0.69406   0.01243   0.00000  Uiso   1.00
H445   H     0.37867   0.61214   0.93158   0.00000  Uiso   1.00
H446   H     0.38363   0.61243   0.81855   0.00000  Uiso   1.00
H447   H     0.49400   0.51896   0.01049   0.00000  Uiso   1.00
H448   H     0.26950   0.71656   0.96481   0.00000  Uiso   1.00
H449   H     0.37165   0.59453   0.69466   0.00000  Uiso   1.00
H450   H     0.60436   0.39745   0.09941   0.00000  Uiso   1.00
H451   H     0.13096   0.81412   0.00308   0.00000  Uiso   1.00
O452   O     0.31476   0.53214   0.62518   0.00000  Uiso   1.00
O453   O     0.62005   0.27358   0.15619   0.00000  Uiso   1.00
O454   O     0.99897   0.82025   0.02982   0.00000  Uiso   1.00
N455   N     0.28264   0.50269   0.71731   0.00000  Uiso   1.00
N456   N     0.50022   0.31843   0.09572   0.00000  Uiso   1.00
N457   N     0.05764   0.70798   0.00568   0.00000  Uiso   1.00
N458   N     0.34479   0.56730   0.71229   0.00000  Uiso   1.00
N459   N     0.56237   0.38304   0.09069   0.00000  Uiso   1.00
N460   N     0.11979   0.77259   0.00065   0.00000  Uiso   1.00
C461   C     0.83981   0.75812   0.75030   0.00000  Uiso   1.00
C462   C     0.90355   0.68222   0.76833   0.00000  Uiso   1.00
C463   C     0.94701   0.64207   0.73001   0.00000  Uiso   1.00
C464   C     0.00256   0.57373   0.75521   0.00000  Uiso   1.00
C465   C     0.09973   0.46000   0.77387   0.00000  Uiso   1.00
C466   C     0.76822   0.75664   0.77075   0.00000  Uiso   1.00
C467   C     0.69791   0.77907   0.73447   0.00000  Uiso   1.00
C468   C     0.63954   0.77339   0.76171   0.00000  Uiso   1.00
C469   C     0.52661   0.77525   0.78414   0.00000  Uiso   1.00
C470   C     0.86229   0.80125   0.78918   0.00000  Uiso   1.00
C471   C     0.87105   0.86120   0.76841   0.00000  Uiso   1.00
C472   C     0.89186   0.89309   0.81117   0.00000  Uiso   1.00
C473   C     0.92499   0.96421   0.86223   0.00000  Uiso   1.00
C474   C     0.86117   0.70816   0.86320   0.00000  Uiso   1.00
C475   C     0.91515   0.65509   0.82965   0.00000  Uiso   1.00
C476   C     0.97065   0.58679   0.85492   0.00000  Uiso   1.00
C477   C     0.01418   0.54655   0.81664   0.00000  Uiso   1.00
C478   C     0.77983   0.72951   0.83207   0.00000  Uiso   1.00
C479   C     0.72155   0.72380   0.85937   0.00000  Uiso   1.00
C480   C     0.65116   0.74621   0.82314   0.00000  Uiso   1.00
C481   C     0.87390   0.77412   0.85051   0.00000  Uiso   1.00
C482   C     0.89469   0.80592   0.89332   0.00000  Uiso   1.00
C483   C     0.90349   0.86591   0.87261   0.00000  Uiso   1.00
H484   H     0.83077   0.77925   0.70256   0.00000  Uiso   1.00
H485   H     0.93800   0.66309   0.68255   0.00000  Uiso   1.00
H486   H     0.68894   0.80008   0.68701   0.00000  Uiso   1.00
H487   H     0.86206   0.88219   0.72095   0.00000  Uiso   1.00
H488   H     0.06199   0.52233   0.68742   0.00000  Uiso   1.00
H489   H     0.53682   0.81120   0.69682   0.00000  Uiso   1.00
H490   H     0.90188   0.98435   0.76838   0.00000  Uiso   1.00
H491   H     0.87021   0.68703   0.91094   0.00000  Uiso   1.00
H492   H     0.97961   0.56581   0.90238   0.00000  Uiso   1.00
H493   H     0.73055   0.70280   0.90683   0.00000  Uiso   1.00
H494   H     0.90367   0.78491   0.94077   0.00000  Uiso   1.00
H495   H     0.09576   0.44337   0.86583   0.00000  Uiso   1.00
H496   H     0.57059   0.73225   0.87524   0.00000  Uiso   1.00
H497   H     0.93565   0.90539   0.94679   0.00000  Uiso   1.00
O498   O     0.15012   0.40476   0.76723   0.00000  Uiso   1.00
O499   O     0.46111   0.78377   0.77957   0.00000  Uiso   1.00
O500   O     0.94006   0.01093   0.87345   0.00000  Uiso   1.00
N501   N     0.05494   0.52038   0.73059   0.00000  Uiso   1.00
N502   N     0.56394   0.79045   0.73938   0.00000  Uiso   1.00
N503   N     0.90522   0.95234   0.80628   0.00000  Uiso   1.00
N504   N     0.07311   0.47790   0.82659   0.00000  Uiso   1.00
N505   N     0.58211   0.74797   0.83538   0.00000  Uiso   1.00
N506   N     0.92339   0.90986   0.90228   0.00000  Uiso   1.00
C507   C     0.24024   0.80736   0.60838   0.00000  Uiso   1.00
C508   C     0.17978   0.78007   0.60778   0.00000  Uiso   1.00
C509   C     0.19422   0.70973   0.61202   0.00000  Uiso   1.00
C510   C     0.13108   0.69564   0.61061   0.00000  Uiso   1.00
C511   C     0.04858   0.64501   0.61048   0.00000  Uiso   1.00
C512   C     0.21667   0.86247   0.55091   0.00000  Uiso   1.00
C513   C     0.26213   0.86141   0.50735   0.00000  Uiso   1.00
C514   C     0.23005   0.91670   0.45808   0.00000  Uiso   1.00
C515   C     0.20484   0.99402   0.36969   0.00000  Uiso   1.00
C516   C     0.22984   0.84811   0.65955   0.00000  Uiso   1.00
C517   C     0.28638   0.83500   0.70733   0.00000  Uiso   1.00
C518   C     0.26538   0.87821   0.74951   0.00000  Uiso   1.00
C519   C     0.26062   0.93324   0.82979   0.00000  Uiso   1.00
C520   C     0.10244   0.90744   0.59833   0.00000  Uiso   1.00
C521   C     0.10493   0.83443   0.60232   0.00000  Uiso   1.00
C522   C     0.04175   0.82045   0.60091   0.00000  Uiso   1.00
C523   C     0.05609   0.75010   0.60515   0.00000  Uiso   1.00
C524   C     0.14182   0.91683   0.54546   0.00000  Uiso   1.00
C525   C     0.10966   0.97213   0.49624   0.00000  Uiso   1.00
C526   C     0.15506   0.97116   0.45262   0.00000  Uiso   1.00
C527   C     0.15499   0.90247   0.65409   0.00000  Uiso   1.00
C528   C     0.13390   0.94572   0.69621   0.00000  Uiso   1.00
C529   C     0.19040   0.93267   0.74404   0.00000  Uiso   1.00
H530   H     0.29852   0.76504   0.61262   0.00000  Uiso   1.00
H531   H     0.25216   0.66768   0.61624   0.00000  Uiso   1.00
H532   H     0.32006   0.81934   0.51159   0.00000  Uiso   1.00
H533   H     0.34430   0.79293   0.71153   0.00000  Uiso   1.00
H534   H     0.16774   0.58370   0.61782   0.00000  Uiso   1.00
H535   H     0.31093   0.90351   0.39718   0.00000  Uiso   1.00
H536   H     0.36204   0.84782   0.81879   0.00000  Uiso   1.00
H537   H     0.04416   0.94976   0.59408   0.00000  Uiso   1.00
H538   H     0.98383   0.86253   0.59668   0.00000  Uiso   1.00
H539   H     0.05174   0.01419   0.49203   0.00000  Uiso   1.00
H540   H     0.07597   0.98778   0.69198   0.00000  Uiso   1.00
H541   H     0.94995   0.74185   0.60195   0.00000  Uiso   1.00
H542   H     0.09315   0.06166   0.38130   0.00000  Uiso   1.00
H543   H     0.14425   0.00596   0.80292   0.00000  Uiso   1.00
O544   O     0.02375   0.60206   0.61191   0.00000  Uiso   1.00
O545   O     0.21162   0.02165   0.32244   0.00000  Uiso   1.00
O546   O     0.27867   0.94857   0.87559   0.00000  Uiso   1.00
N547   N     0.12476   0.63289   0.61374   0.00000  Uiso   1.00
N548   N     0.25863   0.93189   0.40744   0.00000  Uiso   1.00
N549   N     0.30642   0.87983   0.80161   0.00000  Uiso   1.00
N550   N     0.00758   0.71799   0.60520   0.00000  Uiso   1.00
N551   N     0.14145   0.01699   0.39890   0.00000  Uiso   1.00
N552   N     0.18924   0.96493   0.79307   0.00000  Uiso   1.00
