data_job_02284
_audit_creation_date              2018-12-19
_audit_creation_method            'Materials Studio'
_symmetry_space_group_name_H-M    'P1'
_symmetry_Int_Tables_number       1
_symmetry_cell_setting            triclinic
loop_
_symmetry_equiv_pos_as_xyz
  x,y,z
_cell_length_a                    25.5015
_cell_length_b                    7.8665
_cell_length_c                    27.4622
_cell_angle_alpha                 90.0000
_cell_angle_beta                  101.9840
_cell_angle_gamma                 90.0000
loop_
_atom_site_label
_atom_site_type_symbol
_atom_site_fract_x
_atom_site_fract_y
_atom_site_fract_z
_atom_site_U_iso_or_equiv
_atom_site_adp_type
_atom_site_occupancy
C1     C     0.89282   0.90341   0.57235   0.00000  Uiso   1.00
C2     C     0.95301   0.90114   0.59362   0.00000  Uiso   1.00
C3     C     0.98731   0.03931   0.59618   0.00000  Uiso   1.00
C4     C     0.04105   0.01113   0.61695   0.00000  Uiso   1.00
C5     C     0.13167   0.03203   0.64729   0.00000  Uiso   1.00
C6     C     0.88267   0.76771   0.53182   0.00000  Uiso   1.00
C7     C     0.85782   0.79369   0.48243   0.00000  Uiso   1.00
C8     C     0.85233   0.65318   0.45119   0.00000  Uiso   1.00
C9     C     0.83371   0.46690   0.38559   0.00000  Uiso   1.00
C10    C     0.86637   0.83871   0.61375   0.00000  Uiso   1.00
C11    C     0.82781   0.92436   0.63324   0.00000  Uiso   1.00
C12    C     0.80859   0.84361   0.67097   0.00000  Uiso   1.00
C13    C     0.76467   0.76756   0.73258   0.00000  Uiso   1.00
C14    C     0.92725   0.60768   0.60468   0.00000  Uiso   1.00
C15    C     0.97171   0.74051   0.61118   0.00000  Uiso   1.00
C16    C     0.02541   0.71212   0.63195   0.00000  Uiso   1.00
C17    C     0.05978   0.85022   0.63455   0.00000  Uiso   1.00
C18    C     0.90137   0.60708   0.54938   0.00000  Uiso   1.00
C19    C     0.89591   0.46650   0.51820   0.00000  Uiso   1.00
C20    C     0.87106   0.49226   0.46878   0.00000  Uiso   1.00
C21    C     0.88507   0.67808   0.63132   0.00000  Uiso   1.00
C22    C     0.86591   0.59717   0.66901   0.00000  Uiso   1.00
C23    C     0.82733   0.68269   0.68856   0.00000  Uiso   1.00
H24    H     0.87826   0.02846   0.55867   0.00000  Uiso   1.00
H25    H     0.97283   0.16360   0.58258   0.00000  Uiso   1.00
H26    H     0.84334   0.91801   0.46886   0.00000  Uiso   1.00
H27    H     0.81335   0.04866   0.61964   0.00000  Uiso   1.00
H28    H     0.08592   0.24256   0.61682   0.00000  Uiso   1.00
H29    H     0.81289   0.72472   0.37702   0.00000  Uiso   1.00
H30    H     0.74963   0.00023   0.69498   0.00000  Uiso   1.00
H31    H     0.94181   0.48261   0.61835   0.00000  Uiso   1.00
H32    H     0.03987   0.58780   0.64554   0.00000  Uiso   1.00
H33    H     0.91039   0.34221   0.53181   0.00000  Uiso   1.00
H34    H     0.88039   0.47286   0.68259   0.00000  Uiso   1.00
H35    H     0.14034   0.77522   0.66791   0.00000  Uiso   1.00
H36    H     0.86730   0.25738   0.42811   0.00000  Uiso   1.00
H37    H     0.80405   0.53289   0.74608   0.00000  Uiso   1.00
O38    O     0.17649   0.08792   0.65916   0.00000  Uiso   1.00
O39    O     0.81827   0.40853   0.34456   0.00000  Uiso   1.00
O40    O     0.73529   0.76999   0.76172   0.00000  Uiso   1.00
N41    N     0.08527   0.11815   0.62512   0.00000  Uiso   1.00
N42    N     0.83001   0.63400   0.40092   0.00000  Uiso   1.00
N43    N     0.77086   0.89156   0.69818   0.00000  Uiso   1.00
N44    N     0.11455   0.86668   0.65262   0.00000  Uiso   1.00
N45    N     0.85929   0.38253   0.42842   0.00000  Uiso   1.00
N46    N     0.80014   0.64009   0.72568   0.00000  Uiso   1.00
C47    C     0.39282   0.40341   0.57235   0.00000  Uiso   1.00
C48    C     0.45301   0.40114   0.59362   0.00000  Uiso   1.00
C49    C     0.48731   0.53931   0.59618   0.00000  Uiso   1.00
C50    C     0.54105   0.51113   0.61695   0.00000  Uiso   1.00
C51    C     0.63167   0.53203   0.64729   0.00000  Uiso   1.00
C52    C     0.38267   0.26771   0.53182   0.00000  Uiso   1.00
C53    C     0.35782   0.29369   0.48243   0.00000  Uiso   1.00
C54    C     0.35233   0.15318   0.45119   0.00000  Uiso   1.00
C55    C     0.33371   0.96690   0.38559   0.00000  Uiso   1.00
C56    C     0.36637   0.33871   0.61375   0.00000  Uiso   1.00
C57    C     0.32781   0.42436   0.63324   0.00000  Uiso   1.00
C58    C     0.30859   0.34361   0.67097   0.00000  Uiso   1.00
C59    C     0.26467   0.26756   0.73258   0.00000  Uiso   1.00
C60    C     0.42725   0.10768   0.60468   0.00000  Uiso   1.00
C61    C     0.47171   0.24051   0.61118   0.00000  Uiso   1.00
C62    C     0.52541   0.21212   0.63195   0.00000  Uiso   1.00
C63    C     0.55978   0.35022   0.63455   0.00000  Uiso   1.00
C64    C     0.40137   0.10708   0.54938   0.00000  Uiso   1.00
C65    C     0.39591   0.96650   0.51820   0.00000  Uiso   1.00
C66    C     0.37106   0.99226   0.46878   0.00000  Uiso   1.00
C67    C     0.38507   0.17808   0.63132   0.00000  Uiso   1.00
C68    C     0.36591   0.09717   0.66901   0.00000  Uiso   1.00
C69    C     0.32733   0.18269   0.68856   0.00000  Uiso   1.00
H70    H     0.37826   0.52846   0.55867   0.00000  Uiso   1.00
H71    H     0.47283   0.66360   0.58258   0.00000  Uiso   1.00
H72    H     0.34334   0.41801   0.46886   0.00000  Uiso   1.00
H73    H     0.31335   0.54866   0.61964   0.00000  Uiso   1.00
H74    H     0.58592   0.74256   0.61682   0.00000  Uiso   1.00
H75    H     0.31289   0.22472   0.37702   0.00000  Uiso   1.00
H76    H     0.24963   0.50023   0.69498   0.00000  Uiso   1.00
H77    H     0.44181   0.98261   0.61835   0.00000  Uiso   1.00
H78    H     0.53987   0.08780   0.64554   0.00000  Uiso   1.00
H79    H     0.41039   0.84221   0.53181   0.00000  Uiso   1.00
H80    H     0.38039   0.97286   0.68259   0.00000  Uiso   1.00
H81    H     0.64034   0.27522   0.66791   0.00000  Uiso   1.00
H82    H     0.36730   0.75738   0.42811   0.00000  Uiso   1.00
H83    H     0.30405   0.03289   0.74608   0.00000  Uiso   1.00
O84    O     0.67649   0.58792   0.65916   0.00000  Uiso   1.00
O85    O     0.31827   0.90853   0.34456   0.00000  Uiso   1.00
O86    O     0.23529   0.26999   0.76172   0.00000  Uiso   1.00
N87    N     0.58527   0.61815   0.62512   0.00000  Uiso   1.00
N88    N     0.33001   0.13400   0.40092   0.00000  Uiso   1.00
N89    N     0.27086   0.39156   0.69818   0.00000  Uiso   1.00
N90    N     0.61455   0.36668   0.65262   0.00000  Uiso   1.00
N91    N     0.35929   0.88253   0.42842   0.00000  Uiso   1.00
N92    N     0.30014   0.14009   0.72568   0.00000  Uiso   1.00
C93    C     0.10718   0.90341   0.92765   0.00000  Uiso   1.00
C94    C     0.04699   0.90114   0.90638   0.00000  Uiso   1.00
C95    C     0.01269   0.03931   0.90382   0.00000  Uiso   1.00
C96    C     0.95895   0.01113   0.88305   0.00000  Uiso   1.00
C97    C     0.86833   0.03203   0.85271   0.00000  Uiso   1.00
C98    C     0.11733   0.76771   0.96818   0.00000  Uiso   1.00
C99    C     0.14218   0.79369   0.01757   0.00000  Uiso   1.00
C100   C     0.14767   0.65318   0.04881   0.00000  Uiso   1.00
C101   C     0.16629   0.46690   0.11441   0.00000  Uiso   1.00
C102   C     0.13363   0.83871   0.88625   0.00000  Uiso   1.00
C103   C     0.17219   0.92436   0.86676   0.00000  Uiso   1.00
C104   C     0.19141   0.84361   0.82903   0.00000  Uiso   1.00
C105   C     0.23533   0.76756   0.76742   0.00000  Uiso   1.00
C106   C     0.07275   0.60768   0.89532   0.00000  Uiso   1.00
C107   C     0.02829   0.74051   0.88882   0.00000  Uiso   1.00
C108   C     0.97459   0.71212   0.86805   0.00000  Uiso   1.00
C109   C     0.94022   0.85022   0.86545   0.00000  Uiso   1.00
C110   C     0.09863   0.60708   0.95062   0.00000  Uiso   1.00
C111   C     0.10409   0.46650   0.98180   0.00000  Uiso   1.00
C112   C     0.12894   0.49226   0.03122   0.00000  Uiso   1.00
C113   C     0.11493   0.67808   0.86868   0.00000  Uiso   1.00
C114   C     0.13409   0.59717   0.83099   0.00000  Uiso   1.00
C115   C     0.17267   0.68269   0.81144   0.00000  Uiso   1.00
H116   H     0.12174   0.02846   0.94133   0.00000  Uiso   1.00
H117   H     0.02717   0.16360   0.91742   0.00000  Uiso   1.00
H118   H     0.15666   0.91801   0.03114   0.00000  Uiso   1.00
H119   H     0.18665   0.04866   0.88036   0.00000  Uiso   1.00
H120   H     0.91408   0.24256   0.88318   0.00000  Uiso   1.00
H121   H     0.18711   0.72472   0.12298   0.00000  Uiso   1.00
H122   H     0.25037   0.00023   0.80502   0.00000  Uiso   1.00
H123   H     0.05819   0.48261   0.88165   0.00000  Uiso   1.00
H124   H     0.96013   0.58780   0.85446   0.00000  Uiso   1.00
H125   H     0.08961   0.34221   0.96819   0.00000  Uiso   1.00
H126   H     0.11961   0.47286   0.81741   0.00000  Uiso   1.00
H127   H     0.85966   0.77522   0.83209   0.00000  Uiso   1.00
H128   H     0.13270   0.25738   0.07189   0.00000  Uiso   1.00
H129   H     0.19595   0.53289   0.75392   0.00000  Uiso   1.00
O130   O     0.82351   0.08792   0.84084   0.00000  Uiso   1.00
O131   O     0.18173   0.40853   0.15544   0.00000  Uiso   1.00
O132   O     0.26471   0.76999   0.73828   0.00000  Uiso   1.00
N133   N     0.91473   0.11815   0.87488   0.00000  Uiso   1.00
N134   N     0.16999   0.63400   0.09908   0.00000  Uiso   1.00
N135   N     0.22914   0.89156   0.80182   0.00000  Uiso   1.00
N136   N     0.88545   0.86668   0.84738   0.00000  Uiso   1.00
N137   N     0.14071   0.38253   0.07158   0.00000  Uiso   1.00
N138   N     0.19986   0.64009   0.77432   0.00000  Uiso   1.00
C139   C     0.60718   0.40341   0.92765   0.00000  Uiso   1.00
C140   C     0.54699   0.40114   0.90638   0.00000  Uiso   1.00
C141   C     0.51269   0.53931   0.90382   0.00000  Uiso   1.00
C142   C     0.45895   0.51113   0.88305   0.00000  Uiso   1.00
C143   C     0.36833   0.53203   0.85271   0.00000  Uiso   1.00
C144   C     0.61733   0.26771   0.96818   0.00000  Uiso   1.00
C145   C     0.64218   0.29369   0.01757   0.00000  Uiso   1.00
C146   C     0.64767   0.15318   0.04881   0.00000  Uiso   1.00
C147   C     0.66629   0.96690   0.11441   0.00000  Uiso   1.00
C148   C     0.63363   0.33871   0.88625   0.00000  Uiso   1.00
C149   C     0.67219   0.42436   0.86676   0.00000  Uiso   1.00
C150   C     0.69141   0.34361   0.82903   0.00000  Uiso   1.00
C151   C     0.73533   0.26756   0.76742   0.00000  Uiso   1.00
C152   C     0.57275   0.10768   0.89532   0.00000  Uiso   1.00
C153   C     0.52829   0.24051   0.88882   0.00000  Uiso   1.00
C154   C     0.47459   0.21212   0.86805   0.00000  Uiso   1.00
C155   C     0.44022   0.35022   0.86545   0.00000  Uiso   1.00
C156   C     0.59863   0.10708   0.95062   0.00000  Uiso   1.00
C157   C     0.60409   0.96650   0.98180   0.00000  Uiso   1.00
C158   C     0.62894   0.99226   0.03122   0.00000  Uiso   1.00
C159   C     0.61493   0.17808   0.86868   0.00000  Uiso   1.00
C160   C     0.63409   0.09717   0.83099   0.00000  Uiso   1.00
C161   C     0.67267   0.18269   0.81144   0.00000  Uiso   1.00
H162   H     0.62174   0.52846   0.94133   0.00000  Uiso   1.00
H163   H     0.52717   0.66360   0.91742   0.00000  Uiso   1.00
H164   H     0.65666   0.41801   0.03114   0.00000  Uiso   1.00
H165   H     0.68665   0.54866   0.88036   0.00000  Uiso   1.00
H166   H     0.41408   0.74256   0.88318   0.00000  Uiso   1.00
H167   H     0.68711   0.22472   0.12298   0.00000  Uiso   1.00
H168   H     0.75037   0.50023   0.80502   0.00000  Uiso   1.00
H169   H     0.55819   0.98261   0.88165   0.00000  Uiso   1.00
H170   H     0.46013   0.08780   0.85446   0.00000  Uiso   1.00
H171   H     0.58961   0.84221   0.96819   0.00000  Uiso   1.00
H172   H     0.61961   0.97286   0.81741   0.00000  Uiso   1.00
H173   H     0.35966   0.27522   0.83209   0.00000  Uiso   1.00
H174   H     0.63270   0.75738   0.07189   0.00000  Uiso   1.00
H175   H     0.69595   0.03289   0.75392   0.00000  Uiso   1.00
O176   O     0.32351   0.58792   0.84084   0.00000  Uiso   1.00
O177   O     0.68173   0.90853   0.15544   0.00000  Uiso   1.00
O178   O     0.76471   0.26999   0.73828   0.00000  Uiso   1.00
N179   N     0.41473   0.61815   0.87488   0.00000  Uiso   1.00
N180   N     0.66999   0.13400   0.09908   0.00000  Uiso   1.00
N181   N     0.72914   0.39156   0.80182   0.00000  Uiso   1.00
N182   N     0.38545   0.36668   0.84738   0.00000  Uiso   1.00
N183   N     0.64071   0.88253   0.07158   0.00000  Uiso   1.00
N184   N     0.69986   0.14009   0.77432   0.00000  Uiso   1.00
C185   C     0.10718   0.09659   0.42765   0.00000  Uiso   1.00
C186   C     0.04699   0.09886   0.40638   0.00000  Uiso   1.00
C187   C     0.01269   0.96069   0.40382   0.00000  Uiso   1.00
C188   C     0.95895   0.98887   0.38305   0.00000  Uiso   1.00
C189   C     0.86833   0.96797   0.35271   0.00000  Uiso   1.00
C190   C     0.11733   0.23229   0.46818   0.00000  Uiso   1.00
C191   C     0.14218   0.20631   0.51757   0.00000  Uiso   1.00
C192   C     0.14767   0.34682   0.54881   0.00000  Uiso   1.00
C193   C     0.16629   0.53310   0.61441   0.00000  Uiso   1.00
C194   C     0.13363   0.16129   0.38625   0.00000  Uiso   1.00
C195   C     0.17219   0.07564   0.36676   0.00000  Uiso   1.00
C196   C     0.19141   0.15639   0.32903   0.00000  Uiso   1.00
C197   C     0.23533   0.23244   0.26742   0.00000  Uiso   1.00
C198   C     0.07275   0.39232   0.39532   0.00000  Uiso   1.00
C199   C     0.02829   0.25949   0.38882   0.00000  Uiso   1.00
C200   C     0.97459   0.28788   0.36805   0.00000  Uiso   1.00
C201   C     0.94022   0.14978   0.36545   0.00000  Uiso   1.00
C202   C     0.09863   0.39292   0.45062   0.00000  Uiso   1.00
C203   C     0.10409   0.53350   0.48180   0.00000  Uiso   1.00
C204   C     0.12894   0.50774   0.53122   0.00000  Uiso   1.00
C205   C     0.11493   0.32192   0.36868   0.00000  Uiso   1.00
C206   C     0.13409   0.40283   0.33099   0.00000  Uiso   1.00
C207   C     0.17267   0.31731   0.31144   0.00000  Uiso   1.00
H208   H     0.12174   0.97154   0.44133   0.00000  Uiso   1.00
H209   H     0.02717   0.83640   0.41742   0.00000  Uiso   1.00
H210   H     0.15666   0.08199   0.53114   0.00000  Uiso   1.00
H211   H     0.18665   0.95134   0.38036   0.00000  Uiso   1.00
H212   H     0.91408   0.75744   0.38318   0.00000  Uiso   1.00
H213   H     0.18711   0.27528   0.62298   0.00000  Uiso   1.00
H214   H     0.25037   0.99977   0.30502   0.00000  Uiso   1.00
H215   H     0.05819   0.51739   0.38165   0.00000  Uiso   1.00
H216   H     0.96013   0.41220   0.35446   0.00000  Uiso   1.00
H217   H     0.08961   0.65779   0.46819   0.00000  Uiso   1.00
H218   H     0.11961   0.52714   0.31741   0.00000  Uiso   1.00
H219   H     0.85966   0.22478   0.33209   0.00000  Uiso   1.00
H220   H     0.13270   0.74262   0.57189   0.00000  Uiso   1.00
H221   H     0.19595   0.46711   0.25392   0.00000  Uiso   1.00
O222   O     0.82351   0.91208   0.34084   0.00000  Uiso   1.00
O223   O     0.18173   0.59147   0.65544   0.00000  Uiso   1.00
O224   O     0.26471   0.23001   0.23828   0.00000  Uiso   1.00
N225   N     0.91473   0.88185   0.37488   0.00000  Uiso   1.00
N226   N     0.16999   0.36600   0.59908   0.00000  Uiso   1.00
N227   N     0.22914   0.10844   0.30182   0.00000  Uiso   1.00
N228   N     0.88545   0.13332   0.34738   0.00000  Uiso   1.00
N229   N     0.14071   0.61747   0.57158   0.00000  Uiso   1.00
N230   N     0.19986   0.35991   0.27432   0.00000  Uiso   1.00
C231   C     0.60718   0.59659   0.42765   0.00000  Uiso   1.00
C232   C     0.54699   0.59886   0.40638   0.00000  Uiso   1.00
C233   C     0.51269   0.46069   0.40382   0.00000  Uiso   1.00
C234   C     0.45895   0.48887   0.38305   0.00000  Uiso   1.00
C235   C     0.36833   0.46797   0.35271   0.00000  Uiso   1.00
C236   C     0.61733   0.73229   0.46818   0.00000  Uiso   1.00
C237   C     0.64218   0.70631   0.51757   0.00000  Uiso   1.00
C238   C     0.64767   0.84682   0.54881   0.00000  Uiso   1.00
C239   C     0.66629   0.03310   0.61441   0.00000  Uiso   1.00
C240   C     0.63363   0.66129   0.38625   0.00000  Uiso   1.00
C241   C     0.67219   0.57564   0.36676   0.00000  Uiso   1.00
C242   C     0.69141   0.65639   0.32903   0.00000  Uiso   1.00
C243   C     0.73533   0.73244   0.26742   0.00000  Uiso   1.00
C244   C     0.57275   0.89232   0.39532   0.00000  Uiso   1.00
C245   C     0.52829   0.75949   0.38882   0.00000  Uiso   1.00
C246   C     0.47459   0.78788   0.36805   0.00000  Uiso   1.00
C247   C     0.44022   0.64978   0.36545   0.00000  Uiso   1.00
C248   C     0.59863   0.89292   0.45062   0.00000  Uiso   1.00
C249   C     0.60409   0.03350   0.48180   0.00000  Uiso   1.00
C250   C     0.62894   0.00774   0.53122   0.00000  Uiso   1.00
C251   C     0.61493   0.82192   0.36868   0.00000  Uiso   1.00
C252   C     0.63409   0.90283   0.33099   0.00000  Uiso   1.00
C253   C     0.67267   0.81731   0.31144   0.00000  Uiso   1.00
H254   H     0.62174   0.47154   0.44133   0.00000  Uiso   1.00
H255   H     0.52717   0.33640   0.41742   0.00000  Uiso   1.00
H256   H     0.65666   0.58199   0.53114   0.00000  Uiso   1.00
H257   H     0.68665   0.45134   0.38036   0.00000  Uiso   1.00
H258   H     0.41408   0.25744   0.38318   0.00000  Uiso   1.00
H259   H     0.68711   0.77528   0.62298   0.00000  Uiso   1.00
H260   H     0.75037   0.49977   0.30502   0.00000  Uiso   1.00
H261   H     0.55819   0.01739   0.38165   0.00000  Uiso   1.00
H262   H     0.46013   0.91220   0.35446   0.00000  Uiso   1.00
H263   H     0.58961   0.15779   0.46819   0.00000  Uiso   1.00
H264   H     0.61961   0.02714   0.31741   0.00000  Uiso   1.00
H265   H     0.35966   0.72478   0.33209   0.00000  Uiso   1.00
H266   H     0.63270   0.24262   0.57189   0.00000  Uiso   1.00
H267   H     0.69595   0.96711   0.25392   0.00000  Uiso   1.00
O268   O     0.32351   0.41208   0.34084   0.00000  Uiso   1.00
O269   O     0.68173   0.09147   0.65544   0.00000  Uiso   1.00
O270   O     0.76471   0.73001   0.23828   0.00000  Uiso   1.00
N271   N     0.41473   0.38185   0.37488   0.00000  Uiso   1.00
N272   N     0.66999   0.86600   0.59908   0.00000  Uiso   1.00
N273   N     0.72914   0.60844   0.30182   0.00000  Uiso   1.00
N274   N     0.38545   0.63332   0.34738   0.00000  Uiso   1.00
N275   N     0.64071   0.11747   0.57158   0.00000  Uiso   1.00
N276   N     0.69986   0.85991   0.27432   0.00000  Uiso   1.00
C277   C     0.89282   0.09659   0.07235   0.00000  Uiso   1.00
C278   C     0.95301   0.09886   0.09362   0.00000  Uiso   1.00
C279   C     0.98731   0.96069   0.09618   0.00000  Uiso   1.00
C280   C     0.04105   0.98887   0.11695   0.00000  Uiso   1.00
C281   C     0.13167   0.96797   0.14729   0.00000  Uiso   1.00
C282   C     0.88267   0.23229   0.03182   0.00000  Uiso   1.00
C283   C     0.85782   0.20631   0.98243   0.00000  Uiso   1.00
C284   C     0.85233   0.34682   0.95119   0.00000  Uiso   1.00
C285   C     0.83371   0.53310   0.88559   0.00000  Uiso   1.00
C286   C     0.86637   0.16129   0.11375   0.00000  Uiso   1.00
C287   C     0.82781   0.07564   0.13324   0.00000  Uiso   1.00
C288   C     0.80859   0.15639   0.17097   0.00000  Uiso   1.00
C289   C     0.76467   0.23244   0.23258   0.00000  Uiso   1.00
C290   C     0.92725   0.39232   0.10468   0.00000  Uiso   1.00
C291   C     0.97171   0.25949   0.11118   0.00000  Uiso   1.00
C292   C     0.02541   0.28788   0.13195   0.00000  Uiso   1.00
C293   C     0.05978   0.14978   0.13455   0.00000  Uiso   1.00
C294   C     0.90137   0.39292   0.04938   0.00000  Uiso   1.00
C295   C     0.89591   0.53350   0.01820   0.00000  Uiso   1.00
C296   C     0.87106   0.50774   0.96878   0.00000  Uiso   1.00
C297   C     0.88507   0.32192   0.13132   0.00000  Uiso   1.00
C298   C     0.86591   0.40283   0.16901   0.00000  Uiso   1.00
C299   C     0.82733   0.31731   0.18856   0.00000  Uiso   1.00
H300   H     0.87826   0.97154   0.05867   0.00000  Uiso   1.00
H301   H     0.97283   0.83640   0.08258   0.00000  Uiso   1.00
H302   H     0.84334   0.08199   0.96886   0.00000  Uiso   1.00
H303   H     0.81335   0.95134   0.11964   0.00000  Uiso   1.00
H304   H     0.08592   0.75744   0.11682   0.00000  Uiso   1.00
H305   H     0.81289   0.27528   0.87702   0.00000  Uiso   1.00
H306   H     0.74963   0.99977   0.19498   0.00000  Uiso   1.00
H307   H     0.94181   0.51739   0.11835   0.00000  Uiso   1.00
H308   H     0.03987   0.41220   0.14554   0.00000  Uiso   1.00
H309   H     0.91039   0.65779   0.03181   0.00000  Uiso   1.00
H310   H     0.88039   0.52714   0.18259   0.00000  Uiso   1.00
H311   H     0.14034   0.22478   0.16791   0.00000  Uiso   1.00
H312   H     0.86730   0.74262   0.92811   0.00000  Uiso   1.00
H313   H     0.80405   0.46711   0.24608   0.00000  Uiso   1.00
O314   O     0.17649   0.91208   0.15916   0.00000  Uiso   1.00
O315   O     0.81827   0.59147   0.84456   0.00000  Uiso   1.00
O316   O     0.73529   0.23001   0.26172   0.00000  Uiso   1.00
N317   N     0.08527   0.88185   0.12512   0.00000  Uiso   1.00
N318   N     0.83001   0.36600   0.90092   0.00000  Uiso   1.00
N319   N     0.77086   0.10844   0.19818   0.00000  Uiso   1.00
N320   N     0.11455   0.13332   0.15262   0.00000  Uiso   1.00
N321   N     0.85929   0.61747   0.92842   0.00000  Uiso   1.00
N322   N     0.80014   0.35991   0.22568   0.00000  Uiso   1.00
C323   C     0.39282   0.59659   0.07235   0.00000  Uiso   1.00
C324   C     0.45301   0.59886   0.09362   0.00000  Uiso   1.00
C325   C     0.48731   0.46069   0.09618   0.00000  Uiso   1.00
C326   C     0.54105   0.48887   0.11695   0.00000  Uiso   1.00
C327   C     0.63167   0.46797   0.14729   0.00000  Uiso   1.00
C328   C     0.38267   0.73229   0.03182   0.00000  Uiso   1.00
C329   C     0.35782   0.70631   0.98243   0.00000  Uiso   1.00
C330   C     0.35233   0.84682   0.95119   0.00000  Uiso   1.00
C331   C     0.33371   0.03310   0.88559   0.00000  Uiso   1.00
C332   C     0.36637   0.66129   0.11375   0.00000  Uiso   1.00
C333   C     0.32781   0.57564   0.13324   0.00000  Uiso   1.00
C334   C     0.30859   0.65639   0.17097   0.00000  Uiso   1.00
C335   C     0.26467   0.73244   0.23258   0.00000  Uiso   1.00
C336   C     0.42725   0.89232   0.10468   0.00000  Uiso   1.00
C337   C     0.47171   0.75949   0.11118   0.00000  Uiso   1.00
C338   C     0.52541   0.78788   0.13195   0.00000  Uiso   1.00
C339   C     0.55978   0.64978   0.13455   0.00000  Uiso   1.00
C340   C     0.40137   0.89292   0.04938   0.00000  Uiso   1.00
C341   C     0.39591   0.03350   0.01820   0.00000  Uiso   1.00
C342   C     0.37106   0.00774   0.96878   0.00000  Uiso   1.00
C343   C     0.38507   0.82192   0.13132   0.00000  Uiso   1.00
C344   C     0.36591   0.90283   0.16901   0.00000  Uiso   1.00
C345   C     0.32733   0.81731   0.18856   0.00000  Uiso   1.00
H346   H     0.37826   0.47154   0.05867   0.00000  Uiso   1.00
H347   H     0.47283   0.33640   0.08258   0.00000  Uiso   1.00
H348   H     0.34334   0.58199   0.96886   0.00000  Uiso   1.00
H349   H     0.31335   0.45134   0.11964   0.00000  Uiso   1.00
H350   H     0.58592   0.25744   0.11682   0.00000  Uiso   1.00
H351   H     0.31289   0.77528   0.87702   0.00000  Uiso   1.00
H352   H     0.24963   0.49977   0.19498   0.00000  Uiso   1.00
H353   H     0.44181   0.01739   0.11835   0.00000  Uiso   1.00
H354   H     0.53987   0.91220   0.14554   0.00000  Uiso   1.00
H355   H     0.41039   0.15779   0.03181   0.00000  Uiso   1.00
H356   H     0.38039   0.02714   0.18259   0.00000  Uiso   1.00
H357   H     0.64034   0.72478   0.16791   0.00000  Uiso   1.00
H358   H     0.36730   0.24262   0.92811   0.00000  Uiso   1.00
H359   H     0.30405   0.96711   0.24608   0.00000  Uiso   1.00
O360   O     0.67649   0.41208   0.15916   0.00000  Uiso   1.00
O361   O     0.31827   0.09147   0.84456   0.00000  Uiso   1.00
O362   O     0.23529   0.73001   0.26172   0.00000  Uiso   1.00
N363   N     0.58527   0.38185   0.12512   0.00000  Uiso   1.00
N364   N     0.33001   0.86600   0.90092   0.00000  Uiso   1.00
N365   N     0.27086   0.60844   0.19818   0.00000  Uiso   1.00
N366   N     0.61455   0.63332   0.15262   0.00000  Uiso   1.00
N367   N     0.35929   0.11747   0.92842   0.00000  Uiso   1.00
N368   N     0.30014   0.85991   0.22568   0.00000  Uiso   1.00
