data_job_04604
_audit_creation_date              2018-12-19
_audit_creation_method            'Materials Studio'
_symmetry_space_group_name_H-M    'P1'
_symmetry_Int_Tables_number       1
_symmetry_cell_setting            triclinic
loop_
_symmetry_equiv_pos_as_xyz
  x,y,z
_cell_length_a                    15.2833
_cell_length_b                    18.3498
_cell_length_c                    16.2592
_cell_angle_alpha                 90.0000
_cell_angle_beta                  90.0000
_cell_angle_gamma                 90.0000
loop_
_atom_site_label
_atom_site_type_symbol
_atom_site_fract_x
_atom_site_fract_y
_atom_site_fract_z
_atom_site_U_iso_or_equiv
_atom_site_adp_type
_atom_site_occupancy
C1     C     0.57508   0.20543   0.38303   0.00000  Uiso   1.00
C2     C     0.58402   0.28817   0.38075   0.00000  Uiso   1.00
C3     C     0.51793   0.33707   0.36125   0.00000  Uiso   1.00
C4     C     0.53926   0.41060   0.36261   0.00000  Uiso   1.00
C5     C     0.54032   0.53548   0.35597   0.00000  Uiso   1.00
C6     C     0.64465   0.17590   0.32463   0.00000  Uiso   1.00
C7     C     0.62953   0.13039   0.25796   0.00000  Uiso   1.00
C8     C     0.70190   0.10940   0.21209   0.00000  Uiso   1.00
C9     C     0.79708   0.05993   0.11837   0.00000  Uiso   1.00
C10    C     0.60308   0.18212   0.46911   0.00000  Uiso   1.00
C11    C     0.55302   0.14183   0.52391   0.00000  Uiso   1.00
C12    C     0.59040   0.12607   0.59969   0.00000  Uiso   1.00
C13    C     0.62104   0.08626   0.73029   0.00000  Uiso   1.00
C14    C     0.73050   0.24908   0.42013   0.00000  Uiso   1.00
C15    C     0.66844   0.31188   0.40090   0.00000  Uiso   1.00
C16    C     0.68988   0.38536   0.40230   0.00000  Uiso   1.00
C17    C     0.62383   0.43436   0.38281   0.00000  Uiso   1.00
C18    C     0.72906   0.19961   0.34479   0.00000  Uiso   1.00
C19    C     0.80148   0.17868   0.29902   0.00000  Uiso   1.00
C20    C     0.78647   0.13315   0.23228   0.00000  Uiso   1.00
C21    C     0.68750   0.20583   0.48927   0.00000  Uiso   1.00
C22    C     0.72497   0.19013   0.56497   0.00000  Uiso   1.00
C23    C     0.67497   0.14982   0.61988   0.00000  Uiso   1.00
H24    H     0.50936   0.18697   0.36733   0.00000  Uiso   1.00
H25    H     0.45261   0.31870   0.34564   0.00000  Uiso   1.00
H26    H     0.56419   0.11204   0.24238   0.00000  Uiso   1.00
H27    H     0.48770   0.12349   0.50829   0.00000  Uiso   1.00
H28    H     0.42693   0.47520   0.33046   0.00000  Uiso   1.00
H29    H     0.66221   0.03944   0.11274   0.00000  Uiso   1.00
H30    H     0.50090   0.06357   0.67347   0.00000  Uiso   1.00
H31    H     0.79623   0.26754   0.43583   0.00000  Uiso   1.00
H32    H     0.75521   0.40369   0.41790   0.00000  Uiso   1.00
H33    H     0.86679   0.19704   0.31463   0.00000  Uiso   1.00
H34    H     0.79030   0.20849   0.58055   0.00000  Uiso   1.00
H35    H     0.67253   0.54418   0.38911   0.00000  Uiso   1.00
H36    H     0.90781   0.10842   0.17138   0.00000  Uiso   1.00
H37    H     0.74650   0.13256   0.73212   0.00000  Uiso   1.00
O38    O     0.51758   0.59780   0.34673   0.00000  Uiso   1.00
O39    O     0.82626   0.02609   0.06110   0.00000  Uiso   1.00
O40    O     0.61462   0.05776   0.79677   0.00000  Uiso   1.00
N41    N     0.49035   0.47275   0.34674   0.00000  Uiso   1.00
N42    N     0.71033   0.06535   0.14317   0.00000  Uiso   1.00
N43    N     0.55952   0.08790   0.66740   0.00000  Uiso   1.00
N44    N     0.62251   0.50987   0.37830   0.00000  Uiso   1.00
N45    N     0.84248   0.10247   0.17473   0.00000  Uiso   1.00
N46    N     0.69168   0.12502   0.69896   0.00000  Uiso   1.00
C47    C     0.92492   0.29457   0.88303   0.00000  Uiso   1.00
C48    C     0.91598   0.21183   0.88075   0.00000  Uiso   1.00
C49    C     0.98207   0.16293   0.86125   0.00000  Uiso   1.00
C50    C     0.96074   0.08940   0.86261   0.00000  Uiso   1.00
C51    C     0.95968   0.96452   0.85597   0.00000  Uiso   1.00
C52    C     0.85535   0.32410   0.82463   0.00000  Uiso   1.00
C53    C     0.87047   0.36961   0.75796   0.00000  Uiso   1.00
C54    C     0.79810   0.39060   0.71209   0.00000  Uiso   1.00
C55    C     0.70292   0.44007   0.61837   0.00000  Uiso   1.00
C56    C     0.89692   0.31788   0.96911   0.00000  Uiso   1.00
C57    C     0.94698   0.35817   0.02391   0.00000  Uiso   1.00
C58    C     0.90960   0.37393   0.09969   0.00000  Uiso   1.00
C59    C     0.87896   0.41374   0.23029   0.00000  Uiso   1.00
C60    C     0.76950   0.25092   0.92013   0.00000  Uiso   1.00
C61    C     0.83156   0.18812   0.90090   0.00000  Uiso   1.00
C62    C     0.81012   0.11464   0.90230   0.00000  Uiso   1.00
C63    C     0.87617   0.06564   0.88281   0.00000  Uiso   1.00
C64    C     0.77094   0.30039   0.84479   0.00000  Uiso   1.00
C65    C     0.69852   0.32132   0.79902   0.00000  Uiso   1.00
C66    C     0.71353   0.36685   0.73228   0.00000  Uiso   1.00
C67    C     0.81250   0.29417   0.98927   0.00000  Uiso   1.00
C68    C     0.77503   0.30987   0.06497   0.00000  Uiso   1.00
C69    C     0.82503   0.35018   0.11988   0.00000  Uiso   1.00
H70    H     0.99064   0.31303   0.86733   0.00000  Uiso   1.00
H71    H     0.04739   0.18130   0.84564   0.00000  Uiso   1.00
H72    H     0.93581   0.38796   0.74238   0.00000  Uiso   1.00
H73    H     0.01230   0.37651   0.00829   0.00000  Uiso   1.00
H74    H     0.07307   0.02480   0.83046   0.00000  Uiso   1.00
H75    H     0.83779   0.46056   0.61274   0.00000  Uiso   1.00
H76    H     0.99910   0.43643   0.17347   0.00000  Uiso   1.00
H77    H     0.70377   0.23246   0.93583   0.00000  Uiso   1.00
H78    H     0.74479   0.09631   0.91790   0.00000  Uiso   1.00
H79    H     0.63321   0.30296   0.81463   0.00000  Uiso   1.00
H80    H     0.70970   0.29151   0.08055   0.00000  Uiso   1.00
H81    H     0.82747   0.95582   0.88911   0.00000  Uiso   1.00
H82    H     0.59219   0.39158   0.67138   0.00000  Uiso   1.00
H83    H     0.75350   0.36744   0.23212   0.00000  Uiso   1.00
O84    O     0.98242   0.90220   0.84673   0.00000  Uiso   1.00
O85    O     0.67374   0.47391   0.56110   0.00000  Uiso   1.00
O86    O     0.88538   0.44224   0.29677   0.00000  Uiso   1.00
N87    N     0.00965   0.02725   0.84674   0.00000  Uiso   1.00
N88    N     0.78967   0.43465   0.64317   0.00000  Uiso   1.00
N89    N     0.94048   0.41210   0.16740   0.00000  Uiso   1.00
N90    N     0.87749   0.99013   0.87830   0.00000  Uiso   1.00
N91    N     0.65752   0.39753   0.67473   0.00000  Uiso   1.00
N92    N     0.80832   0.37498   0.19896   0.00000  Uiso   1.00
C93    C     0.42492   0.20543   0.11697   0.00000  Uiso   1.00
C94    C     0.41598   0.28817   0.11925   0.00000  Uiso   1.00
C95    C     0.48207   0.33707   0.13875   0.00000  Uiso   1.00
C96    C     0.46074   0.41060   0.13739   0.00000  Uiso   1.00
C97    C     0.45968   0.53548   0.14403   0.00000  Uiso   1.00
C98    C     0.35535   0.17590   0.17537   0.00000  Uiso   1.00
C99    C     0.37047   0.13039   0.24204   0.00000  Uiso   1.00
C100   C     0.29810   0.10940   0.28791   0.00000  Uiso   1.00
C101   C     0.20292   0.05993   0.38163   0.00000  Uiso   1.00
C102   C     0.39692   0.18212   0.03089   0.00000  Uiso   1.00
C103   C     0.44698   0.14183   0.97609   0.00000  Uiso   1.00
C104   C     0.40960   0.12607   0.90031   0.00000  Uiso   1.00
C105   C     0.37896   0.08626   0.76971   0.00000  Uiso   1.00
C106   C     0.26950   0.24908   0.07987   0.00000  Uiso   1.00
C107   C     0.33156   0.31188   0.09910   0.00000  Uiso   1.00
C108   C     0.31012   0.38536   0.09770   0.00000  Uiso   1.00
C109   C     0.37617   0.43436   0.11719   0.00000  Uiso   1.00
C110   C     0.27094   0.19961   0.15521   0.00000  Uiso   1.00
C111   C     0.19852   0.17868   0.20098   0.00000  Uiso   1.00
C112   C     0.21353   0.13315   0.26772   0.00000  Uiso   1.00
C113   C     0.31250   0.20583   0.01073   0.00000  Uiso   1.00
C114   C     0.27503   0.19013   0.93503   0.00000  Uiso   1.00
C115   C     0.32503   0.14982   0.88012   0.00000  Uiso   1.00
H116   H     0.49064   0.18697   0.13267   0.00000  Uiso   1.00
H117   H     0.54739   0.31870   0.15436   0.00000  Uiso   1.00
H118   H     0.43581   0.11204   0.25762   0.00000  Uiso   1.00
H119   H     0.51230   0.12349   0.99171   0.00000  Uiso   1.00
H120   H     0.57307   0.47520   0.16954   0.00000  Uiso   1.00
H121   H     0.33779   0.03944   0.38726   0.00000  Uiso   1.00
H122   H     0.49910   0.06357   0.82653   0.00000  Uiso   1.00
H123   H     0.20377   0.26754   0.06417   0.00000  Uiso   1.00
H124   H     0.24479   0.40369   0.08210   0.00000  Uiso   1.00
H125   H     0.13321   0.19704   0.18537   0.00000  Uiso   1.00
H126   H     0.20970   0.20849   0.91945   0.00000  Uiso   1.00
H127   H     0.32747   0.54418   0.11089   0.00000  Uiso   1.00
H128   H     0.09219   0.10842   0.32862   0.00000  Uiso   1.00
H129   H     0.25350   0.13256   0.76788   0.00000  Uiso   1.00
O130   O     0.48242   0.59780   0.15327   0.00000  Uiso   1.00
O131   O     0.17374   0.02609   0.43890   0.00000  Uiso   1.00
O132   O     0.38538   0.05776   0.70323   0.00000  Uiso   1.00
N133   N     0.50965   0.47275   0.15326   0.00000  Uiso   1.00
N134   N     0.28967   0.06535   0.35683   0.00000  Uiso   1.00
N135   N     0.44048   0.08790   0.83260   0.00000  Uiso   1.00
N136   N     0.37749   0.50987   0.12170   0.00000  Uiso   1.00
N137   N     0.15752   0.10247   0.32527   0.00000  Uiso   1.00
N138   N     0.30832   0.12502   0.80104   0.00000  Uiso   1.00
C139   C     0.07508   0.29457   0.61697   0.00000  Uiso   1.00
C140   C     0.08402   0.21183   0.61925   0.00000  Uiso   1.00
C141   C     0.01793   0.16293   0.63875   0.00000  Uiso   1.00
C142   C     0.03926   0.08940   0.63739   0.00000  Uiso   1.00
C143   C     0.04032   0.96452   0.64403   0.00000  Uiso   1.00
C144   C     0.14465   0.32410   0.67537   0.00000  Uiso   1.00
C145   C     0.12953   0.36961   0.74204   0.00000  Uiso   1.00
C146   C     0.20190   0.39060   0.78791   0.00000  Uiso   1.00
C147   C     0.29708   0.44007   0.88163   0.00000  Uiso   1.00
C148   C     0.10308   0.31788   0.53089   0.00000  Uiso   1.00
C149   C     0.05302   0.35817   0.47609   0.00000  Uiso   1.00
C150   C     0.09040   0.37393   0.40031   0.00000  Uiso   1.00
C151   C     0.12104   0.41374   0.26971   0.00000  Uiso   1.00
C152   C     0.23050   0.25092   0.57987   0.00000  Uiso   1.00
C153   C     0.16844   0.18812   0.59910   0.00000  Uiso   1.00
C154   C     0.18988   0.11464   0.59770   0.00000  Uiso   1.00
C155   C     0.12383   0.06564   0.61719   0.00000  Uiso   1.00
C156   C     0.22906   0.30039   0.65521   0.00000  Uiso   1.00
C157   C     0.30148   0.32132   0.70098   0.00000  Uiso   1.00
C158   C     0.28647   0.36685   0.76772   0.00000  Uiso   1.00
C159   C     0.18750   0.29417   0.51073   0.00000  Uiso   1.00
C160   C     0.22497   0.30987   0.43503   0.00000  Uiso   1.00
C161   C     0.17497   0.35018   0.38012   0.00000  Uiso   1.00
H162   H     0.00936   0.31303   0.63267   0.00000  Uiso   1.00
H163   H     0.95261   0.18130   0.65436   0.00000  Uiso   1.00
H164   H     0.06419   0.38796   0.75762   0.00000  Uiso   1.00
H165   H     0.98770   0.37651   0.49171   0.00000  Uiso   1.00
H166   H     0.92693   0.02480   0.66954   0.00000  Uiso   1.00
H167   H     0.16221   0.46056   0.88726   0.00000  Uiso   1.00
H168   H     0.00090   0.43643   0.32653   0.00000  Uiso   1.00
H169   H     0.29623   0.23246   0.56417   0.00000  Uiso   1.00
H170   H     0.25521   0.09631   0.58210   0.00000  Uiso   1.00
H171   H     0.36679   0.30296   0.68537   0.00000  Uiso   1.00
H172   H     0.29030   0.29151   0.41945   0.00000  Uiso   1.00
H173   H     0.17253   0.95582   0.61089   0.00000  Uiso   1.00
H174   H     0.40781   0.39158   0.82862   0.00000  Uiso   1.00
H175   H     0.24650   0.36744   0.26788   0.00000  Uiso   1.00
O176   O     0.01758   0.90220   0.65327   0.00000  Uiso   1.00
O177   O     0.32626   0.47391   0.93890   0.00000  Uiso   1.00
O178   O     0.11462   0.44224   0.20323   0.00000  Uiso   1.00
N179   N     0.99035   0.02725   0.65326   0.00000  Uiso   1.00
N180   N     0.21033   0.43465   0.85683   0.00000  Uiso   1.00
N181   N     0.05952   0.41210   0.33260   0.00000  Uiso   1.00
N182   N     0.12251   0.99013   0.62170   0.00000  Uiso   1.00
N183   N     0.34248   0.39753   0.82527   0.00000  Uiso   1.00
N184   N     0.19168   0.37498   0.30104   0.00000  Uiso   1.00
C185   C     0.42492   0.79457   0.61697   0.00000  Uiso   1.00
C186   C     0.41598   0.71183   0.61925   0.00000  Uiso   1.00
C187   C     0.48207   0.66293   0.63875   0.00000  Uiso   1.00
C188   C     0.46074   0.58940   0.63739   0.00000  Uiso   1.00
C189   C     0.45968   0.46452   0.64403   0.00000  Uiso   1.00
C190   C     0.35535   0.82410   0.67537   0.00000  Uiso   1.00
C191   C     0.37047   0.86961   0.74204   0.00000  Uiso   1.00
C192   C     0.29810   0.89060   0.78791   0.00000  Uiso   1.00
C193   C     0.20292   0.94007   0.88163   0.00000  Uiso   1.00
C194   C     0.39692   0.81788   0.53089   0.00000  Uiso   1.00
C195   C     0.44698   0.85817   0.47609   0.00000  Uiso   1.00
C196   C     0.40960   0.87393   0.40031   0.00000  Uiso   1.00
C197   C     0.37896   0.91374   0.26971   0.00000  Uiso   1.00
C198   C     0.26950   0.75092   0.57987   0.00000  Uiso   1.00
C199   C     0.33156   0.68812   0.59910   0.00000  Uiso   1.00
C200   C     0.31012   0.61464   0.59770   0.00000  Uiso   1.00
C201   C     0.37617   0.56564   0.61719   0.00000  Uiso   1.00
C202   C     0.27094   0.80039   0.65521   0.00000  Uiso   1.00
C203   C     0.19852   0.82132   0.70098   0.00000  Uiso   1.00
C204   C     0.21353   0.86685   0.76772   0.00000  Uiso   1.00
C205   C     0.31250   0.79417   0.51073   0.00000  Uiso   1.00
C206   C     0.27503   0.80987   0.43503   0.00000  Uiso   1.00
C207   C     0.32503   0.85018   0.38012   0.00000  Uiso   1.00
H208   H     0.49064   0.81303   0.63267   0.00000  Uiso   1.00
H209   H     0.54739   0.68130   0.65436   0.00000  Uiso   1.00
H210   H     0.43581   0.88796   0.75762   0.00000  Uiso   1.00
H211   H     0.51230   0.87651   0.49171   0.00000  Uiso   1.00
H212   H     0.57307   0.52480   0.66954   0.00000  Uiso   1.00
H213   H     0.33779   0.96056   0.88726   0.00000  Uiso   1.00
H214   H     0.49910   0.93643   0.32653   0.00000  Uiso   1.00
H215   H     0.20377   0.73246   0.56417   0.00000  Uiso   1.00
H216   H     0.24479   0.59631   0.58210   0.00000  Uiso   1.00
H217   H     0.13321   0.80296   0.68537   0.00000  Uiso   1.00
H218   H     0.20970   0.79151   0.41945   0.00000  Uiso   1.00
H219   H     0.32747   0.45582   0.61089   0.00000  Uiso   1.00
H220   H     0.09219   0.89158   0.82862   0.00000  Uiso   1.00
H221   H     0.25350   0.86744   0.26788   0.00000  Uiso   1.00
O222   O     0.48242   0.40220   0.65327   0.00000  Uiso   1.00
O223   O     0.17374   0.97391   0.93890   0.00000  Uiso   1.00
O224   O     0.38538   0.94224   0.20323   0.00000  Uiso   1.00
N225   N     0.50965   0.52725   0.65326   0.00000  Uiso   1.00
N226   N     0.28967   0.93465   0.85683   0.00000  Uiso   1.00
N227   N     0.44048   0.91210   0.33260   0.00000  Uiso   1.00
N228   N     0.37749   0.49013   0.62170   0.00000  Uiso   1.00
N229   N     0.15752   0.89753   0.82527   0.00000  Uiso   1.00
N230   N     0.30832   0.87498   0.30104   0.00000  Uiso   1.00
C231   C     0.07508   0.70543   0.11697   0.00000  Uiso   1.00
C232   C     0.08402   0.78817   0.11925   0.00000  Uiso   1.00
C233   C     0.01793   0.83707   0.13875   0.00000  Uiso   1.00
C234   C     0.03926   0.91060   0.13739   0.00000  Uiso   1.00
C235   C     0.04032   0.03548   0.14403   0.00000  Uiso   1.00
C236   C     0.14465   0.67590   0.17537   0.00000  Uiso   1.00
C237   C     0.12953   0.63039   0.24204   0.00000  Uiso   1.00
C238   C     0.20190   0.60940   0.28791   0.00000  Uiso   1.00
C239   C     0.29708   0.55993   0.38163   0.00000  Uiso   1.00
C240   C     0.10308   0.68212   0.03089   0.00000  Uiso   1.00
C241   C     0.05302   0.64183   0.97609   0.00000  Uiso   1.00
C242   C     0.09040   0.62607   0.90031   0.00000  Uiso   1.00
C243   C     0.12104   0.58626   0.76971   0.00000  Uiso   1.00
C244   C     0.23050   0.74908   0.07987   0.00000  Uiso   1.00
C245   C     0.16844   0.81188   0.09910   0.00000  Uiso   1.00
C246   C     0.18988   0.88536   0.09770   0.00000  Uiso   1.00
C247   C     0.12383   0.93436   0.11719   0.00000  Uiso   1.00
C248   C     0.22906   0.69961   0.15521   0.00000  Uiso   1.00
C249   C     0.30148   0.67868   0.20098   0.00000  Uiso   1.00
C250   C     0.28647   0.63315   0.26772   0.00000  Uiso   1.00
C251   C     0.18750   0.70583   0.01073   0.00000  Uiso   1.00
C252   C     0.22497   0.69013   0.93503   0.00000  Uiso   1.00
C253   C     0.17497   0.64982   0.88012   0.00000  Uiso   1.00
H254   H     0.00936   0.68697   0.13267   0.00000  Uiso   1.00
H255   H     0.95261   0.81870   0.15436   0.00000  Uiso   1.00
H256   H     0.06419   0.61204   0.25762   0.00000  Uiso   1.00
H257   H     0.98770   0.62349   0.99171   0.00000  Uiso   1.00
H258   H     0.92693   0.97520   0.16954   0.00000  Uiso   1.00
H259   H     0.16221   0.53944   0.38726   0.00000  Uiso   1.00
H260   H     0.00090   0.56357   0.82653   0.00000  Uiso   1.00
H261   H     0.29623   0.76754   0.06417   0.00000  Uiso   1.00
H262   H     0.25521   0.90369   0.08210   0.00000  Uiso   1.00
H263   H     0.36679   0.69704   0.18537   0.00000  Uiso   1.00
H264   H     0.29030   0.70849   0.91945   0.00000  Uiso   1.00
H265   H     0.17253   0.04418   0.11089   0.00000  Uiso   1.00
H266   H     0.40781   0.60842   0.32862   0.00000  Uiso   1.00
H267   H     0.24650   0.63256   0.76788   0.00000  Uiso   1.00
O268   O     0.01758   0.09780   0.15327   0.00000  Uiso   1.00
O269   O     0.32626   0.52609   0.43890   0.00000  Uiso   1.00
O270   O     0.11462   0.55776   0.70323   0.00000  Uiso   1.00
N271   N     0.99035   0.97275   0.15326   0.00000  Uiso   1.00
N272   N     0.21033   0.56535   0.35683   0.00000  Uiso   1.00
N273   N     0.05952   0.58790   0.83260   0.00000  Uiso   1.00
N274   N     0.12251   0.00987   0.12170   0.00000  Uiso   1.00
N275   N     0.34248   0.60247   0.32527   0.00000  Uiso   1.00
N276   N     0.19168   0.62502   0.80104   0.00000  Uiso   1.00
C277   C     0.57508   0.79457   0.88303   0.00000  Uiso   1.00
C278   C     0.58402   0.71183   0.88075   0.00000  Uiso   1.00
C279   C     0.51793   0.66293   0.86125   0.00000  Uiso   1.00
C280   C     0.53926   0.58940   0.86261   0.00000  Uiso   1.00
C281   C     0.54032   0.46452   0.85597   0.00000  Uiso   1.00
C282   C     0.64465   0.82410   0.82463   0.00000  Uiso   1.00
C283   C     0.62953   0.86961   0.75796   0.00000  Uiso   1.00
C284   C     0.70190   0.89060   0.71209   0.00000  Uiso   1.00
C285   C     0.79708   0.94007   0.61837   0.00000  Uiso   1.00
C286   C     0.60308   0.81788   0.96911   0.00000  Uiso   1.00
C287   C     0.55302   0.85817   0.02391   0.00000  Uiso   1.00
C288   C     0.59040   0.87393   0.09969   0.00000  Uiso   1.00
C289   C     0.62104   0.91374   0.23029   0.00000  Uiso   1.00
C290   C     0.73050   0.75092   0.92013   0.00000  Uiso   1.00
C291   C     0.66844   0.68812   0.90090   0.00000  Uiso   1.00
C292   C     0.68988   0.61464   0.90230   0.00000  Uiso   1.00
C293   C     0.62383   0.56564   0.88281   0.00000  Uiso   1.00
C294   C     0.72906   0.80039   0.84479   0.00000  Uiso   1.00
C295   C     0.80148   0.82132   0.79902   0.00000  Uiso   1.00
C296   C     0.78647   0.86685   0.73228   0.00000  Uiso   1.00
C297   C     0.68750   0.79417   0.98927   0.00000  Uiso   1.00
C298   C     0.72497   0.80987   0.06497   0.00000  Uiso   1.00
C299   C     0.67497   0.85018   0.11988   0.00000  Uiso   1.00
H300   H     0.50936   0.81303   0.86733   0.00000  Uiso   1.00
H301   H     0.45261   0.68130   0.84564   0.00000  Uiso   1.00
H302   H     0.56419   0.88796   0.74238   0.00000  Uiso   1.00
H303   H     0.48770   0.87651   0.00829   0.00000  Uiso   1.00
H304   H     0.42693   0.52480   0.83046   0.00000  Uiso   1.00
H305   H     0.66221   0.96056   0.61274   0.00000  Uiso   1.00
H306   H     0.50090   0.93643   0.17347   0.00000  Uiso   1.00
H307   H     0.79623   0.73246   0.93583   0.00000  Uiso   1.00
H308   H     0.75521   0.59631   0.91790   0.00000  Uiso   1.00
H309   H     0.86679   0.80296   0.81463   0.00000  Uiso   1.00
H310   H     0.79030   0.79151   0.08055   0.00000  Uiso   1.00
H311   H     0.67253   0.45582   0.88911   0.00000  Uiso   1.00
H312   H     0.90781   0.89158   0.67138   0.00000  Uiso   1.00
H313   H     0.74650   0.86744   0.23212   0.00000  Uiso   1.00
O314   O     0.51758   0.40220   0.84673   0.00000  Uiso   1.00
O315   O     0.82626   0.97391   0.56110   0.00000  Uiso   1.00
O316   O     0.61462   0.94224   0.29677   0.00000  Uiso   1.00
N317   N     0.49035   0.52725   0.84674   0.00000  Uiso   1.00
N318   N     0.71033   0.93465   0.64317   0.00000  Uiso   1.00
N319   N     0.55952   0.91210   0.16740   0.00000  Uiso   1.00
N320   N     0.62251   0.49013   0.87830   0.00000  Uiso   1.00
N321   N     0.84248   0.89753   0.67473   0.00000  Uiso   1.00
N322   N     0.69168   0.87498   0.19896   0.00000  Uiso   1.00
C323   C     0.92492   0.70543   0.38303   0.00000  Uiso   1.00
C324   C     0.91598   0.78817   0.38075   0.00000  Uiso   1.00
C325   C     0.98207   0.83707   0.36125   0.00000  Uiso   1.00
C326   C     0.96074   0.91060   0.36261   0.00000  Uiso   1.00
C327   C     0.95968   0.03548   0.35597   0.00000  Uiso   1.00
C328   C     0.85535   0.67590   0.32463   0.00000  Uiso   1.00
C329   C     0.87047   0.63039   0.25796   0.00000  Uiso   1.00
C330   C     0.79810   0.60940   0.21209   0.00000  Uiso   1.00
C331   C     0.70292   0.55993   0.11837   0.00000  Uiso   1.00
C332   C     0.89692   0.68212   0.46911   0.00000  Uiso   1.00
C333   C     0.94698   0.64183   0.52391   0.00000  Uiso   1.00
C334   C     0.90960   0.62607   0.59969   0.00000  Uiso   1.00
C335   C     0.87896   0.58626   0.73029   0.00000  Uiso   1.00
C336   C     0.76950   0.74908   0.42013   0.00000  Uiso   1.00
C337   C     0.83156   0.81188   0.40090   0.00000  Uiso   1.00
C338   C     0.81012   0.88536   0.40230   0.00000  Uiso   1.00
C339   C     0.87617   0.93436   0.38281   0.00000  Uiso   1.00
C340   C     0.77094   0.69961   0.34479   0.00000  Uiso   1.00
C341   C     0.69852   0.67868   0.29902   0.00000  Uiso   1.00
C342   C     0.71353   0.63315   0.23228   0.00000  Uiso   1.00
C343   C     0.81250   0.70583   0.48927   0.00000  Uiso   1.00
C344   C     0.77503   0.69013   0.56497   0.00000  Uiso   1.00
C345   C     0.82503   0.64982   0.61988   0.00000  Uiso   1.00
H346   H     0.99064   0.68697   0.36733   0.00000  Uiso   1.00
H347   H     0.04739   0.81870   0.34564   0.00000  Uiso   1.00
H348   H     0.93581   0.61204   0.24238   0.00000  Uiso   1.00
H349   H     0.01230   0.62349   0.50829   0.00000  Uiso   1.00
H350   H     0.07307   0.97520   0.33046   0.00000  Uiso   1.00
H351   H     0.83779   0.53944   0.11274   0.00000  Uiso   1.00
H352   H     0.99910   0.56357   0.67347   0.00000  Uiso   1.00
H353   H     0.70377   0.76754   0.43583   0.00000  Uiso   1.00
H354   H     0.74479   0.90369   0.41790   0.00000  Uiso   1.00
H355   H     0.63321   0.69704   0.31463   0.00000  Uiso   1.00
H356   H     0.70970   0.70849   0.58055   0.00000  Uiso   1.00
H357   H     0.82747   0.04418   0.38911   0.00000  Uiso   1.00
H358   H     0.59219   0.60842   0.17138   0.00000  Uiso   1.00
H359   H     0.75350   0.63256   0.73212   0.00000  Uiso   1.00
O360   O     0.98242   0.09780   0.34673   0.00000  Uiso   1.00
O361   O     0.67374   0.52609   0.06110   0.00000  Uiso   1.00
O362   O     0.88538   0.55776   0.79677   0.00000  Uiso   1.00
N363   N     0.00965   0.97275   0.34674   0.00000  Uiso   1.00
N364   N     0.78967   0.56535   0.14317   0.00000  Uiso   1.00
N365   N     0.94048   0.58790   0.66740   0.00000  Uiso   1.00
N366   N     0.87749   0.00987   0.37830   0.00000  Uiso   1.00
N367   N     0.65752   0.60247   0.17473   0.00000  Uiso   1.00
N368   N     0.80832   0.62502   0.69896   0.00000  Uiso   1.00
