data_job_02425
_audit_creation_date              2018-12-19
_audit_creation_method            'Materials Studio'
_symmetry_space_group_name_H-M    'P1'
_symmetry_Int_Tables_number       1
_symmetry_cell_setting            triclinic
loop_
_symmetry_equiv_pos_as_xyz
  x,y,z
_cell_length_a                    10.2664
_cell_length_b                    17.3094
_cell_length_c                    17.2776
_cell_angle_alpha                 90.0000
_cell_angle_beta                  121.4991
_cell_angle_gamma                 90.0000
loop_
_atom_site_label
_atom_site_type_symbol
_atom_site_fract_x
_atom_site_fract_y
_atom_site_fract_z
_atom_site_U_iso_or_equiv
_atom_site_adp_type
_atom_site_occupancy
C1     C     0.49109   0.98583   0.28074   0.00000  Uiso   1.00
C2     C     0.56974   0.06383   0.31493   0.00000  Uiso   1.00
C3     C     0.72100   0.07505   0.38315   0.00000  Uiso   1.00
C4     C     0.77125   0.15091   0.40455   0.00000  Uiso   1.00
C5     C     0.90820   0.26255   0.46456   0.00000  Uiso   1.00
C6     C     0.35268   0.98735   0.29133   0.00000  Uiso   1.00
C7     C     0.32143   0.93426   0.33971   0.00000  Uiso   1.00
C8     C     0.18894   0.94574   0.34123   0.00000  Uiso   1.00
C9     C     0.98884   0.93860   0.36455   0.00000  Uiso   1.00
C10    C     0.42768   0.98495   0.17885   0.00000  Uiso   1.00
C11    C     0.45945   0.92983   0.13265   0.00000  Uiso   1.00
C12    C     0.39006   0.93927   0.03946   0.00000  Uiso   1.00
C13    C     0.30641   0.92841   0.88814   0.00000  Uiso   1.00
C14    C     0.31135   0.10059   0.19741   0.00000  Uiso   1.00
C15    C     0.47211   0.12616   0.26967   0.00000  Uiso   1.00
C16    C     0.52214   0.20202   0.29097   0.00000  Uiso   1.00
C17    C     0.67345   0.21336   0.35921   0.00000  Uiso   1.00
C18    C     0.25505   0.04968   0.24608   0.00000  Uiso   1.00
C19    C     0.12257   0.06123   0.24752   0.00000  Uiso   1.00
C20    C     0.09113   0.00818   0.29589   0.00000  Uiso   1.00
C21    C     0.33005   0.04728   0.13359   0.00000  Uiso   1.00
C22    C     0.26059   0.05681   0.04046   0.00000  Uiso   1.00
C23    C     0.29226   0.00172   0.99412   0.00000  Uiso   1.00
H24    H     0.56709   0.93730   0.31597   0.00000  Uiso   1.00
H25    H     0.79652   0.02680   0.41817   0.00000  Uiso   1.00
H26    H     0.39700   0.88603   0.37472   0.00000  Uiso   1.00
H27    H     0.53500   0.88160   0.16769   0.00000  Uiso   1.00
H28    H     0.00780   0.15352   0.51153   0.00000  Uiso   1.00
H29    H     0.16537   0.85668   0.41990   0.00000  Uiso   1.00
H30    H     0.45637   0.84734   0.98334   0.00000  Uiso   1.00
H31    H     0.23533   0.14912   0.16218   0.00000  Uiso   1.00
H32    H     0.44656   0.25025   0.25593   0.00000  Uiso   1.00
H33    H     0.04704   0.10947   0.21249   0.00000  Uiso   1.00
H34    H     0.18504   0.10505   0.00546   0.00000  Uiso   1.00
H35    H     0.72376   0.33488   0.37986   0.00000  Uiso   1.00
H36    H     0.88132   0.03804   0.28822   0.00000  Uiso   1.00
H37    H     0.17233   0.02870   0.85166   0.00000  Uiso   1.00
O38    O     0.01070   0.30690   0.51017   0.00000  Uiso   1.00
O39    O     0.90545   0.91745   0.38993   0.00000  Uiso   1.00
O40    O     0.28725   0.90521   0.81718   0.00000  Uiso   1.00
N41    N     0.91198   0.18232   0.46767   0.00000  Uiso   1.00
N42    N     0.12436   0.90480   0.38201   0.00000  Uiso   1.00
N43    N     0.39640   0.89606   0.97385   0.00000  Uiso   1.00
N44    N     0.75914   0.27991   0.39681   0.00000  Uiso   1.00
N45    N     0.97152   0.00239   0.31115   0.00000  Uiso   1.00
N46    N     0.24356   0.99365   0.90300   0.00000  Uiso   1.00
C47    C     0.50891   0.48583   0.21926   0.00000  Uiso   1.00
C48    C     0.43026   0.56383   0.18507   0.00000  Uiso   1.00
C49    C     0.27900   0.57505   0.11685   0.00000  Uiso   1.00
C50    C     0.22875   0.65091   0.09545   0.00000  Uiso   1.00
C51    C     0.09180   0.76255   0.03544   0.00000  Uiso   1.00
C52    C     0.64732   0.48735   0.20867   0.00000  Uiso   1.00
C53    C     0.67857   0.43426   0.16029   0.00000  Uiso   1.00
C54    C     0.81106   0.44574   0.15877   0.00000  Uiso   1.00
C55    C     0.01116   0.43860   0.13545   0.00000  Uiso   1.00
C56    C     0.57232   0.48495   0.32115   0.00000  Uiso   1.00
C57    C     0.54055   0.42983   0.36735   0.00000  Uiso   1.00
C58    C     0.60994   0.43927   0.46054   0.00000  Uiso   1.00
C59    C     0.69359   0.42841   0.61186   0.00000  Uiso   1.00
C60    C     0.68865   0.60059   0.30259   0.00000  Uiso   1.00
C61    C     0.52789   0.62616   0.23033   0.00000  Uiso   1.00
C62    C     0.47786   0.70202   0.20903   0.00000  Uiso   1.00
C63    C     0.32655   0.71336   0.14079   0.00000  Uiso   1.00
C64    C     0.74495   0.54968   0.25392   0.00000  Uiso   1.00
C65    C     0.87743   0.56123   0.25248   0.00000  Uiso   1.00
C66    C     0.90887   0.50818   0.20411   0.00000  Uiso   1.00
C67    C     0.66995   0.54728   0.36641   0.00000  Uiso   1.00
C68    C     0.73941   0.55681   0.45954   0.00000  Uiso   1.00
C69    C     0.70774   0.50172   0.50588   0.00000  Uiso   1.00
H70    H     0.43291   0.43730   0.18403   0.00000  Uiso   1.00
H71    H     0.20348   0.52680   0.08183   0.00000  Uiso   1.00
H72    H     0.60300   0.38603   0.12528   0.00000  Uiso   1.00
H73    H     0.46500   0.38160   0.33231   0.00000  Uiso   1.00
H74    H     0.99220   0.65352   0.98847   0.00000  Uiso   1.00
H75    H     0.83463   0.35668   0.08010   0.00000  Uiso   1.00
H76    H     0.54363   0.34734   0.51666   0.00000  Uiso   1.00
H77    H     0.76467   0.64912   0.33782   0.00000  Uiso   1.00
H78    H     0.55344   0.75025   0.24407   0.00000  Uiso   1.00
H79    H     0.95296   0.60947   0.28751   0.00000  Uiso   1.00
H80    H     0.81496   0.60505   0.49454   0.00000  Uiso   1.00
H81    H     0.27624   0.83488   0.12014   0.00000  Uiso   1.00
H82    H     0.11868   0.53804   0.21178   0.00000  Uiso   1.00
H83    H     0.82767   0.52870   0.64834   0.00000  Uiso   1.00
O84    O     0.98930   0.80690   0.98983   0.00000  Uiso   1.00
O85    O     0.09455   0.41745   0.11007   0.00000  Uiso   1.00
O86    O     0.71275   0.40521   0.68282   0.00000  Uiso   1.00
N87    N     0.08802   0.68232   0.03233   0.00000  Uiso   1.00
N88    N     0.87564   0.40480   0.11799   0.00000  Uiso   1.00
N89    N     0.60360   0.39606   0.52615   0.00000  Uiso   1.00
N90    N     0.24086   0.77991   0.10319   0.00000  Uiso   1.00
N91    N     0.02848   0.50239   0.18885   0.00000  Uiso   1.00
N92    N     0.75644   0.49365   0.59700   0.00000  Uiso   1.00
C93    C     0.50891   0.01417   0.71926   0.00000  Uiso   1.00
C94    C     0.43026   0.93617   0.68507   0.00000  Uiso   1.00
C95    C     0.27900   0.92495   0.61685   0.00000  Uiso   1.00
C96    C     0.22875   0.84909   0.59545   0.00000  Uiso   1.00
C97    C     0.09180   0.73745   0.53544   0.00000  Uiso   1.00
C98    C     0.64732   0.01265   0.70867   0.00000  Uiso   1.00
C99    C     0.67857   0.06574   0.66029   0.00000  Uiso   1.00
C100   C     0.81106   0.05426   0.65877   0.00000  Uiso   1.00
C101   C     0.01116   0.06140   0.63545   0.00000  Uiso   1.00
C102   C     0.57232   0.01505   0.82115   0.00000  Uiso   1.00
C103   C     0.54055   0.07017   0.86735   0.00000  Uiso   1.00
C104   C     0.60994   0.06073   0.96054   0.00000  Uiso   1.00
C105   C     0.69359   0.07159   0.11186   0.00000  Uiso   1.00
C106   C     0.68865   0.89941   0.80259   0.00000  Uiso   1.00
C107   C     0.52789   0.87384   0.73033   0.00000  Uiso   1.00
C108   C     0.47786   0.79798   0.70903   0.00000  Uiso   1.00
C109   C     0.32655   0.78664   0.64079   0.00000  Uiso   1.00
C110   C     0.74495   0.95032   0.75392   0.00000  Uiso   1.00
C111   C     0.87743   0.93877   0.75248   0.00000  Uiso   1.00
C112   C     0.90887   0.99182   0.70411   0.00000  Uiso   1.00
C113   C     0.66995   0.95272   0.86641   0.00000  Uiso   1.00
C114   C     0.73941   0.94319   0.95954   0.00000  Uiso   1.00
C115   C     0.70774   0.99828   0.00588   0.00000  Uiso   1.00
H116   H     0.43291   0.06270   0.68403   0.00000  Uiso   1.00
H117   H     0.20348   0.97320   0.58183   0.00000  Uiso   1.00
H118   H     0.60300   0.11397   0.62528   0.00000  Uiso   1.00
H119   H     0.46500   0.11840   0.83231   0.00000  Uiso   1.00
H120   H     0.99220   0.84648   0.48847   0.00000  Uiso   1.00
H121   H     0.83463   0.14332   0.58010   0.00000  Uiso   1.00
H122   H     0.54363   0.15266   0.01666   0.00000  Uiso   1.00
H123   H     0.76467   0.85088   0.83782   0.00000  Uiso   1.00
H124   H     0.55344   0.74975   0.74407   0.00000  Uiso   1.00
H125   H     0.95296   0.89053   0.78751   0.00000  Uiso   1.00
H126   H     0.81496   0.89495   0.99454   0.00000  Uiso   1.00
H127   H     0.27624   0.66512   0.62014   0.00000  Uiso   1.00
H128   H     0.11868   0.96196   0.71178   0.00000  Uiso   1.00
H129   H     0.82767   0.97130   0.14834   0.00000  Uiso   1.00
O130   O     0.98930   0.69310   0.48983   0.00000  Uiso   1.00
O131   O     0.09455   0.08255   0.61007   0.00000  Uiso   1.00
O132   O     0.71275   0.09479   0.18282   0.00000  Uiso   1.00
N133   N     0.08802   0.81768   0.53233   0.00000  Uiso   1.00
N134   N     0.87564   0.09520   0.61799   0.00000  Uiso   1.00
N135   N     0.60360   0.10394   0.02615   0.00000  Uiso   1.00
N136   N     0.24086   0.72009   0.60319   0.00000  Uiso   1.00
N137   N     0.02848   0.99761   0.68885   0.00000  Uiso   1.00
N138   N     0.75644   0.00635   0.09700   0.00000  Uiso   1.00
C139   C     0.49109   0.51417   0.78074   0.00000  Uiso   1.00
C140   C     0.56974   0.43617   0.81493   0.00000  Uiso   1.00
C141   C     0.72100   0.42495   0.88315   0.00000  Uiso   1.00
C142   C     0.77125   0.34909   0.90455   0.00000  Uiso   1.00
C143   C     0.90820   0.23745   0.96456   0.00000  Uiso   1.00
C144   C     0.35268   0.51265   0.79133   0.00000  Uiso   1.00
C145   C     0.32143   0.56574   0.83971   0.00000  Uiso   1.00
C146   C     0.18894   0.55426   0.84123   0.00000  Uiso   1.00
C147   C     0.98884   0.56140   0.86455   0.00000  Uiso   1.00
C148   C     0.42768   0.51505   0.67885   0.00000  Uiso   1.00
C149   C     0.45945   0.57017   0.63265   0.00000  Uiso   1.00
C150   C     0.39006   0.56073   0.53946   0.00000  Uiso   1.00
C151   C     0.30641   0.57159   0.38814   0.00000  Uiso   1.00
C152   C     0.31135   0.39941   0.69741   0.00000  Uiso   1.00
C153   C     0.47211   0.37384   0.76967   0.00000  Uiso   1.00
C154   C     0.52214   0.29798   0.79097   0.00000  Uiso   1.00
C155   C     0.67345   0.28664   0.85921   0.00000  Uiso   1.00
C156   C     0.25505   0.45032   0.74608   0.00000  Uiso   1.00
C157   C     0.12257   0.43877   0.74752   0.00000  Uiso   1.00
C158   C     0.09113   0.49182   0.79589   0.00000  Uiso   1.00
C159   C     0.33005   0.45272   0.63359   0.00000  Uiso   1.00
C160   C     0.26059   0.44319   0.54046   0.00000  Uiso   1.00
C161   C     0.29226   0.49828   0.49412   0.00000  Uiso   1.00
H162   H     0.56709   0.56270   0.81597   0.00000  Uiso   1.00
H163   H     0.79652   0.47320   0.91817   0.00000  Uiso   1.00
H164   H     0.39700   0.61397   0.87472   0.00000  Uiso   1.00
H165   H     0.53500   0.61840   0.66769   0.00000  Uiso   1.00
H166   H     0.00780   0.34648   0.01153   0.00000  Uiso   1.00
H167   H     0.16537   0.64332   0.91990   0.00000  Uiso   1.00
H168   H     0.45637   0.65266   0.48334   0.00000  Uiso   1.00
H169   H     0.23533   0.35088   0.66218   0.00000  Uiso   1.00
H170   H     0.44656   0.24975   0.75593   0.00000  Uiso   1.00
H171   H     0.04704   0.39053   0.71249   0.00000  Uiso   1.00
H172   H     0.18504   0.39495   0.50546   0.00000  Uiso   1.00
H173   H     0.72376   0.16512   0.87986   0.00000  Uiso   1.00
H174   H     0.88132   0.46196   0.78822   0.00000  Uiso   1.00
H175   H     0.17233   0.47130   0.35166   0.00000  Uiso   1.00
O176   O     0.01070   0.19310   0.01017   0.00000  Uiso   1.00
O177   O     0.90545   0.58255   0.88993   0.00000  Uiso   1.00
O178   O     0.28725   0.59479   0.31718   0.00000  Uiso   1.00
N179   N     0.91198   0.31768   0.96767   0.00000  Uiso   1.00
N180   N     0.12436   0.59520   0.88201   0.00000  Uiso   1.00
N181   N     0.39640   0.60394   0.47385   0.00000  Uiso   1.00
N182   N     0.75914   0.22009   0.89681   0.00000  Uiso   1.00
N183   N     0.97152   0.49761   0.81115   0.00000  Uiso   1.00
N184   N     0.24356   0.50635   0.40300   0.00000  Uiso   1.00
