data_job_03925
_audit_creation_date              2018-12-19
_audit_creation_method            'Materials Studio'
_symmetry_space_group_name_H-M    'P1'
_symmetry_Int_Tables_number       1
_symmetry_cell_setting            triclinic
loop_
_symmetry_equiv_pos_as_xyz
  x,y,z
_cell_length_a                    11.4465
_cell_length_b                    12.7946
_cell_length_c                    24.0080
_cell_angle_alpha                 90.0000
_cell_angle_beta                  90.6843
_cell_angle_gamma                 90.0000
loop_
_atom_site_label
_atom_site_type_symbol
_atom_site_fract_x
_atom_site_fract_y
_atom_site_fract_z
_atom_site_U_iso_or_equiv
_atom_site_adp_type
_atom_site_occupancy
C1     C     0.86074   0.76651   0.49841   0.00000  Uiso   1.00
C2     C     0.79403   0.85740   0.52404   0.00000  Uiso   1.00
C3     C     0.83890   0.95621   0.53483   0.00000  Uiso   1.00
C4     C     0.76382   0.02852   0.55844   0.00000  Uiso   1.00
C5     C     0.67785   0.17354   0.59639   0.00000  Uiso   1.00
C6     C     0.85179   0.67641   0.53971   0.00000  Uiso   1.00
C7     C     0.94521   0.62303   0.56366   0.00000  Uiso   1.00
C8     C     0.91874   0.54297   0.60046   0.00000  Uiso   1.00
C9     C     0.92245   0.40693   0.66270   0.00000  Uiso   1.00
C10    C     0.79036   0.73333   0.44706   0.00000  Uiso   1.00
C11    C     0.83215   0.72778   0.39311   0.00000  Uiso   1.00
C12    C     0.75397   0.69562   0.35190   0.00000  Uiso   1.00
C13    C     0.66231   0.64797   0.27029   0.00000  Uiso   1.00
C14    C     0.64761   0.71923   0.52115   0.00000  Uiso   1.00
C15    C     0.67827   0.83172   0.53640   0.00000  Uiso   1.00
C16    C     0.60309   0.90390   0.55999   0.00000  Uiso   1.00
C17    C     0.64784   0.00280   0.57081   0.00000  Uiso   1.00
C18    C     0.73603   0.65072   0.55206   0.00000  Uiso   1.00
C19    C     0.70941   0.57072   0.58883   0.00000  Uiso   1.00
C20    C     0.80277   0.51724   0.61283   0.00000  Uiso   1.00
C21    C     0.67460   0.70765   0.45941   0.00000  Uiso   1.00
C22    C     0.59634   0.67548   0.41828   0.00000  Uiso   1.00
C23    C     0.63800   0.66989   0.36428   0.00000  Uiso   1.00
H24    H     0.95087   0.78650   0.48879   0.00000  Uiso   1.00
H25    H     0.92850   0.97605   0.52527   0.00000  Uiso   1.00
H26    H     0.03479   0.64291   0.55409   0.00000  Uiso   1.00
H27    H     0.92174   0.74766   0.38357   0.00000  Uiso   1.00
H28    H     0.85265   0.17486   0.57118   0.00000  Uiso   1.00
H29    H     0.07677   0.47240   0.63194   0.00000  Uiso   1.00
H30    H     0.83839   0.69328   0.27236   0.00000  Uiso   1.00
H31    H     0.55748   0.69924   0.53077   0.00000  Uiso   1.00
H32    H     0.51351   0.88400   0.56955   0.00000  Uiso   1.00
H33    H     0.61982   0.55086   0.59837   0.00000  Uiso   1.00
H34    H     0.50676   0.65561   0.42785   0.00000  Uiso   1.00
H35    H     0.51583   0.10015   0.60712   0.00000  Uiso   1.00
H36    H     0.73997   0.39769   0.66788   0.00000  Uiso   1.00
H37    H     0.50158   0.61857   0.30830   0.00000  Uiso   1.00
O38    O     0.66243   0.26062   0.61392   0.00000  Uiso   1.00
O39    O     0.95648   0.33900   0.69363   0.00000  Uiso   1.00
O40    O     0.64372   0.62880   0.22187   0.00000  Uiso   1.00
N41    N     0.77940   0.13193   0.57430   0.00000  Uiso   1.00
N42    N     0.98895   0.47518   0.63112   0.00000  Uiso   1.00
N43    N     0.76609   0.68166   0.29494   0.00000  Uiso   1.00
N44    N     0.59817   0.09173   0.59364   0.00000  Uiso   1.00
N45    N     0.80772   0.43498   0.65046   0.00000  Uiso   1.00
N46    N     0.58485   0.64146   0.31428   0.00000  Uiso   1.00
C47    C     0.13926   0.76651   0.00159   0.00000  Uiso   1.00
C48    C     0.20597   0.85740   0.97596   0.00000  Uiso   1.00
C49    C     0.16110   0.95621   0.96517   0.00000  Uiso   1.00
C50    C     0.23618   0.02852   0.94156   0.00000  Uiso   1.00
C51    C     0.32215   0.17354   0.90361   0.00000  Uiso   1.00
C52    C     0.14821   0.67641   0.96029   0.00000  Uiso   1.00
C53    C     0.05479   0.62303   0.93634   0.00000  Uiso   1.00
C54    C     0.08126   0.54297   0.89954   0.00000  Uiso   1.00
C55    C     0.07755   0.40693   0.83730   0.00000  Uiso   1.00
C56    C     0.20964   0.73333   0.05294   0.00000  Uiso   1.00
C57    C     0.16785   0.72778   0.10689   0.00000  Uiso   1.00
C58    C     0.24603   0.69562   0.14810   0.00000  Uiso   1.00
C59    C     0.33769   0.64797   0.22971   0.00000  Uiso   1.00
C60    C     0.35239   0.71923   0.97885   0.00000  Uiso   1.00
C61    C     0.32173   0.83172   0.96360   0.00000  Uiso   1.00
C62    C     0.39691   0.90390   0.94001   0.00000  Uiso   1.00
C63    C     0.35216   0.00280   0.92919   0.00000  Uiso   1.00
C64    C     0.26397   0.65072   0.94794   0.00000  Uiso   1.00
C65    C     0.29059   0.57072   0.91117   0.00000  Uiso   1.00
C66    C     0.19723   0.51724   0.88717   0.00000  Uiso   1.00
C67    C     0.32540   0.70765   0.04059   0.00000  Uiso   1.00
C68    C     0.40366   0.67548   0.08172   0.00000  Uiso   1.00
C69    C     0.36200   0.66989   0.13572   0.00000  Uiso   1.00
H70    H     0.04913   0.78650   0.01121   0.00000  Uiso   1.00
H71    H     0.07150   0.97605   0.97473   0.00000  Uiso   1.00
H72    H     0.96521   0.64291   0.94591   0.00000  Uiso   1.00
H73    H     0.07826   0.74766   0.11643   0.00000  Uiso   1.00
H74    H     0.14735   0.17486   0.92882   0.00000  Uiso   1.00
H75    H     0.92323   0.47240   0.86806   0.00000  Uiso   1.00
H76    H     0.16161   0.69328   0.22764   0.00000  Uiso   1.00
H77    H     0.44252   0.69924   0.96923   0.00000  Uiso   1.00
H78    H     0.48649   0.88400   0.93045   0.00000  Uiso   1.00
H79    H     0.38018   0.55086   0.90163   0.00000  Uiso   1.00
H80    H     0.49324   0.65561   0.07215   0.00000  Uiso   1.00
H81    H     0.48417   0.10015   0.89288   0.00000  Uiso   1.00
H82    H     0.26003   0.39769   0.83212   0.00000  Uiso   1.00
H83    H     0.49842   0.61857   0.19170   0.00000  Uiso   1.00
O84    O     0.33757   0.26062   0.88608   0.00000  Uiso   1.00
O85    O     0.04352   0.33900   0.80637   0.00000  Uiso   1.00
O86    O     0.35628   0.62880   0.27813   0.00000  Uiso   1.00
N87    N     0.22060   0.13193   0.92570   0.00000  Uiso   1.00
N88    N     0.01105   0.47518   0.86888   0.00000  Uiso   1.00
N89    N     0.23391   0.68166   0.20506   0.00000  Uiso   1.00
N90    N     0.40183   0.09173   0.90636   0.00000  Uiso   1.00
N91    N     0.19228   0.43498   0.84954   0.00000  Uiso   1.00
N92    N     0.41515   0.64146   0.18572   0.00000  Uiso   1.00
C93    C     0.13926   0.23349   0.50159   0.00000  Uiso   1.00
C94    C     0.20597   0.14260   0.47596   0.00000  Uiso   1.00
C95    C     0.16110   0.04379   0.46517   0.00000  Uiso   1.00
C96    C     0.23618   0.97148   0.44156   0.00000  Uiso   1.00
C97    C     0.32215   0.82646   0.40361   0.00000  Uiso   1.00
C98    C     0.14821   0.32359   0.46029   0.00000  Uiso   1.00
C99    C     0.05479   0.37697   0.43634   0.00000  Uiso   1.00
C100   C     0.08126   0.45703   0.39954   0.00000  Uiso   1.00
C101   C     0.07755   0.59307   0.33730   0.00000  Uiso   1.00
C102   C     0.20964   0.26667   0.55294   0.00000  Uiso   1.00
C103   C     0.16785   0.27222   0.60689   0.00000  Uiso   1.00
C104   C     0.24603   0.30438   0.64810   0.00000  Uiso   1.00
C105   C     0.33769   0.35203   0.72971   0.00000  Uiso   1.00
C106   C     0.35239   0.28077   0.47885   0.00000  Uiso   1.00
C107   C     0.32173   0.16828   0.46360   0.00000  Uiso   1.00
C108   C     0.39691   0.09610   0.44001   0.00000  Uiso   1.00
C109   C     0.35216   0.99720   0.42919   0.00000  Uiso   1.00
C110   C     0.26397   0.34928   0.44794   0.00000  Uiso   1.00
C111   C     0.29059   0.42928   0.41117   0.00000  Uiso   1.00
C112   C     0.19723   0.48276   0.38717   0.00000  Uiso   1.00
C113   C     0.32540   0.29235   0.54059   0.00000  Uiso   1.00
C114   C     0.40366   0.32452   0.58172   0.00000  Uiso   1.00
C115   C     0.36200   0.33011   0.63572   0.00000  Uiso   1.00
H116   H     0.04913   0.21350   0.51121   0.00000  Uiso   1.00
H117   H     0.07150   0.02395   0.47473   0.00000  Uiso   1.00
H118   H     0.96521   0.35709   0.44591   0.00000  Uiso   1.00
H119   H     0.07826   0.25234   0.61643   0.00000  Uiso   1.00
H120   H     0.14735   0.82514   0.42882   0.00000  Uiso   1.00
H121   H     0.92323   0.52760   0.36806   0.00000  Uiso   1.00
H122   H     0.16161   0.30672   0.72764   0.00000  Uiso   1.00
H123   H     0.44252   0.30076   0.46923   0.00000  Uiso   1.00
H124   H     0.48649   0.11600   0.43045   0.00000  Uiso   1.00
H125   H     0.38018   0.44914   0.40163   0.00000  Uiso   1.00
H126   H     0.49324   0.34439   0.57215   0.00000  Uiso   1.00
H127   H     0.48417   0.89985   0.39288   0.00000  Uiso   1.00
H128   H     0.26003   0.60231   0.33212   0.00000  Uiso   1.00
H129   H     0.49842   0.38143   0.69170   0.00000  Uiso   1.00
O130   O     0.33757   0.73938   0.38608   0.00000  Uiso   1.00
O131   O     0.04352   0.66100   0.30637   0.00000  Uiso   1.00
O132   O     0.35628   0.37120   0.77813   0.00000  Uiso   1.00
N133   N     0.22060   0.86807   0.42570   0.00000  Uiso   1.00
N134   N     0.01105   0.52482   0.36888   0.00000  Uiso   1.00
N135   N     0.23391   0.31834   0.70506   0.00000  Uiso   1.00
N136   N     0.40183   0.90827   0.40636   0.00000  Uiso   1.00
N137   N     0.19228   0.56502   0.34954   0.00000  Uiso   1.00
N138   N     0.41515   0.35854   0.68572   0.00000  Uiso   1.00
C139   C     0.86074   0.23349   0.99841   0.00000  Uiso   1.00
C140   C     0.79403   0.14260   0.02404   0.00000  Uiso   1.00
C141   C     0.83890   0.04379   0.03483   0.00000  Uiso   1.00
C142   C     0.76382   0.97148   0.05844   0.00000  Uiso   1.00
C143   C     0.67785   0.82646   0.09639   0.00000  Uiso   1.00
C144   C     0.85179   0.32359   0.03971   0.00000  Uiso   1.00
C145   C     0.94521   0.37697   0.06366   0.00000  Uiso   1.00
C146   C     0.91874   0.45703   0.10046   0.00000  Uiso   1.00
C147   C     0.92245   0.59307   0.16270   0.00000  Uiso   1.00
C148   C     0.79036   0.26667   0.94706   0.00000  Uiso   1.00
C149   C     0.83215   0.27222   0.89311   0.00000  Uiso   1.00
C150   C     0.75397   0.30438   0.85190   0.00000  Uiso   1.00
C151   C     0.66231   0.35203   0.77029   0.00000  Uiso   1.00
C152   C     0.64761   0.28077   0.02115   0.00000  Uiso   1.00
C153   C     0.67827   0.16828   0.03640   0.00000  Uiso   1.00
C154   C     0.60309   0.09610   0.05999   0.00000  Uiso   1.00
C155   C     0.64784   0.99720   0.07081   0.00000  Uiso   1.00
C156   C     0.73603   0.34928   0.05206   0.00000  Uiso   1.00
C157   C     0.70941   0.42928   0.08883   0.00000  Uiso   1.00
C158   C     0.80277   0.48276   0.11283   0.00000  Uiso   1.00
C159   C     0.67460   0.29235   0.95941   0.00000  Uiso   1.00
C160   C     0.59634   0.32452   0.91828   0.00000  Uiso   1.00
C161   C     0.63800   0.33011   0.86428   0.00000  Uiso   1.00
H162   H     0.95087   0.21350   0.98879   0.00000  Uiso   1.00
H163   H     0.92850   0.02395   0.02527   0.00000  Uiso   1.00
H164   H     0.03479   0.35709   0.05409   0.00000  Uiso   1.00
H165   H     0.92174   0.25234   0.88357   0.00000  Uiso   1.00
H166   H     0.85265   0.82514   0.07118   0.00000  Uiso   1.00
H167   H     0.07677   0.52760   0.13194   0.00000  Uiso   1.00
H168   H     0.83839   0.30672   0.77236   0.00000  Uiso   1.00
H169   H     0.55748   0.30076   0.03077   0.00000  Uiso   1.00
H170   H     0.51351   0.11600   0.06955   0.00000  Uiso   1.00
H171   H     0.61982   0.44914   0.09837   0.00000  Uiso   1.00
H172   H     0.50676   0.34439   0.92785   0.00000  Uiso   1.00
H173   H     0.51583   0.89985   0.10712   0.00000  Uiso   1.00
H174   H     0.73997   0.60231   0.16788   0.00000  Uiso   1.00
H175   H     0.50158   0.38143   0.80830   0.00000  Uiso   1.00
O176   O     0.66243   0.73938   0.11392   0.00000  Uiso   1.00
O177   O     0.95648   0.66100   0.19363   0.00000  Uiso   1.00
O178   O     0.64372   0.37120   0.72187   0.00000  Uiso   1.00
N179   N     0.77940   0.86807   0.07430   0.00000  Uiso   1.00
N180   N     0.98895   0.52482   0.13112   0.00000  Uiso   1.00
N181   N     0.76609   0.31834   0.79494   0.00000  Uiso   1.00
N182   N     0.59817   0.90827   0.09364   0.00000  Uiso   1.00
N183   N     0.80772   0.56502   0.15046   0.00000  Uiso   1.00
N184   N     0.58485   0.35854   0.81428   0.00000  Uiso   1.00
