data_job_04641
_audit_creation_date              2018-12-19
_audit_creation_method            'Materials Studio'
_symmetry_space_group_name_H-M    'P1'
_symmetry_Int_Tables_number       1
_symmetry_cell_setting            triclinic
loop_
_symmetry_equiv_pos_as_xyz
  x,y,z
_cell_length_a                    15.9332
_cell_length_b                    31.8905
_cell_length_c                    9.6664
_cell_angle_alpha                 90.0000
_cell_angle_beta                  90.0000
_cell_angle_gamma                 90.0000
loop_
_atom_site_label
_atom_site_type_symbol
_atom_site_fract_x
_atom_site_fract_y
_atom_site_fract_z
_atom_site_U_iso_or_equiv
_atom_site_adp_type
_atom_site_occupancy
C1     C     0.97413   0.10096   0.68108   0.00000  Uiso   1.00
C2     C     0.92988   0.14204   0.64645   0.00000  Uiso   1.00
C3     C     0.90283   0.15425   0.51606   0.00000  Uiso   1.00
C4     C     0.86370   0.19303   0.50588   0.00000  Uiso   1.00
C5     C     0.79680   0.25293   0.43442   0.00000  Uiso   1.00
C6     C     0.05660   0.11313   0.75034   0.00000  Uiso   1.00
C7     C     0.13609   0.10102   0.70732   0.00000  Uiso   1.00
C8     C     0.20362   0.11545   0.78461   0.00000  Uiso   1.00
C9     C     0.33346   0.13043   0.87451   0.00000  Uiso   1.00
C10    C     0.92124   0.08003   0.79296   0.00000  Uiso   1.00
C11    C     0.88693   0.04009   0.78579   0.00000  Uiso   1.00
C12    C     0.84052   0.02665   0.89899   0.00000  Uiso   1.00
C13    C     0.76018   0.99024   0.05506   0.00000  Uiso   1.00
C14    C     0.95272   0.14811   0.89486   0.00000  Uiso   1.00
C15    C     0.91826   0.16765   0.76257   0.00000  Uiso   1.00
C16    C     0.87915   0.20642   0.75258   0.00000  Uiso   1.00
C17    C     0.85205   0.21868   0.62220   0.00000  Uiso   1.00
C18    C     0.04498   0.13873   0.86646   0.00000  Uiso   1.00
C19    C     0.11241   0.15318   0.94384   0.00000  Uiso   1.00
C20    C     0.19198   0.14110   0.90094   0.00000  Uiso   1.00
C21    C     0.90961   0.10564   0.90908   0.00000  Uiso   1.00
C22    C     0.86325   0.09226   0.02231   0.00000  Uiso   1.00
C23    C     0.82887   0.05230   0.01531   0.00000  Uiso   1.00
H24    H     0.98319   0.08102   0.59068   0.00000  Uiso   1.00
H25    H     0.91185   0.13443   0.42622   0.00000  Uiso   1.00
H26    H     0.14507   0.08119   0.61746   0.00000  Uiso   1.00
H27    H     0.89595   0.02028   0.69592   0.00000  Uiso   1.00
H28    H     0.82766   0.20493   0.29508   0.00000  Uiso   1.00
H29    H     0.31941   0.09268   0.69835   0.00000  Uiso   1.00
H30    H     0.79409   0.96422   0.86379   0.00000  Uiso   1.00
H31    H     0.94367   0.16805   0.98527   0.00000  Uiso   1.00
H32    H     0.87016   0.22623   0.84246   0.00000  Uiso   1.00
H33    H     0.10339   0.17300   0.03370   0.00000  Uiso   1.00
H34    H     0.85426   0.11208   0.11215   0.00000  Uiso   1.00
H35    H     0.79383   0.27945   0.63291   0.00000  Uiso   1.00
H36    H     0.28559   0.16719   0.03618   0.00000  Uiso   1.00
H37    H     0.76026   0.03874   0.20163   0.00000  Uiso   1.00
O38    O     0.76313   0.27890   0.36292   0.00000  Uiso   1.00
O39    O     0.40828   0.13162   0.89201   0.00000  Uiso   1.00
O40    O     0.71907   0.96309   0.10906   0.00000  Uiso   1.00
N41    N     0.82977   0.21448   0.39419   0.00000  Uiso   1.00
N42    N     0.28953   0.10954   0.77121   0.00000  Uiso   1.00
N43    N     0.79842   0.98944   0.92590   0.00000  Uiso   1.00
N44    N     0.81157   0.25458   0.57598   0.00000  Uiso   1.00
N45    N     0.27133   0.14963   0.95300   0.00000  Uiso   1.00
N46    N     0.78021   0.02953   0.10769   0.00000  Uiso   1.00
C47    C     0.97228   0.60344   0.93013   0.00000  Uiso   1.00
C48    C     0.92780   0.64473   0.89915   0.00000  Uiso   1.00
C49    C     0.89865   0.65746   0.77055   0.00000  Uiso   1.00
C50    C     0.85968   0.69634   0.76370   0.00000  Uiso   1.00
C51    C     0.79209   0.75663   0.69770   0.00000  Uiso   1.00
C52    C     0.05599   0.61519   0.99603   0.00000  Uiso   1.00
C53    C     0.13462   0.60309   0.94888   0.00000  Uiso   1.00
C54    C     0.20355   0.61711   0.02359   0.00000  Uiso   1.00
C55    C     0.33498   0.63152   0.10805   0.00000  Uiso   1.00
C56    C     0.92113   0.58220   0.04357   0.00000  Uiso   1.00
C57    C     0.88639   0.54235   0.03643   0.00000  Uiso   1.00
C58    C     0.84180   0.52859   0.15118   0.00000  Uiso   1.00
C59    C     0.76384   0.49178   0.30947   0.00000  Uiso   1.00
C60    C     0.95489   0.64985   0.14664   0.00000  Uiso   1.00
C61    C     0.91836   0.66993   0.01676   0.00000  Uiso   1.00
C62    C     0.87942   0.70881   0.01010   0.00000  Uiso   1.00
C63    C     0.85022   0.72160   0.88151   0.00000  Uiso   1.00
C64    C     0.04655   0.64040   0.11362   0.00000  Uiso   1.00
C65    C     0.11538   0.65444   0.18843   0.00000  Uiso   1.00
C66    C     0.19410   0.64236   0.14140   0.00000  Uiso   1.00
C67    C     0.91169   0.60741   0.16118   0.00000  Uiso   1.00
C68    C     0.86715   0.59371   0.27597   0.00000  Uiso   1.00
C69    C     0.83234   0.55385   0.26900   0.00000  Uiso   1.00
H70    H     0.97963   0.58381   0.83857   0.00000  Uiso   1.00
H71    H     0.90598   0.63794   0.67956   0.00000  Uiso   1.00
H72    H     0.14191   0.58358   0.85788   0.00000  Uiso   1.00
H73    H     0.89371   0.52286   0.94541   0.00000  Uiso   1.00
H74    H     0.82018   0.70908   0.55513   0.00000  Uiso   1.00
H75    H     0.31765   0.59444   0.93114   0.00000  Uiso   1.00
H76    H     0.79428   0.46639   0.11571   0.00000  Uiso   1.00
H77    H     0.94754   0.66948   0.23820   0.00000  Uiso   1.00
H78    H     0.87212   0.72831   0.10112   0.00000  Uiso   1.00
H79    H     0.10805   0.67395   0.27943   0.00000  Uiso   1.00
H80    H     0.85986   0.61322   0.36696   0.00000  Uiso   1.00
H81    H     0.79271   0.78243   0.89728   0.00000  Uiso   1.00
H82    H     0.29017   0.66779   0.27329   0.00000  Uiso   1.00
H83    H     0.76680   0.53974   0.45786   0.00000  Uiso   1.00
O84    O     0.75744   0.78291   0.62881   0.00000  Uiso   1.00
O85    O     0.41009   0.63251   0.12213   0.00000  Uiso   1.00
O86    O     0.72344   0.46451   0.36428   0.00000  Uiso   1.00
N87    N     0.82405   0.71826   0.65447   0.00000  Uiso   1.00
N88    N     0.28915   0.61109   0.00600   0.00000  Uiso   1.00
N89    N     0.79986   0.49137   0.17858   0.00000  Uiso   1.00
N90    N     0.80927   0.75773   0.83858   0.00000  Uiso   1.00
N91    N     0.27437   0.65056   0.19011   0.00000  Uiso   1.00
N92    N     0.78508   0.53084   0.36268   0.00000  Uiso   1.00
C93    C     0.02587   0.89904   0.18108   0.00000  Uiso   1.00
C94    C     0.07012   0.85796   0.14645   0.00000  Uiso   1.00
C95    C     0.09717   0.84575   0.01606   0.00000  Uiso   1.00
C96    C     0.13630   0.80697   0.00588   0.00000  Uiso   1.00
C97    C     0.20320   0.74707   0.93442   0.00000  Uiso   1.00
C98    C     0.94340   0.88687   0.25034   0.00000  Uiso   1.00
C99    C     0.86391   0.89898   0.20732   0.00000  Uiso   1.00
C100   C     0.79638   0.88455   0.28461   0.00000  Uiso   1.00
C101   C     0.66654   0.86957   0.37451   0.00000  Uiso   1.00
C102   C     0.07876   0.91997   0.29296   0.00000  Uiso   1.00
C103   C     0.11307   0.95991   0.28579   0.00000  Uiso   1.00
C104   C     0.15948   0.97335   0.39899   0.00000  Uiso   1.00
C105   C     0.23982   0.00976   0.55506   0.00000  Uiso   1.00
C106   C     0.04728   0.85189   0.39486   0.00000  Uiso   1.00
C107   C     0.08174   0.83235   0.26257   0.00000  Uiso   1.00
C108   C     0.12085   0.79358   0.25258   0.00000  Uiso   1.00
C109   C     0.14795   0.78132   0.12220   0.00000  Uiso   1.00
C110   C     0.95502   0.86127   0.36646   0.00000  Uiso   1.00
C111   C     0.88759   0.84682   0.44384   0.00000  Uiso   1.00
C112   C     0.80802   0.85890   0.40094   0.00000  Uiso   1.00
C113   C     0.09039   0.89436   0.40908   0.00000  Uiso   1.00
C114   C     0.13675   0.90774   0.52231   0.00000  Uiso   1.00
C115   C     0.17113   0.94770   0.51531   0.00000  Uiso   1.00
H116   H     0.01681   0.91898   0.09068   0.00000  Uiso   1.00
H117   H     0.08815   0.86557   0.92622   0.00000  Uiso   1.00
H118   H     0.85493   0.91881   0.11746   0.00000  Uiso   1.00
H119   H     0.10405   0.97972   0.19592   0.00000  Uiso   1.00
H120   H     0.17234   0.79507   0.79508   0.00000  Uiso   1.00
H121   H     0.68059   0.90732   0.19835   0.00000  Uiso   1.00
H122   H     0.20591   0.03578   0.36379   0.00000  Uiso   1.00
H123   H     0.05633   0.83195   0.48527   0.00000  Uiso   1.00
H124   H     0.12984   0.77377   0.34246   0.00000  Uiso   1.00
H125   H     0.89661   0.82700   0.53370   0.00000  Uiso   1.00
H126   H     0.14574   0.88792   0.61215   0.00000  Uiso   1.00
H127   H     0.20617   0.72055   0.13291   0.00000  Uiso   1.00
H128   H     0.71441   0.83281   0.53618   0.00000  Uiso   1.00
H129   H     0.23974   0.96126   0.70163   0.00000  Uiso   1.00
O130   O     0.23687   0.72110   0.86292   0.00000  Uiso   1.00
O131   O     0.59172   0.86838   0.39201   0.00000  Uiso   1.00
O132   O     0.28093   0.03691   0.60906   0.00000  Uiso   1.00
N133   N     0.17023   0.78552   0.89419   0.00000  Uiso   1.00
N134   N     0.71047   0.89046   0.27121   0.00000  Uiso   1.00
N135   N     0.20158   0.01056   0.42590   0.00000  Uiso   1.00
N136   N     0.18843   0.74542   0.07598   0.00000  Uiso   1.00
N137   N     0.72867   0.85037   0.45300   0.00000  Uiso   1.00
N138   N     0.21979   0.97047   0.60769   0.00000  Uiso   1.00
C139   C     0.02772   0.39656   0.43013   0.00000  Uiso   1.00
C140   C     0.07220   0.35527   0.39915   0.00000  Uiso   1.00
C141   C     0.10135   0.34254   0.27055   0.00000  Uiso   1.00
C142   C     0.14032   0.30366   0.26370   0.00000  Uiso   1.00
C143   C     0.20791   0.24337   0.19770   0.00000  Uiso   1.00
C144   C     0.94401   0.38481   0.49603   0.00000  Uiso   1.00
C145   C     0.86538   0.39691   0.44888   0.00000  Uiso   1.00
C146   C     0.79645   0.38289   0.52359   0.00000  Uiso   1.00
C147   C     0.66502   0.36848   0.60805   0.00000  Uiso   1.00
C148   C     0.07887   0.41780   0.54357   0.00000  Uiso   1.00
C149   C     0.11361   0.45765   0.53643   0.00000  Uiso   1.00
C150   C     0.15820   0.47141   0.65118   0.00000  Uiso   1.00
C151   C     0.23616   0.50822   0.80947   0.00000  Uiso   1.00
C152   C     0.04511   0.35015   0.64664   0.00000  Uiso   1.00
C153   C     0.08164   0.33007   0.51676   0.00000  Uiso   1.00
C154   C     0.12058   0.29119   0.51010   0.00000  Uiso   1.00
C155   C     0.14978   0.27840   0.38151   0.00000  Uiso   1.00
C156   C     0.95345   0.35960   0.61362   0.00000  Uiso   1.00
C157   C     0.88462   0.34556   0.68843   0.00000  Uiso   1.00
C158   C     0.80590   0.35764   0.64140   0.00000  Uiso   1.00
C159   C     0.08831   0.39259   0.66118   0.00000  Uiso   1.00
C160   C     0.13285   0.40629   0.77597   0.00000  Uiso   1.00
C161   C     0.16766   0.44615   0.76900   0.00000  Uiso   1.00
H162   H     0.02037   0.41619   0.33857   0.00000  Uiso   1.00
H163   H     0.09402   0.36206   0.17956   0.00000  Uiso   1.00
H164   H     0.85809   0.41642   0.35788   0.00000  Uiso   1.00
H165   H     0.10629   0.47714   0.44541   0.00000  Uiso   1.00
H166   H     0.17982   0.29092   0.05513   0.00000  Uiso   1.00
H167   H     0.68235   0.40556   0.43114   0.00000  Uiso   1.00
H168   H     0.20572   0.53361   0.61571   0.00000  Uiso   1.00
H169   H     0.05246   0.33052   0.73820   0.00000  Uiso   1.00
H170   H     0.12788   0.27169   0.60112   0.00000  Uiso   1.00
H171   H     0.89195   0.32605   0.77943   0.00000  Uiso   1.00
H172   H     0.14014   0.38678   0.86696   0.00000  Uiso   1.00
H173   H     0.20729   0.21757   0.39728   0.00000  Uiso   1.00
H174   H     0.70983   0.33221   0.77329   0.00000  Uiso   1.00
H175   H     0.23320   0.46026   0.95786   0.00000  Uiso   1.00
O176   O     0.24256   0.21709   0.12881   0.00000  Uiso   1.00
O177   O     0.58991   0.36749   0.62213   0.00000  Uiso   1.00
O178   O     0.27656   0.53549   0.86428   0.00000  Uiso   1.00
N179   N     0.17595   0.28174   0.15447   0.00000  Uiso   1.00
N180   N     0.71085   0.38891   0.50600   0.00000  Uiso   1.00
N181   N     0.20014   0.50863   0.67858   0.00000  Uiso   1.00
N182   N     0.19073   0.24227   0.33858   0.00000  Uiso   1.00
N183   N     0.72563   0.34944   0.69011   0.00000  Uiso   1.00
N184   N     0.21492   0.46916   0.86268   0.00000  Uiso   1.00
C185   C     0.47413   0.89904   0.68108   0.00000  Uiso   1.00
C186   C     0.42988   0.85796   0.64645   0.00000  Uiso   1.00
C187   C     0.40283   0.84575   0.51606   0.00000  Uiso   1.00
C188   C     0.36370   0.80697   0.50588   0.00000  Uiso   1.00
C189   C     0.29680   0.74707   0.43442   0.00000  Uiso   1.00
C190   C     0.55660   0.88687   0.75034   0.00000  Uiso   1.00
C191   C     0.63609   0.89898   0.70732   0.00000  Uiso   1.00
C192   C     0.70362   0.88455   0.78461   0.00000  Uiso   1.00
C193   C     0.83346   0.86957   0.87451   0.00000  Uiso   1.00
C194   C     0.42124   0.91997   0.79296   0.00000  Uiso   1.00
C195   C     0.38693   0.95991   0.78579   0.00000  Uiso   1.00
C196   C     0.34052   0.97335   0.89899   0.00000  Uiso   1.00
C197   C     0.26018   0.00976   0.05506   0.00000  Uiso   1.00
C198   C     0.45272   0.85189   0.89486   0.00000  Uiso   1.00
C199   C     0.41826   0.83235   0.76257   0.00000  Uiso   1.00
C200   C     0.37915   0.79358   0.75258   0.00000  Uiso   1.00
C201   C     0.35205   0.78132   0.62220   0.00000  Uiso   1.00
C202   C     0.54498   0.86127   0.86646   0.00000  Uiso   1.00
C203   C     0.61241   0.84682   0.94384   0.00000  Uiso   1.00
C204   C     0.69198   0.85890   0.90094   0.00000  Uiso   1.00
C205   C     0.40961   0.89436   0.90908   0.00000  Uiso   1.00
C206   C     0.36325   0.90774   0.02231   0.00000  Uiso   1.00
C207   C     0.32887   0.94770   0.01531   0.00000  Uiso   1.00
H208   H     0.48319   0.91898   0.59068   0.00000  Uiso   1.00
H209   H     0.41185   0.86557   0.42622   0.00000  Uiso   1.00
H210   H     0.64507   0.91881   0.61746   0.00000  Uiso   1.00
H211   H     0.39595   0.97972   0.69592   0.00000  Uiso   1.00
H212   H     0.32766   0.79507   0.29508   0.00000  Uiso   1.00
H213   H     0.81941   0.90732   0.69835   0.00000  Uiso   1.00
H214   H     0.29409   0.03578   0.86379   0.00000  Uiso   1.00
H215   H     0.44367   0.83195   0.98527   0.00000  Uiso   1.00
H216   H     0.37016   0.77377   0.84246   0.00000  Uiso   1.00
H217   H     0.60339   0.82700   0.03370   0.00000  Uiso   1.00
H218   H     0.35426   0.88792   0.11215   0.00000  Uiso   1.00
H219   H     0.29383   0.72055   0.63291   0.00000  Uiso   1.00
H220   H     0.78559   0.83281   0.03618   0.00000  Uiso   1.00
H221   H     0.26026   0.96126   0.20163   0.00000  Uiso   1.00
O222   O     0.26313   0.72110   0.36292   0.00000  Uiso   1.00
O223   O     0.90828   0.86838   0.89201   0.00000  Uiso   1.00
O224   O     0.21907   0.03691   0.10906   0.00000  Uiso   1.00
N225   N     0.32977   0.78552   0.39419   0.00000  Uiso   1.00
N226   N     0.78953   0.89046   0.77121   0.00000  Uiso   1.00
N227   N     0.29842   0.01056   0.92590   0.00000  Uiso   1.00
N228   N     0.31157   0.74542   0.57598   0.00000  Uiso   1.00
N229   N     0.77133   0.85037   0.95300   0.00000  Uiso   1.00
N230   N     0.28021   0.97047   0.10769   0.00000  Uiso   1.00
C231   C     0.47228   0.39656   0.93013   0.00000  Uiso   1.00
C232   C     0.42780   0.35527   0.89915   0.00000  Uiso   1.00
C233   C     0.39865   0.34254   0.77055   0.00000  Uiso   1.00
C234   C     0.35968   0.30366   0.76370   0.00000  Uiso   1.00
C235   C     0.29209   0.24337   0.69770   0.00000  Uiso   1.00
C236   C     0.55599   0.38481   0.99603   0.00000  Uiso   1.00
C237   C     0.63462   0.39691   0.94888   0.00000  Uiso   1.00
C238   C     0.70355   0.38289   0.02359   0.00000  Uiso   1.00
C239   C     0.83498   0.36848   0.10805   0.00000  Uiso   1.00
C240   C     0.42113   0.41780   0.04357   0.00000  Uiso   1.00
C241   C     0.38639   0.45765   0.03643   0.00000  Uiso   1.00
C242   C     0.34180   0.47141   0.15118   0.00000  Uiso   1.00
C243   C     0.26384   0.50822   0.30947   0.00000  Uiso   1.00
C244   C     0.45489   0.35015   0.14664   0.00000  Uiso   1.00
C245   C     0.41836   0.33007   0.01676   0.00000  Uiso   1.00
C246   C     0.37942   0.29119   0.01010   0.00000  Uiso   1.00
C247   C     0.35022   0.27840   0.88151   0.00000  Uiso   1.00
C248   C     0.54655   0.35960   0.11362   0.00000  Uiso   1.00
C249   C     0.61538   0.34556   0.18843   0.00000  Uiso   1.00
C250   C     0.69410   0.35764   0.14140   0.00000  Uiso   1.00
C251   C     0.41169   0.39259   0.16118   0.00000  Uiso   1.00
C252   C     0.36715   0.40629   0.27597   0.00000  Uiso   1.00
C253   C     0.33234   0.44615   0.26900   0.00000  Uiso   1.00
H254   H     0.47963   0.41619   0.83857   0.00000  Uiso   1.00
H255   H     0.40598   0.36206   0.67956   0.00000  Uiso   1.00
H256   H     0.64191   0.41642   0.85788   0.00000  Uiso   1.00
H257   H     0.39371   0.47714   0.94541   0.00000  Uiso   1.00
H258   H     0.32018   0.29092   0.55513   0.00000  Uiso   1.00
H259   H     0.81765   0.40556   0.93114   0.00000  Uiso   1.00
H260   H     0.29428   0.53361   0.11571   0.00000  Uiso   1.00
H261   H     0.44754   0.33052   0.23820   0.00000  Uiso   1.00
H262   H     0.37212   0.27169   0.10112   0.00000  Uiso   1.00
H263   H     0.60805   0.32605   0.27943   0.00000  Uiso   1.00
H264   H     0.35986   0.38678   0.36696   0.00000  Uiso   1.00
H265   H     0.29271   0.21757   0.89728   0.00000  Uiso   1.00
H266   H     0.79017   0.33221   0.27329   0.00000  Uiso   1.00
H267   H     0.26680   0.46026   0.45786   0.00000  Uiso   1.00
O268   O     0.25744   0.21709   0.62881   0.00000  Uiso   1.00
O269   O     0.91009   0.36749   0.12213   0.00000  Uiso   1.00
O270   O     0.22344   0.53549   0.36428   0.00000  Uiso   1.00
N271   N     0.32405   0.28174   0.65447   0.00000  Uiso   1.00
N272   N     0.78915   0.38891   0.00600   0.00000  Uiso   1.00
N273   N     0.29986   0.50863   0.17858   0.00000  Uiso   1.00
N274   N     0.30927   0.24227   0.83858   0.00000  Uiso   1.00
N275   N     0.77437   0.34944   0.19011   0.00000  Uiso   1.00
N276   N     0.28508   0.46916   0.36268   0.00000  Uiso   1.00
C277   C     0.52587   0.10096   0.18108   0.00000  Uiso   1.00
C278   C     0.57012   0.14204   0.14645   0.00000  Uiso   1.00
C279   C     0.59717   0.15425   0.01606   0.00000  Uiso   1.00
C280   C     0.63630   0.19303   0.00588   0.00000  Uiso   1.00
C281   C     0.70320   0.25293   0.93442   0.00000  Uiso   1.00
C282   C     0.44340   0.11313   0.25034   0.00000  Uiso   1.00
C283   C     0.36391   0.10102   0.20732   0.00000  Uiso   1.00
C284   C     0.29638   0.11545   0.28461   0.00000  Uiso   1.00
C285   C     0.16654   0.13043   0.37451   0.00000  Uiso   1.00
C286   C     0.57876   0.08003   0.29296   0.00000  Uiso   1.00
C287   C     0.61307   0.04009   0.28579   0.00000  Uiso   1.00
C288   C     0.65948   0.02665   0.39899   0.00000  Uiso   1.00
C289   C     0.73982   0.99024   0.55506   0.00000  Uiso   1.00
C290   C     0.54728   0.14811   0.39486   0.00000  Uiso   1.00
C291   C     0.58174   0.16765   0.26257   0.00000  Uiso   1.00
C292   C     0.62085   0.20642   0.25258   0.00000  Uiso   1.00
C293   C     0.64795   0.21868   0.12220   0.00000  Uiso   1.00
C294   C     0.45502   0.13873   0.36646   0.00000  Uiso   1.00
C295   C     0.38759   0.15318   0.44384   0.00000  Uiso   1.00
C296   C     0.30802   0.14110   0.40094   0.00000  Uiso   1.00
C297   C     0.59039   0.10564   0.40908   0.00000  Uiso   1.00
C298   C     0.63675   0.09226   0.52231   0.00000  Uiso   1.00
C299   C     0.67113   0.05230   0.51531   0.00000  Uiso   1.00
H300   H     0.51681   0.08102   0.09068   0.00000  Uiso   1.00
H301   H     0.58815   0.13443   0.92622   0.00000  Uiso   1.00
H302   H     0.35493   0.08119   0.11746   0.00000  Uiso   1.00
H303   H     0.60405   0.02028   0.19592   0.00000  Uiso   1.00
H304   H     0.67234   0.20493   0.79508   0.00000  Uiso   1.00
H305   H     0.18059   0.09268   0.19835   0.00000  Uiso   1.00
H306   H     0.70591   0.96422   0.36379   0.00000  Uiso   1.00
H307   H     0.55633   0.16805   0.48527   0.00000  Uiso   1.00
H308   H     0.62984   0.22623   0.34246   0.00000  Uiso   1.00
H309   H     0.39661   0.17300   0.53370   0.00000  Uiso   1.00
H310   H     0.64574   0.11208   0.61215   0.00000  Uiso   1.00
H311   H     0.70617   0.27945   0.13291   0.00000  Uiso   1.00
H312   H     0.21441   0.16719   0.53618   0.00000  Uiso   1.00
H313   H     0.73974   0.03874   0.70163   0.00000  Uiso   1.00
O314   O     0.73687   0.27890   0.86292   0.00000  Uiso   1.00
O315   O     0.09172   0.13162   0.39201   0.00000  Uiso   1.00
O316   O     0.78093   0.96309   0.60906   0.00000  Uiso   1.00
N317   N     0.67023   0.21448   0.89419   0.00000  Uiso   1.00
N318   N     0.21047   0.10954   0.27121   0.00000  Uiso   1.00
N319   N     0.70158   0.98944   0.42590   0.00000  Uiso   1.00
N320   N     0.68843   0.25458   0.07598   0.00000  Uiso   1.00
N321   N     0.22867   0.14963   0.45300   0.00000  Uiso   1.00
N322   N     0.71979   0.02953   0.60769   0.00000  Uiso   1.00
C323   C     0.52772   0.60344   0.43013   0.00000  Uiso   1.00
C324   C     0.57220   0.64473   0.39915   0.00000  Uiso   1.00
C325   C     0.60135   0.65746   0.27055   0.00000  Uiso   1.00
C326   C     0.64032   0.69634   0.26370   0.00000  Uiso   1.00
C327   C     0.70791   0.75663   0.19770   0.00000  Uiso   1.00
C328   C     0.44401   0.61519   0.49603   0.00000  Uiso   1.00
C329   C     0.36538   0.60309   0.44888   0.00000  Uiso   1.00
C330   C     0.29645   0.61711   0.52359   0.00000  Uiso   1.00
C331   C     0.16502   0.63152   0.60805   0.00000  Uiso   1.00
C332   C     0.57887   0.58220   0.54357   0.00000  Uiso   1.00
C333   C     0.61361   0.54235   0.53643   0.00000  Uiso   1.00
C334   C     0.65820   0.52859   0.65118   0.00000  Uiso   1.00
C335   C     0.73616   0.49178   0.80947   0.00000  Uiso   1.00
C336   C     0.54511   0.64985   0.64664   0.00000  Uiso   1.00
C337   C     0.58164   0.66993   0.51676   0.00000  Uiso   1.00
C338   C     0.62058   0.70881   0.51010   0.00000  Uiso   1.00
C339   C     0.64978   0.72160   0.38151   0.00000  Uiso   1.00
C340   C     0.45345   0.64040   0.61362   0.00000  Uiso   1.00
C341   C     0.38462   0.65444   0.68843   0.00000  Uiso   1.00
C342   C     0.30590   0.64236   0.64140   0.00000  Uiso   1.00
C343   C     0.58831   0.60741   0.66118   0.00000  Uiso   1.00
C344   C     0.63285   0.59371   0.77597   0.00000  Uiso   1.00
C345   C     0.66766   0.55385   0.76900   0.00000  Uiso   1.00
H346   H     0.52037   0.58381   0.33857   0.00000  Uiso   1.00
H347   H     0.59402   0.63794   0.17956   0.00000  Uiso   1.00
H348   H     0.35809   0.58358   0.35788   0.00000  Uiso   1.00
H349   H     0.60629   0.52286   0.44541   0.00000  Uiso   1.00
H350   H     0.67982   0.70908   0.05513   0.00000  Uiso   1.00
H351   H     0.18235   0.59444   0.43114   0.00000  Uiso   1.00
H352   H     0.70572   0.46639   0.61571   0.00000  Uiso   1.00
H353   H     0.55246   0.66948   0.73820   0.00000  Uiso   1.00
H354   H     0.62788   0.72831   0.60112   0.00000  Uiso   1.00
H355   H     0.39195   0.67395   0.77943   0.00000  Uiso   1.00
H356   H     0.64014   0.61322   0.86696   0.00000  Uiso   1.00
H357   H     0.70729   0.78243   0.39728   0.00000  Uiso   1.00
H358   H     0.20983   0.66779   0.77329   0.00000  Uiso   1.00
H359   H     0.73320   0.53974   0.95786   0.00000  Uiso   1.00
O360   O     0.74256   0.78291   0.12881   0.00000  Uiso   1.00
O361   O     0.08991   0.63251   0.62213   0.00000  Uiso   1.00
O362   O     0.77656   0.46451   0.86428   0.00000  Uiso   1.00
N363   N     0.67595   0.71826   0.15447   0.00000  Uiso   1.00
N364   N     0.21085   0.61109   0.50600   0.00000  Uiso   1.00
N365   N     0.70014   0.49137   0.67858   0.00000  Uiso   1.00
N366   N     0.69073   0.75773   0.33858   0.00000  Uiso   1.00
N367   N     0.22563   0.65056   0.69011   0.00000  Uiso   1.00
N368   N     0.71492   0.53084   0.86268   0.00000  Uiso   1.00
