data_job_01815
_audit_creation_date              2018-12-19
_audit_creation_method            'Materials Studio'
_symmetry_space_group_name_H-M    'P1'
_symmetry_Int_Tables_number       1
_symmetry_cell_setting            triclinic
loop_
_symmetry_equiv_pos_as_xyz
  x,y,z
_cell_length_a                    17.2893
_cell_length_b                    22.4290
_cell_length_c                    12.4976
_cell_angle_alpha                 90.0000
_cell_angle_beta                  136.7460
_cell_angle_gamma                 90.0000
loop_
_atom_site_label
_atom_site_type_symbol
_atom_site_fract_x
_atom_site_fract_y
_atom_site_fract_z
_atom_site_U_iso_or_equiv
_atom_site_adp_type
_atom_site_occupancy
C1     C     0.83842   0.62987   0.95961   0.00000  Uiso   1.00
C2     C     0.77879   0.58872   0.97851   0.00000  Uiso   1.00
C3     C     0.82548   0.56553   0.11849   0.00000  Uiso   1.00
C4     C     0.75713   0.52874   0.11113   0.00000  Uiso   1.00
C5     C     0.68143   0.46681   0.16211   0.00000  Uiso   1.00
C6     C     0.83163   0.59898   0.84426   0.00000  Uiso   1.00
C7     C     0.92276   0.58442   0.87137   0.00000  Uiso   1.00
C8     C     0.89888   0.55627   0.75099   0.00000  Uiso   1.00
C9     C     0.90522   0.51030   0.59351   0.00000  Uiso   1.00
C10    C     0.76477   0.68541   0.87651   0.00000  Uiso   1.00
C11    C     0.79968   0.74351   0.93072   0.00000  Uiso   1.00
C12    C     0.71951   0.78813   0.83747   0.00000  Uiso   1.00
C13    C     0.62204   0.87635   0.73007   0.00000  Uiso   1.00
C14    C     0.63399   0.60579   0.69761   0.00000  Uiso   1.00
C15    C     0.66775   0.57564   0.83619   0.00000  Uiso   1.00
C16    C     0.59930   0.53888   0.82862   0.00000  Uiso   1.00
C17    C     0.64589   0.51564   0.96857   0.00000  Uiso   1.00
C18    C     0.72060   0.58590   0.70195   0.00000  Uiso   1.00
C19    C     0.69658   0.55777   0.58150   0.00000  Uiso   1.00
C20    C     0.78764   0.54317   0.60842   0.00000  Uiso   1.00
C21    C     0.65373   0.67233   0.73420   0.00000  Uiso   1.00
C22    C     0.57350   0.71687   0.64085   0.00000  Uiso   1.00
C23    C     0.60827   0.77503   0.69490   0.00000  Uiso   1.00
H24    H     0.92487   0.64005   0.07040   0.00000  Uiso   1.00
H25    H     0.91142   0.57565   0.22860   0.00000  Uiso   1.00
H26    H     0.00867   0.59455   0.98151   0.00000  Uiso   1.00
H27    H     0.88561   0.75361   0.04085   0.00000  Uiso   1.00
H28    H     0.84754   0.49847   0.34123   0.00000  Uiso   1.00
H29    H     0.05261   0.53832   0.82021   0.00000  Uiso   1.00
H30    H     0.79311   0.87375   0.94533   0.00000  Uiso   1.00
H31    H     0.54754   0.59561   0.58681   0.00000  Uiso   1.00
H32    H     0.51338   0.52877   0.71847   0.00000  Uiso   1.00
H33    H     0.61064   0.54766   0.47139   0.00000  Uiso   1.00
H34    H     0.48758   0.70673   0.53073   0.00000  Uiso   1.00
H35    H     0.52448   0.46041   0.92719   0.00000  Uiso   1.00
H36    H     0.72956   0.50027   0.40617   0.00000  Uiso   1.00
H37    H     0.47005   0.83570   0.53130   0.00000  Uiso   1.00
O38    O     0.67036   0.43626   0.22954   0.00000  Uiso   1.00
O39    O     0.93940   0.48856   0.54598   0.00000  Uiso   1.00
O40    O     0.59894   0.92863   0.71015   0.00000  Uiso   1.00
N41    N     0.77619   0.49870   0.22572   0.00000  Uiso   1.00
N42    N     0.96792   0.53595   0.73860   0.00000  Uiso   1.00
N43    N     0.72532   0.84955   0.85557   0.00000  Uiso   1.00
N44    N     0.60236   0.47822   0.00293   0.00000  Uiso   1.00
N45    N     0.79409   0.51547   0.51581   0.00000  Uiso   1.00
N46    N     0.55148   0.82907   0.63278   0.00000  Uiso   1.00
C47    C     0.16158   0.12987   0.54039   0.00000  Uiso   1.00
C48    C     0.22121   0.08872   0.52149   0.00000  Uiso   1.00
C49    C     0.17452   0.06553   0.38151   0.00000  Uiso   1.00
C50    C     0.24287   0.02874   0.38887   0.00000  Uiso   1.00
C51    C     0.31857   0.96681   0.33789   0.00000  Uiso   1.00
C52    C     0.16837   0.09898   0.65574   0.00000  Uiso   1.00
C53    C     0.07724   0.08442   0.62863   0.00000  Uiso   1.00
C54    C     0.10112   0.05627   0.74901   0.00000  Uiso   1.00
C55    C     0.09478   0.01030   0.90649   0.00000  Uiso   1.00
C56    C     0.23523   0.18541   0.62349   0.00000  Uiso   1.00
C57    C     0.20032   0.24351   0.56928   0.00000  Uiso   1.00
C58    C     0.28049   0.28813   0.66253   0.00000  Uiso   1.00
C59    C     0.37796   0.37635   0.76993   0.00000  Uiso   1.00
C60    C     0.36601   0.10579   0.80239   0.00000  Uiso   1.00
C61    C     0.33225   0.07564   0.66381   0.00000  Uiso   1.00
C62    C     0.40070   0.03888   0.67138   0.00000  Uiso   1.00
C63    C     0.35411   0.01564   0.53143   0.00000  Uiso   1.00
C64    C     0.27940   0.08590   0.79805   0.00000  Uiso   1.00
C65    C     0.30342   0.05777   0.91850   0.00000  Uiso   1.00
C66    C     0.21236   0.04317   0.89158   0.00000  Uiso   1.00
C67    C     0.34627   0.17233   0.76580   0.00000  Uiso   1.00
C68    C     0.42650   0.21687   0.85915   0.00000  Uiso   1.00
C69    C     0.39173   0.27503   0.80510   0.00000  Uiso   1.00
H70    H     0.07513   0.14005   0.42960   0.00000  Uiso   1.00
H71    H     0.08858   0.07565   0.27140   0.00000  Uiso   1.00
H72    H     0.99133   0.09455   0.51849   0.00000  Uiso   1.00
H73    H     0.11439   0.25361   0.45915   0.00000  Uiso   1.00
H74    H     0.15246   0.99847   0.15877   0.00000  Uiso   1.00
H75    H     0.94739   0.03832   0.67979   0.00000  Uiso   1.00
H76    H     0.20689   0.37375   0.55467   0.00000  Uiso   1.00
H77    H     0.45246   0.09561   0.91319   0.00000  Uiso   1.00
H78    H     0.48662   0.02877   0.78153   0.00000  Uiso   1.00
H79    H     0.38936   0.04766   0.02861   0.00000  Uiso   1.00
H80    H     0.51242   0.20673   0.96927   0.00000  Uiso   1.00
H81    H     0.47552   0.96041   0.57281   0.00000  Uiso   1.00
H82    H     0.27044   0.00027   0.09383   0.00000  Uiso   1.00
H83    H     0.52995   0.33570   0.96870   0.00000  Uiso   1.00
O84    O     0.32964   0.93626   0.27046   0.00000  Uiso   1.00
O85    O     0.06060   0.98856   0.95402   0.00000  Uiso   1.00
O86    O     0.40106   0.42863   0.78985   0.00000  Uiso   1.00
N87    N     0.22381   0.99870   0.27428   0.00000  Uiso   1.00
N88    N     0.03208   0.03595   0.76140   0.00000  Uiso   1.00
N89    N     0.27468   0.34955   0.64443   0.00000  Uiso   1.00
N90    N     0.39764   0.97822   0.49707   0.00000  Uiso   1.00
N91    N     0.20591   0.01547   0.98419   0.00000  Uiso   1.00
N92    N     0.44852   0.32907   0.86722   0.00000  Uiso   1.00
C93    C     0.16158   0.37013   0.04039   0.00000  Uiso   1.00
C94    C     0.22121   0.41128   0.02149   0.00000  Uiso   1.00
C95    C     0.17452   0.43447   0.88151   0.00000  Uiso   1.00
C96    C     0.24287   0.47126   0.88887   0.00000  Uiso   1.00
C97    C     0.31857   0.53319   0.83789   0.00000  Uiso   1.00
C98    C     0.16837   0.40102   0.15574   0.00000  Uiso   1.00
C99    C     0.07724   0.41558   0.12863   0.00000  Uiso   1.00
C100   C     0.10112   0.44373   0.24901   0.00000  Uiso   1.00
C101   C     0.09478   0.48970   0.40649   0.00000  Uiso   1.00
C102   C     0.23523   0.31459   0.12349   0.00000  Uiso   1.00
C103   C     0.20032   0.25649   0.06928   0.00000  Uiso   1.00
C104   C     0.28049   0.21187   0.16253   0.00000  Uiso   1.00
C105   C     0.37796   0.12365   0.26993   0.00000  Uiso   1.00
C106   C     0.36601   0.39421   0.30239   0.00000  Uiso   1.00
C107   C     0.33225   0.42436   0.16381   0.00000  Uiso   1.00
C108   C     0.40070   0.46112   0.17138   0.00000  Uiso   1.00
C109   C     0.35411   0.48436   0.03143   0.00000  Uiso   1.00
C110   C     0.27940   0.41410   0.29805   0.00000  Uiso   1.00
C111   C     0.30342   0.44223   0.41850   0.00000  Uiso   1.00
C112   C     0.21236   0.45683   0.39158   0.00000  Uiso   1.00
C113   C     0.34627   0.32767   0.26580   0.00000  Uiso   1.00
C114   C     0.42650   0.28313   0.35915   0.00000  Uiso   1.00
C115   C     0.39173   0.22497   0.30510   0.00000  Uiso   1.00
H116   H     0.07513   0.35995   0.92960   0.00000  Uiso   1.00
H117   H     0.08858   0.42435   0.77140   0.00000  Uiso   1.00
H118   H     0.99133   0.40545   0.01849   0.00000  Uiso   1.00
H119   H     0.11439   0.24639   0.95915   0.00000  Uiso   1.00
H120   H     0.15246   0.50153   0.65877   0.00000  Uiso   1.00
H121   H     0.94739   0.46168   0.17979   0.00000  Uiso   1.00
H122   H     0.20689   0.12625   0.05467   0.00000  Uiso   1.00
H123   H     0.45246   0.40439   0.41319   0.00000  Uiso   1.00
H124   H     0.48662   0.47123   0.28153   0.00000  Uiso   1.00
H125   H     0.38936   0.45234   0.52861   0.00000  Uiso   1.00
H126   H     0.51242   0.29327   0.46927   0.00000  Uiso   1.00
H127   H     0.47552   0.53959   0.07281   0.00000  Uiso   1.00
H128   H     0.27044   0.49973   0.59383   0.00000  Uiso   1.00
H129   H     0.52995   0.16430   0.46870   0.00000  Uiso   1.00
O130   O     0.32964   0.56374   0.77046   0.00000  Uiso   1.00
O131   O     0.06060   0.51144   0.45402   0.00000  Uiso   1.00
O132   O     0.40106   0.07137   0.28985   0.00000  Uiso   1.00
N133   N     0.22381   0.50130   0.77428   0.00000  Uiso   1.00
N134   N     0.03208   0.46405   0.26140   0.00000  Uiso   1.00
N135   N     0.27468   0.15045   0.14443   0.00000  Uiso   1.00
N136   N     0.39764   0.52178   0.99707   0.00000  Uiso   1.00
N137   N     0.20591   0.48453   0.48419   0.00000  Uiso   1.00
N138   N     0.44852   0.17093   0.36722   0.00000  Uiso   1.00
C139   C     0.83842   0.87013   0.45961   0.00000  Uiso   1.00
C140   C     0.77879   0.91128   0.47851   0.00000  Uiso   1.00
C141   C     0.82548   0.93447   0.61849   0.00000  Uiso   1.00
C142   C     0.75713   0.97126   0.61113   0.00000  Uiso   1.00
C143   C     0.68143   0.03319   0.66211   0.00000  Uiso   1.00
C144   C     0.83163   0.90102   0.34426   0.00000  Uiso   1.00
C145   C     0.92276   0.91558   0.37137   0.00000  Uiso   1.00
C146   C     0.89888   0.94373   0.25099   0.00000  Uiso   1.00
C147   C     0.90522   0.98970   0.09351   0.00000  Uiso   1.00
C148   C     0.76477   0.81459   0.37651   0.00000  Uiso   1.00
C149   C     0.79968   0.75649   0.43072   0.00000  Uiso   1.00
C150   C     0.71951   0.71187   0.33747   0.00000  Uiso   1.00
C151   C     0.62204   0.62365   0.23007   0.00000  Uiso   1.00
C152   C     0.63399   0.89421   0.19761   0.00000  Uiso   1.00
C153   C     0.66775   0.92436   0.33619   0.00000  Uiso   1.00
C154   C     0.59930   0.96112   0.32862   0.00000  Uiso   1.00
C155   C     0.64589   0.98436   0.46857   0.00000  Uiso   1.00
C156   C     0.72060   0.91410   0.20195   0.00000  Uiso   1.00
C157   C     0.69658   0.94223   0.08150   0.00000  Uiso   1.00
C158   C     0.78764   0.95683   0.10842   0.00000  Uiso   1.00
C159   C     0.65373   0.82767   0.23420   0.00000  Uiso   1.00
C160   C     0.57350   0.78313   0.14085   0.00000  Uiso   1.00
C161   C     0.60827   0.72497   0.19490   0.00000  Uiso   1.00
H162   H     0.92487   0.85995   0.57040   0.00000  Uiso   1.00
H163   H     0.91142   0.92435   0.72860   0.00000  Uiso   1.00
H164   H     0.00867   0.90545   0.48151   0.00000  Uiso   1.00
H165   H     0.88561   0.74639   0.54085   0.00000  Uiso   1.00
H166   H     0.84754   0.00153   0.84123   0.00000  Uiso   1.00
H167   H     0.05261   0.96168   0.32021   0.00000  Uiso   1.00
H168   H     0.79311   0.62625   0.44533   0.00000  Uiso   1.00
H169   H     0.54754   0.90439   0.08681   0.00000  Uiso   1.00
H170   H     0.51338   0.97123   0.21847   0.00000  Uiso   1.00
H171   H     0.61064   0.95234   0.97139   0.00000  Uiso   1.00
H172   H     0.48758   0.79327   0.03073   0.00000  Uiso   1.00
H173   H     0.52448   0.03959   0.42719   0.00000  Uiso   1.00
H174   H     0.72956   0.99973   0.90617   0.00000  Uiso   1.00
H175   H     0.47005   0.66430   0.03130   0.00000  Uiso   1.00
O176   O     0.67036   0.06374   0.72954   0.00000  Uiso   1.00
O177   O     0.93940   0.01144   0.04598   0.00000  Uiso   1.00
O178   O     0.59894   0.57137   0.21015   0.00000  Uiso   1.00
N179   N     0.77619   0.00130   0.72572   0.00000  Uiso   1.00
N180   N     0.96792   0.96405   0.23860   0.00000  Uiso   1.00
N181   N     0.72532   0.65045   0.35557   0.00000  Uiso   1.00
N182   N     0.60236   0.02178   0.50293   0.00000  Uiso   1.00
N183   N     0.79409   0.98453   0.01581   0.00000  Uiso   1.00
N184   N     0.55148   0.67093   0.13278   0.00000  Uiso   1.00
