data_job_01226
_audit_creation_date              2018-12-19
_audit_creation_method            'Materials Studio'
_symmetry_space_group_name_H-M    'P1'
_symmetry_Int_Tables_number       1
_symmetry_cell_setting            triclinic
loop_
_symmetry_equiv_pos_as_xyz
  x,y,z
_cell_length_a                    22.9682
_cell_length_b                    9.1134
_cell_length_c                    36.1629
_cell_angle_alpha                 90.0000
_cell_angle_beta                  133.4120
_cell_angle_gamma                 90.0000
loop_
_atom_site_label
_atom_site_type_symbol
_atom_site_fract_x
_atom_site_fract_y
_atom_site_fract_z
_atom_site_U_iso_or_equiv
_atom_site_adp_type
_atom_site_occupancy
C1     C     0.52873   0.57819   0.36291   0.00000  Uiso   1.00
C2     C     0.45209   0.53138   0.30974   0.00000  Uiso   1.00
C3     C     0.41974   0.59765   0.26446   0.00000  Uiso   1.00
C4     C     0.34919   0.53846   0.21981   0.00000  Uiso   1.00
C5     C     0.23576   0.48424   0.13716   0.00000  Uiso   1.00
C6     C     0.50511   0.60739   0.39266   0.00000  Uiso   1.00
C7     C     0.51734   0.73756   0.41710   0.00000  Uiso   1.00
C8     C     0.49143   0.74235   0.44226   0.00000  Uiso   1.00
C9     C     0.46037   0.80610   0.48837   0.00000  Uiso   1.00
C10    C     0.58257   0.44301   0.38716   0.00000  Uiso   1.00
C11    C     0.65994   0.43497   0.40700   0.00000  Uiso   1.00
C12    C     0.69925   0.30136   0.42754   0.00000  Uiso   1.00
C13    C     0.78845   0.10989   0.46511   0.00000  Uiso   1.00
C14    C     0.46098   0.35522   0.36414   0.00000  Uiso   1.00
C15    C     0.41529   0.41027   0.31041   0.00000  Uiso   1.00
C16    C     0.34477   0.35096   0.26582   0.00000  Uiso   1.00
C17    C     0.31232   0.41713   0.22048   0.00000  Uiso   1.00
C18    C     0.46831   0.48629   0.39333   0.00000  Uiso   1.00
C19    C     0.44238   0.49087   0.41846   0.00000  Uiso   1.00
C20    C     0.45457   0.62102   0.44293   0.00000  Uiso   1.00
C21    C     0.54577   0.32189   0.38783   0.00000  Uiso   1.00
C22    C     0.58497   0.18828   0.40835   0.00000  Uiso   1.00
C23    C     0.66239   0.18003   0.42820   0.00000  Uiso   1.00
H24    H     0.55738   0.67248   0.36239   0.00000  Uiso   1.00
H25    H     0.44823   0.69138   0.26396   0.00000  Uiso   1.00
H26    H     0.54583   0.83126   0.41659   0.00000  Uiso   1.00
H27    H     0.68840   0.52871   0.40647   0.00000  Uiso   1.00
H28    H     0.31097   0.65896   0.15513   0.00000  Uiso   1.00
H29    H     0.51679   0.95389   0.47696   0.00000  Uiso   1.00
H30    H     0.81742   0.31591   0.45564   0.00000  Uiso   1.00
H31    H     0.43233   0.26093   0.36466   0.00000  Uiso   1.00
H32    H     0.31631   0.25724   0.26635   0.00000  Uiso   1.00
H33    H     0.41391   0.39713   0.41897   0.00000  Uiso   1.00
H34    H     0.55648   0.09458   0.40886   0.00000  Uiso   1.00
H35    H     0.20389   0.30660   0.15706   0.00000  Uiso   1.00
H36    H     0.40972   0.60153   0.47889   0.00000  Uiso   1.00
H37    H     0.71035   0.96355   0.45757   0.00000  Uiso   1.00
O38    O     0.18335   0.48781   0.09139   0.00000  Uiso   1.00
O39    O     0.45339   0.87474   0.51362   0.00000  Uiso   1.00
O40    O     0.84782   0.03773   0.48565   0.00000  Uiso   1.00
N41    N     0.30170   0.57652   0.16908   0.00000  Uiso   1.00
N42    N     0.49412   0.85227   0.46996   0.00000  Uiso   1.00
N43    N     0.77519   0.25583   0.45004   0.00000  Uiso   1.00
N44    N     0.24408   0.38691   0.17012   0.00000  Uiso   1.00
N45    N     0.43650   0.66267   0.47100   0.00000  Uiso   1.00
N46    N     0.71758   0.06622   0.45108   0.00000  Uiso   1.00
C47    C     0.02873   0.07819   0.36291   0.00000  Uiso   1.00
C48    C     0.95209   0.03138   0.30974   0.00000  Uiso   1.00
C49    C     0.91974   0.09765   0.26446   0.00000  Uiso   1.00
C50    C     0.84919   0.03846   0.21981   0.00000  Uiso   1.00
C51    C     0.73576   0.98424   0.13716   0.00000  Uiso   1.00
C52    C     0.00511   0.10739   0.39266   0.00000  Uiso   1.00
C53    C     0.01734   0.23756   0.41710   0.00000  Uiso   1.00
C54    C     0.99143   0.24235   0.44226   0.00000  Uiso   1.00
C55    C     0.96037   0.30610   0.48837   0.00000  Uiso   1.00
C56    C     0.08257   0.94301   0.38716   0.00000  Uiso   1.00
C57    C     0.15994   0.93497   0.40700   0.00000  Uiso   1.00
C58    C     0.19925   0.80136   0.42754   0.00000  Uiso   1.00
C59    C     0.28845   0.60989   0.46511   0.00000  Uiso   1.00
C60    C     0.96098   0.85522   0.36414   0.00000  Uiso   1.00
C61    C     0.91529   0.91027   0.31041   0.00000  Uiso   1.00
C62    C     0.84477   0.85096   0.26582   0.00000  Uiso   1.00
C63    C     0.81232   0.91713   0.22048   0.00000  Uiso   1.00
C64    C     0.96831   0.98629   0.39333   0.00000  Uiso   1.00
C65    C     0.94238   0.99087   0.41846   0.00000  Uiso   1.00
C66    C     0.95457   0.12102   0.44293   0.00000  Uiso   1.00
C67    C     0.04577   0.82189   0.38783   0.00000  Uiso   1.00
C68    C     0.08497   0.68828   0.40835   0.00000  Uiso   1.00
C69    C     0.16239   0.68003   0.42820   0.00000  Uiso   1.00
H70    H     0.05738   0.17248   0.36239   0.00000  Uiso   1.00
H71    H     0.94823   0.19138   0.26396   0.00000  Uiso   1.00
H72    H     0.04583   0.33126   0.41659   0.00000  Uiso   1.00
H73    H     0.18840   0.02871   0.40647   0.00000  Uiso   1.00
H74    H     0.81097   0.15896   0.15513   0.00000  Uiso   1.00
H75    H     0.01679   0.45389   0.47696   0.00000  Uiso   1.00
H76    H     0.31742   0.81591   0.45564   0.00000  Uiso   1.00
H77    H     0.93233   0.76093   0.36466   0.00000  Uiso   1.00
H78    H     0.81631   0.75724   0.26635   0.00000  Uiso   1.00
H79    H     0.91391   0.89713   0.41897   0.00000  Uiso   1.00
H80    H     0.05648   0.59458   0.40886   0.00000  Uiso   1.00
H81    H     0.70389   0.80660   0.15706   0.00000  Uiso   1.00
H82    H     0.90972   0.10153   0.47889   0.00000  Uiso   1.00
H83    H     0.21035   0.46355   0.45757   0.00000  Uiso   1.00
O84    O     0.68335   0.98781   0.09139   0.00000  Uiso   1.00
O85    O     0.95339   0.37474   0.51362   0.00000  Uiso   1.00
O86    O     0.34782   0.53773   0.48565   0.00000  Uiso   1.00
N87    N     0.80170   0.07652   0.16908   0.00000  Uiso   1.00
N88    N     0.99412   0.35227   0.46996   0.00000  Uiso   1.00
N89    N     0.27519   0.75583   0.45004   0.00000  Uiso   1.00
N90    N     0.74408   0.88691   0.17012   0.00000  Uiso   1.00
N91    N     0.93650   0.16267   0.47100   0.00000  Uiso   1.00
N92    N     0.21758   0.56622   0.45108   0.00000  Uiso   1.00
C93    C     0.47127   0.57819   0.13709   0.00000  Uiso   1.00
C94    C     0.54791   0.53138   0.19026   0.00000  Uiso   1.00
C95    C     0.58026   0.59765   0.23554   0.00000  Uiso   1.00
C96    C     0.65081   0.53846   0.28019   0.00000  Uiso   1.00
C97    C     0.76424   0.48424   0.36284   0.00000  Uiso   1.00
C98    C     0.49489   0.60739   0.10734   0.00000  Uiso   1.00
C99    C     0.48266   0.73756   0.08290   0.00000  Uiso   1.00
C100   C     0.50857   0.74235   0.05774   0.00000  Uiso   1.00
C101   C     0.53963   0.80610   0.01163   0.00000  Uiso   1.00
C102   C     0.41743   0.44301   0.11284   0.00000  Uiso   1.00
C103   C     0.34006   0.43497   0.09300   0.00000  Uiso   1.00
C104   C     0.30075   0.30136   0.07246   0.00000  Uiso   1.00
C105   C     0.21155   0.10989   0.03489   0.00000  Uiso   1.00
C106   C     0.53902   0.35522   0.13586   0.00000  Uiso   1.00
C107   C     0.58471   0.41027   0.18959   0.00000  Uiso   1.00
C108   C     0.65523   0.35096   0.23418   0.00000  Uiso   1.00
C109   C     0.68768   0.41713   0.27952   0.00000  Uiso   1.00
C110   C     0.53169   0.48629   0.10667   0.00000  Uiso   1.00
C111   C     0.55762   0.49087   0.08154   0.00000  Uiso   1.00
C112   C     0.54543   0.62102   0.05707   0.00000  Uiso   1.00
C113   C     0.45423   0.32189   0.11217   0.00000  Uiso   1.00
C114   C     0.41503   0.18828   0.09165   0.00000  Uiso   1.00
C115   C     0.33761   0.18003   0.07180   0.00000  Uiso   1.00
H116   H     0.44262   0.67248   0.13761   0.00000  Uiso   1.00
H117   H     0.55177   0.69138   0.23604   0.00000  Uiso   1.00
H118   H     0.45417   0.83126   0.08341   0.00000  Uiso   1.00
H119   H     0.31160   0.52871   0.09353   0.00000  Uiso   1.00
H120   H     0.68903   0.65896   0.34487   0.00000  Uiso   1.00
H121   H     0.48321   0.95389   0.02304   0.00000  Uiso   1.00
H122   H     0.18258   0.31591   0.04436   0.00000  Uiso   1.00
H123   H     0.56767   0.26093   0.13534   0.00000  Uiso   1.00
H124   H     0.68369   0.25724   0.23365   0.00000  Uiso   1.00
H125   H     0.58609   0.39713   0.08103   0.00000  Uiso   1.00
H126   H     0.44352   0.09458   0.09114   0.00000  Uiso   1.00
H127   H     0.79611   0.30660   0.34294   0.00000  Uiso   1.00
H128   H     0.59028   0.60153   0.02111   0.00000  Uiso   1.00
H129   H     0.28965   0.96355   0.04243   0.00000  Uiso   1.00
O130   O     0.81665   0.48781   0.40861   0.00000  Uiso   1.00
O131   O     0.54661   0.87474   0.98638   0.00000  Uiso   1.00
O132   O     0.15218   0.03773   0.01435   0.00000  Uiso   1.00
N133   N     0.69830   0.57652   0.33092   0.00000  Uiso   1.00
N134   N     0.50588   0.85227   0.03004   0.00000  Uiso   1.00
N135   N     0.22481   0.25583   0.04996   0.00000  Uiso   1.00
N136   N     0.75592   0.38691   0.32988   0.00000  Uiso   1.00
N137   N     0.56350   0.66267   0.02900   0.00000  Uiso   1.00
N138   N     0.28242   0.06622   0.04892   0.00000  Uiso   1.00
C139   C     0.97127   0.07819   0.13709   0.00000  Uiso   1.00
C140   C     0.04791   0.03138   0.19026   0.00000  Uiso   1.00
C141   C     0.08026   0.09765   0.23554   0.00000  Uiso   1.00
C142   C     0.15081   0.03846   0.28019   0.00000  Uiso   1.00
C143   C     0.26424   0.98424   0.36284   0.00000  Uiso   1.00
C144   C     0.99489   0.10739   0.10734   0.00000  Uiso   1.00
C145   C     0.98266   0.23756   0.08290   0.00000  Uiso   1.00
C146   C     0.00857   0.24235   0.05774   0.00000  Uiso   1.00
C147   C     0.03963   0.30610   0.01163   0.00000  Uiso   1.00
C148   C     0.91743   0.94301   0.11284   0.00000  Uiso   1.00
C149   C     0.84006   0.93497   0.09300   0.00000  Uiso   1.00
C150   C     0.80075   0.80136   0.07246   0.00000  Uiso   1.00
C151   C     0.71155   0.60989   0.03489   0.00000  Uiso   1.00
C152   C     0.03902   0.85522   0.13586   0.00000  Uiso   1.00
C153   C     0.08471   0.91027   0.18959   0.00000  Uiso   1.00
C154   C     0.15523   0.85096   0.23418   0.00000  Uiso   1.00
C155   C     0.18768   0.91713   0.27952   0.00000  Uiso   1.00
C156   C     0.03169   0.98629   0.10667   0.00000  Uiso   1.00
C157   C     0.05762   0.99087   0.08154   0.00000  Uiso   1.00
C158   C     0.04543   0.12102   0.05707   0.00000  Uiso   1.00
C159   C     0.95423   0.82189   0.11217   0.00000  Uiso   1.00
C160   C     0.91503   0.68828   0.09165   0.00000  Uiso   1.00
C161   C     0.83761   0.68003   0.07180   0.00000  Uiso   1.00
H162   H     0.94262   0.17248   0.13761   0.00000  Uiso   1.00
H163   H     0.05177   0.19138   0.23604   0.00000  Uiso   1.00
H164   H     0.95417   0.33126   0.08341   0.00000  Uiso   1.00
H165   H     0.81160   0.02871   0.09353   0.00000  Uiso   1.00
H166   H     0.18903   0.15896   0.34487   0.00000  Uiso   1.00
H167   H     0.98321   0.45389   0.02304   0.00000  Uiso   1.00
H168   H     0.68258   0.81591   0.04436   0.00000  Uiso   1.00
H169   H     0.06767   0.76093   0.13534   0.00000  Uiso   1.00
H170   H     0.18369   0.75724   0.23365   0.00000  Uiso   1.00
H171   H     0.08609   0.89713   0.08103   0.00000  Uiso   1.00
H172   H     0.94352   0.59458   0.09114   0.00000  Uiso   1.00
H173   H     0.29611   0.80660   0.34294   0.00000  Uiso   1.00
H174   H     0.09028   0.10153   0.02111   0.00000  Uiso   1.00
H175   H     0.78965   0.46355   0.04243   0.00000  Uiso   1.00
O176   O     0.31665   0.98781   0.40861   0.00000  Uiso   1.00
O177   O     0.04661   0.37474   0.98638   0.00000  Uiso   1.00
O178   O     0.65218   0.53773   0.01435   0.00000  Uiso   1.00
N179   N     0.19830   0.07652   0.33092   0.00000  Uiso   1.00
N180   N     0.00588   0.35227   0.03004   0.00000  Uiso   1.00
N181   N     0.72481   0.75583   0.04996   0.00000  Uiso   1.00
N182   N     0.25592   0.88691   0.32988   0.00000  Uiso   1.00
N183   N     0.06350   0.16267   0.02900   0.00000  Uiso   1.00
N184   N     0.78242   0.56622   0.04892   0.00000  Uiso   1.00
C185   C     0.47127   0.42181   0.63709   0.00000  Uiso   1.00
C186   C     0.54791   0.46862   0.69026   0.00000  Uiso   1.00
C187   C     0.58026   0.40235   0.73554   0.00000  Uiso   1.00
C188   C     0.65081   0.46154   0.78019   0.00000  Uiso   1.00
C189   C     0.76424   0.51576   0.86284   0.00000  Uiso   1.00
C190   C     0.49489   0.39261   0.60734   0.00000  Uiso   1.00
C191   C     0.48266   0.26244   0.58290   0.00000  Uiso   1.00
C192   C     0.50857   0.25765   0.55774   0.00000  Uiso   1.00
C193   C     0.53963   0.19390   0.51163   0.00000  Uiso   1.00
C194   C     0.41743   0.55699   0.61284   0.00000  Uiso   1.00
C195   C     0.34006   0.56503   0.59300   0.00000  Uiso   1.00
C196   C     0.30075   0.69864   0.57246   0.00000  Uiso   1.00
C197   C     0.21155   0.89011   0.53489   0.00000  Uiso   1.00
C198   C     0.53902   0.64478   0.63586   0.00000  Uiso   1.00
C199   C     0.58471   0.58973   0.68959   0.00000  Uiso   1.00
C200   C     0.65523   0.64904   0.73418   0.00000  Uiso   1.00
C201   C     0.68768   0.58287   0.77952   0.00000  Uiso   1.00
C202   C     0.53169   0.51371   0.60667   0.00000  Uiso   1.00
C203   C     0.55762   0.50913   0.58154   0.00000  Uiso   1.00
C204   C     0.54543   0.37898   0.55707   0.00000  Uiso   1.00
C205   C     0.45423   0.67811   0.61217   0.00000  Uiso   1.00
C206   C     0.41503   0.81172   0.59165   0.00000  Uiso   1.00
C207   C     0.33761   0.81997   0.57180   0.00000  Uiso   1.00
H208   H     0.44262   0.32752   0.63761   0.00000  Uiso   1.00
H209   H     0.55177   0.30862   0.73604   0.00000  Uiso   1.00
H210   H     0.45417   0.16874   0.58341   0.00000  Uiso   1.00
H211   H     0.31160   0.47129   0.59353   0.00000  Uiso   1.00
H212   H     0.68903   0.34104   0.84487   0.00000  Uiso   1.00
H213   H     0.48321   0.04611   0.52304   0.00000  Uiso   1.00
H214   H     0.18258   0.68409   0.54436   0.00000  Uiso   1.00
H215   H     0.56767   0.73907   0.63534   0.00000  Uiso   1.00
H216   H     0.68369   0.74276   0.73365   0.00000  Uiso   1.00
H217   H     0.58609   0.60287   0.58103   0.00000  Uiso   1.00
H218   H     0.44352   0.90542   0.59114   0.00000  Uiso   1.00
H219   H     0.79611   0.69340   0.84294   0.00000  Uiso   1.00
H220   H     0.59028   0.39847   0.52111   0.00000  Uiso   1.00
H221   H     0.28965   0.03645   0.54243   0.00000  Uiso   1.00
O222   O     0.81665   0.51219   0.90861   0.00000  Uiso   1.00
O223   O     0.54661   0.12526   0.48638   0.00000  Uiso   1.00
O224   O     0.15218   0.96227   0.51435   0.00000  Uiso   1.00
N225   N     0.69830   0.42348   0.83092   0.00000  Uiso   1.00
N226   N     0.50588   0.14773   0.53004   0.00000  Uiso   1.00
N227   N     0.22481   0.74417   0.54996   0.00000  Uiso   1.00
N228   N     0.75592   0.61309   0.82988   0.00000  Uiso   1.00
N229   N     0.56350   0.33733   0.52900   0.00000  Uiso   1.00
N230   N     0.28242   0.93378   0.54892   0.00000  Uiso   1.00
C231   C     0.97127   0.92181   0.63709   0.00000  Uiso   1.00
C232   C     0.04791   0.96862   0.69026   0.00000  Uiso   1.00
C233   C     0.08026   0.90235   0.73554   0.00000  Uiso   1.00
C234   C     0.15081   0.96154   0.78019   0.00000  Uiso   1.00
C235   C     0.26424   0.01576   0.86284   0.00000  Uiso   1.00
C236   C     0.99489   0.89261   0.60734   0.00000  Uiso   1.00
C237   C     0.98266   0.76244   0.58290   0.00000  Uiso   1.00
C238   C     0.00857   0.75765   0.55774   0.00000  Uiso   1.00
C239   C     0.03963   0.69390   0.51163   0.00000  Uiso   1.00
C240   C     0.91743   0.05699   0.61284   0.00000  Uiso   1.00
C241   C     0.84006   0.06503   0.59300   0.00000  Uiso   1.00
C242   C     0.80075   0.19864   0.57246   0.00000  Uiso   1.00
C243   C     0.71155   0.39011   0.53489   0.00000  Uiso   1.00
C244   C     0.03902   0.14478   0.63586   0.00000  Uiso   1.00
C245   C     0.08471   0.08973   0.68959   0.00000  Uiso   1.00
C246   C     0.15523   0.14904   0.73418   0.00000  Uiso   1.00
C247   C     0.18768   0.08287   0.77952   0.00000  Uiso   1.00
C248   C     0.03169   0.01371   0.60667   0.00000  Uiso   1.00
C249   C     0.05762   0.00913   0.58154   0.00000  Uiso   1.00
C250   C     0.04543   0.87898   0.55707   0.00000  Uiso   1.00
C251   C     0.95423   0.17811   0.61217   0.00000  Uiso   1.00
C252   C     0.91503   0.31172   0.59165   0.00000  Uiso   1.00
C253   C     0.83761   0.31997   0.57180   0.00000  Uiso   1.00
H254   H     0.94262   0.82752   0.63761   0.00000  Uiso   1.00
H255   H     0.05177   0.80862   0.73604   0.00000  Uiso   1.00
H256   H     0.95417   0.66874   0.58341   0.00000  Uiso   1.00
H257   H     0.81160   0.97129   0.59353   0.00000  Uiso   1.00
H258   H     0.18903   0.84104   0.84487   0.00000  Uiso   1.00
H259   H     0.98321   0.54611   0.52304   0.00000  Uiso   1.00
H260   H     0.68258   0.18409   0.54436   0.00000  Uiso   1.00
H261   H     0.06767   0.23907   0.63534   0.00000  Uiso   1.00
H262   H     0.18369   0.24276   0.73365   0.00000  Uiso   1.00
H263   H     0.08609   0.10287   0.58103   0.00000  Uiso   1.00
H264   H     0.94352   0.40542   0.59114   0.00000  Uiso   1.00
H265   H     0.29611   0.19340   0.84294   0.00000  Uiso   1.00
H266   H     0.09028   0.89847   0.52111   0.00000  Uiso   1.00
H267   H     0.78965   0.53645   0.54243   0.00000  Uiso   1.00
O268   O     0.31665   0.01219   0.90861   0.00000  Uiso   1.00
O269   O     0.04661   0.62526   0.48638   0.00000  Uiso   1.00
O270   O     0.65218   0.46227   0.51435   0.00000  Uiso   1.00
N271   N     0.19830   0.92348   0.83092   0.00000  Uiso   1.00
N272   N     0.00588   0.64773   0.53004   0.00000  Uiso   1.00
N273   N     0.72481   0.24417   0.54996   0.00000  Uiso   1.00
N274   N     0.25592   0.11309   0.82988   0.00000  Uiso   1.00
N275   N     0.06350   0.83733   0.52900   0.00000  Uiso   1.00
N276   N     0.78242   0.43378   0.54892   0.00000  Uiso   1.00
C277   C     0.52873   0.42181   0.86291   0.00000  Uiso   1.00
C278   C     0.45209   0.46862   0.80974   0.00000  Uiso   1.00
C279   C     0.41974   0.40235   0.76446   0.00000  Uiso   1.00
C280   C     0.34919   0.46154   0.71981   0.00000  Uiso   1.00
C281   C     0.23576   0.51576   0.63716   0.00000  Uiso   1.00
C282   C     0.50511   0.39261   0.89266   0.00000  Uiso   1.00
C283   C     0.51734   0.26244   0.91710   0.00000  Uiso   1.00
C284   C     0.49143   0.25765   0.94226   0.00000  Uiso   1.00
C285   C     0.46037   0.19390   0.98837   0.00000  Uiso   1.00
C286   C     0.58257   0.55699   0.88716   0.00000  Uiso   1.00
C287   C     0.65994   0.56503   0.90700   0.00000  Uiso   1.00
C288   C     0.69925   0.69864   0.92754   0.00000  Uiso   1.00
C289   C     0.78845   0.89011   0.96511   0.00000  Uiso   1.00
C290   C     0.46098   0.64478   0.86414   0.00000  Uiso   1.00
C291   C     0.41529   0.58973   0.81041   0.00000  Uiso   1.00
C292   C     0.34477   0.64904   0.76582   0.00000  Uiso   1.00
C293   C     0.31232   0.58287   0.72048   0.00000  Uiso   1.00
C294   C     0.46831   0.51371   0.89333   0.00000  Uiso   1.00
C295   C     0.44238   0.50913   0.91846   0.00000  Uiso   1.00
C296   C     0.45457   0.37898   0.94293   0.00000  Uiso   1.00
C297   C     0.54577   0.67811   0.88783   0.00000  Uiso   1.00
C298   C     0.58497   0.81172   0.90835   0.00000  Uiso   1.00
C299   C     0.66239   0.81997   0.92820   0.00000  Uiso   1.00
H300   H     0.55738   0.32752   0.86239   0.00000  Uiso   1.00
H301   H     0.44823   0.30862   0.76396   0.00000  Uiso   1.00
H302   H     0.54583   0.16874   0.91659   0.00000  Uiso   1.00
H303   H     0.68840   0.47129   0.90647   0.00000  Uiso   1.00
H304   H     0.31097   0.34104   0.65513   0.00000  Uiso   1.00
H305   H     0.51679   0.04611   0.97696   0.00000  Uiso   1.00
H306   H     0.81742   0.68409   0.95564   0.00000  Uiso   1.00
H307   H     0.43233   0.73907   0.86466   0.00000  Uiso   1.00
H308   H     0.31631   0.74276   0.76635   0.00000  Uiso   1.00
H309   H     0.41391   0.60287   0.91897   0.00000  Uiso   1.00
H310   H     0.55648   0.90542   0.90886   0.00000  Uiso   1.00
H311   H     0.20389   0.69340   0.65706   0.00000  Uiso   1.00
H312   H     0.40972   0.39847   0.97889   0.00000  Uiso   1.00
H313   H     0.71035   0.03645   0.95757   0.00000  Uiso   1.00
O314   O     0.18335   0.51219   0.59139   0.00000  Uiso   1.00
O315   O     0.45339   0.12526   0.01362   0.00000  Uiso   1.00
O316   O     0.84782   0.96227   0.98565   0.00000  Uiso   1.00
N317   N     0.30170   0.42348   0.66908   0.00000  Uiso   1.00
N318   N     0.49412   0.14773   0.96996   0.00000  Uiso   1.00
N319   N     0.77519   0.74417   0.95004   0.00000  Uiso   1.00
N320   N     0.24408   0.61309   0.67012   0.00000  Uiso   1.00
N321   N     0.43650   0.33733   0.97100   0.00000  Uiso   1.00
N322   N     0.71758   0.93378   0.95108   0.00000  Uiso   1.00
C323   C     0.02873   0.92181   0.86291   0.00000  Uiso   1.00
C324   C     0.95209   0.96862   0.80974   0.00000  Uiso   1.00
C325   C     0.91974   0.90235   0.76446   0.00000  Uiso   1.00
C326   C     0.84919   0.96154   0.71981   0.00000  Uiso   1.00
C327   C     0.73576   0.01576   0.63716   0.00000  Uiso   1.00
C328   C     0.00511   0.89261   0.89266   0.00000  Uiso   1.00
C329   C     0.01734   0.76244   0.91710   0.00000  Uiso   1.00
C330   C     0.99143   0.75765   0.94226   0.00000  Uiso   1.00
C331   C     0.96037   0.69390   0.98837   0.00000  Uiso   1.00
C332   C     0.08257   0.05699   0.88716   0.00000  Uiso   1.00
C333   C     0.15994   0.06503   0.90700   0.00000  Uiso   1.00
C334   C     0.19925   0.19864   0.92754   0.00000  Uiso   1.00
C335   C     0.28845   0.39011   0.96511   0.00000  Uiso   1.00
C336   C     0.96098   0.14478   0.86414   0.00000  Uiso   1.00
C337   C     0.91529   0.08973   0.81041   0.00000  Uiso   1.00
C338   C     0.84477   0.14904   0.76582   0.00000  Uiso   1.00
C339   C     0.81232   0.08287   0.72048   0.00000  Uiso   1.00
C340   C     0.96831   0.01371   0.89333   0.00000  Uiso   1.00
C341   C     0.94238   0.00913   0.91846   0.00000  Uiso   1.00
C342   C     0.95457   0.87898   0.94293   0.00000  Uiso   1.00
C343   C     0.04577   0.17811   0.88783   0.00000  Uiso   1.00
C344   C     0.08497   0.31172   0.90835   0.00000  Uiso   1.00
C345   C     0.16239   0.31997   0.92820   0.00000  Uiso   1.00
H346   H     0.05738   0.82752   0.86239   0.00000  Uiso   1.00
H347   H     0.94823   0.80862   0.76396   0.00000  Uiso   1.00
H348   H     0.04583   0.66874   0.91659   0.00000  Uiso   1.00
H349   H     0.18840   0.97129   0.90647   0.00000  Uiso   1.00
H350   H     0.81097   0.84104   0.65513   0.00000  Uiso   1.00
H351   H     0.01679   0.54611   0.97696   0.00000  Uiso   1.00
H352   H     0.31742   0.18409   0.95564   0.00000  Uiso   1.00
H353   H     0.93233   0.23907   0.86466   0.00000  Uiso   1.00
H354   H     0.81631   0.24276   0.76635   0.00000  Uiso   1.00
H355   H     0.91391   0.10287   0.91897   0.00000  Uiso   1.00
H356   H     0.05648   0.40542   0.90886   0.00000  Uiso   1.00
H357   H     0.70389   0.19340   0.65706   0.00000  Uiso   1.00
H358   H     0.90972   0.89847   0.97889   0.00000  Uiso   1.00
H359   H     0.21035   0.53645   0.95757   0.00000  Uiso   1.00
O360   O     0.68335   0.01219   0.59139   0.00000  Uiso   1.00
O361   O     0.95339   0.62526   0.01362   0.00000  Uiso   1.00
O362   O     0.34782   0.46227   0.98565   0.00000  Uiso   1.00
N363   N     0.80170   0.92348   0.66908   0.00000  Uiso   1.00
N364   N     0.99412   0.64773   0.96996   0.00000  Uiso   1.00
N365   N     0.27519   0.24417   0.95004   0.00000  Uiso   1.00
N366   N     0.74408   0.11309   0.67012   0.00000  Uiso   1.00
N367   N     0.93650   0.83733   0.97100   0.00000  Uiso   1.00
N368   N     0.21758   0.43378   0.95108   0.00000  Uiso   1.00
