data_job_03227
_audit_creation_date              2018-12-19
_audit_creation_method            'Materials Studio'
_symmetry_space_group_name_H-M    'P1'
_symmetry_Int_Tables_number       1
_symmetry_cell_setting            triclinic
loop_
_symmetry_equiv_pos_as_xyz
  x,y,z
_cell_length_a                    20.1995
_cell_length_b                    12.8980
_cell_length_c                    27.4491
_cell_angle_alpha                 90.0000
_cell_angle_beta                  90.0000
_cell_angle_gamma                 90.0000
loop_
_atom_site_label
_atom_site_type_symbol
_atom_site_fract_x
_atom_site_fract_y
_atom_site_fract_z
_atom_site_U_iso_or_equiv
_atom_site_adp_type
_atom_site_occupancy
C1     C     0.89141   0.38730   0.59189   0.00000  Uiso   1.00
C2     C     0.85991   0.28762   0.57305   0.00000  Uiso   1.00
C3     C     0.83251   0.27363   0.52715   0.00000  Uiso   1.00
C4     C     0.80615   0.17663   0.51692   0.00000  Uiso   1.00
C5     C     0.75704   0.03406   0.48242   0.00000  Uiso   1.00
C6     C     0.85423   0.41498   0.63846   0.00000  Uiso   1.00
C7     C     0.82207   0.50808   0.64756   0.00000  Uiso   1.00
C8     C     0.79093   0.51829   0.69240   0.00000  Uiso   1.00
C9     C     0.73305   0.57347   0.75947   0.00000  Uiso   1.00
C10    C     0.96139   0.35830   0.60766   0.00000  Uiso   1.00
C11    C     0.01934   0.40375   0.59087   0.00000  Uiso   1.00
C12    C     0.07843   0.36626   0.60979   0.00000  Uiso   1.00
C13    C     0.18693   0.33343   0.62903   0.00000  Uiso   1.00
C14    C     0.89330   0.23993   0.65534   0.00000  Uiso   1.00
C15    C     0.86093   0.20758   0.60751   0.00000  Uiso   1.00
C16    C     0.83460   0.11058   0.59735   0.00000  Uiso   1.00
C17    C     0.80718   0.09644   0.55144   0.00000  Uiso   1.00
C18    C     0.85525   0.33494   0.67292   0.00000  Uiso   1.00
C19    C     0.82416   0.34503   0.71776   0.00000  Uiso   1.00
C20    C     0.79196   0.43810   0.72692   0.00000  Uiso   1.00
C21    C     0.96242   0.27825   0.64212   0.00000  Uiso   1.00
C22    C     0.02143   0.24069   0.66107   0.00000  Uiso   1.00
C23    C     0.07945   0.28607   0.64431   0.00000  Uiso   1.00
H24    H     0.89061   0.44962   0.56507   0.00000  Uiso   1.00
H25    H     0.83172   0.33560   0.50049   0.00000  Uiso   1.00
H26    H     0.82129   0.57001   0.62089   0.00000  Uiso   1.00
H27    H     0.01852   0.46569   0.56420   0.00000  Uiso   1.00
H28    H     0.76687   0.17389   0.44410   0.00000  Uiso   1.00
H29    H     0.74488   0.66818   0.69797   0.00000  Uiso   1.00
H30    H     0.16080   0.44821   0.57844   0.00000  Uiso   1.00
H31    H     0.89410   0.17761   0.68217   0.00000  Uiso   1.00
H32    H     0.83540   0.04865   0.62402   0.00000  Uiso   1.00
H33    H     0.82497   0.28307   0.74442   0.00000  Uiso   1.00
H34    H     0.02220   0.17875   0.68773   0.00000  Uiso   1.00
H35    H     0.76985   0.94100   0.54437   0.00000  Uiso   1.00
H36    H     0.74787   0.43529   0.79823   0.00000  Uiso   1.00
H37    H     0.16378   0.21531   0.67871   0.00000  Uiso   1.00
O38    O     0.72966   0.97753   0.45388   0.00000  Uiso   1.00
O39    O     0.70083   0.62602   0.78694   0.00000  Uiso   1.00
O40    O     0.24650   0.33742   0.63012   0.00000  Uiso   1.00
N41    N     0.77564   0.13677   0.47568   0.00000  Uiso   1.00
N42    N     0.75507   0.59889   0.71302   0.00000  Uiso   1.00
N43    N     0.14392   0.39326   0.60129   0.00000  Uiso   1.00
N44    N     0.77724   0.01145   0.52963   0.00000  Uiso   1.00
N45    N     0.75668   0.47357   0.76697   0.00000  Uiso   1.00
N46    N     0.14552   0.26794   0.65524   0.00000  Uiso   1.00
C47    C     0.60859   0.11270   0.09189   0.00000  Uiso   1.00
C48    C     0.64009   0.21238   0.07305   0.00000  Uiso   1.00
C49    C     0.66749   0.22637   0.02715   0.00000  Uiso   1.00
C50    C     0.69385   0.32337   0.01692   0.00000  Uiso   1.00
C51    C     0.74296   0.46594   0.98242   0.00000  Uiso   1.00
C52    C     0.64577   0.08502   0.13846   0.00000  Uiso   1.00
C53    C     0.67793   0.99192   0.14756   0.00000  Uiso   1.00
C54    C     0.70907   0.98171   0.19240   0.00000  Uiso   1.00
C55    C     0.76695   0.92653   0.25947   0.00000  Uiso   1.00
C56    C     0.53861   0.14170   0.10766   0.00000  Uiso   1.00
C57    C     0.48066   0.09625   0.09087   0.00000  Uiso   1.00
C58    C     0.42157   0.13374   0.10979   0.00000  Uiso   1.00
C59    C     0.31307   0.16657   0.12903   0.00000  Uiso   1.00
C60    C     0.60670   0.26007   0.15534   0.00000  Uiso   1.00
C61    C     0.63907   0.29242   0.10751   0.00000  Uiso   1.00
C62    C     0.66540   0.38942   0.09735   0.00000  Uiso   1.00
C63    C     0.69282   0.40356   0.05144   0.00000  Uiso   1.00
C64    C     0.64475   0.16506   0.17292   0.00000  Uiso   1.00
C65    C     0.67584   0.15497   0.21776   0.00000  Uiso   1.00
C66    C     0.70804   0.06190   0.22692   0.00000  Uiso   1.00
C67    C     0.53758   0.22175   0.14212   0.00000  Uiso   1.00
C68    C     0.47857   0.25931   0.16107   0.00000  Uiso   1.00
C69    C     0.42055   0.21393   0.14431   0.00000  Uiso   1.00
H70    H     0.60939   0.05038   0.06507   0.00000  Uiso   1.00
H71    H     0.66828   0.16440   0.00049   0.00000  Uiso   1.00
H72    H     0.67871   0.92999   0.12089   0.00000  Uiso   1.00
H73    H     0.48148   0.03431   0.06420   0.00000  Uiso   1.00
H74    H     0.73313   0.32611   0.94410   0.00000  Uiso   1.00
H75    H     0.75512   0.83182   0.19797   0.00000  Uiso   1.00
H76    H     0.33920   0.05179   0.07844   0.00000  Uiso   1.00
H77    H     0.60590   0.32239   0.18217   0.00000  Uiso   1.00
H78    H     0.66460   0.45135   0.12402   0.00000  Uiso   1.00
H79    H     0.67503   0.21693   0.24442   0.00000  Uiso   1.00
H80    H     0.47780   0.32125   0.18773   0.00000  Uiso   1.00
H81    H     0.73015   0.55900   0.04437   0.00000  Uiso   1.00
H82    H     0.75213   0.06471   0.29823   0.00000  Uiso   1.00
H83    H     0.33622   0.28469   0.17871   0.00000  Uiso   1.00
O84    O     0.77034   0.52247   0.95388   0.00000  Uiso   1.00
O85    O     0.79917   0.87398   0.28694   0.00000  Uiso   1.00
O86    O     0.25350   0.16258   0.13012   0.00000  Uiso   1.00
N87    N     0.72436   0.36323   0.97568   0.00000  Uiso   1.00
N88    N     0.74493   0.90111   0.21302   0.00000  Uiso   1.00
N89    N     0.35608   0.10674   0.10129   0.00000  Uiso   1.00
N90    N     0.72276   0.48855   0.02963   0.00000  Uiso   1.00
N91    N     0.74332   0.02643   0.26697   0.00000  Uiso   1.00
N92    N     0.35448   0.23206   0.15524   0.00000  Uiso   1.00
C93    C     0.10859   0.38730   0.90811   0.00000  Uiso   1.00
C94    C     0.14009   0.28762   0.92695   0.00000  Uiso   1.00
C95    C     0.16749   0.27363   0.97285   0.00000  Uiso   1.00
C96    C     0.19385   0.17663   0.98308   0.00000  Uiso   1.00
C97    C     0.24296   0.03406   0.01758   0.00000  Uiso   1.00
C98    C     0.14577   0.41498   0.86154   0.00000  Uiso   1.00
C99    C     0.17793   0.50808   0.85244   0.00000  Uiso   1.00
C100   C     0.20907   0.51829   0.80760   0.00000  Uiso   1.00
C101   C     0.26695   0.57347   0.74053   0.00000  Uiso   1.00
C102   C     0.03861   0.35830   0.89234   0.00000  Uiso   1.00
C103   C     0.98066   0.40375   0.90913   0.00000  Uiso   1.00
C104   C     0.92157   0.36626   0.89021   0.00000  Uiso   1.00
C105   C     0.81307   0.33343   0.87097   0.00000  Uiso   1.00
C106   C     0.10670   0.23993   0.84466   0.00000  Uiso   1.00
C107   C     0.13907   0.20758   0.89249   0.00000  Uiso   1.00
C108   C     0.16540   0.11058   0.90265   0.00000  Uiso   1.00
C109   C     0.19282   0.09644   0.94856   0.00000  Uiso   1.00
C110   C     0.14475   0.33494   0.82708   0.00000  Uiso   1.00
C111   C     0.17584   0.34503   0.78224   0.00000  Uiso   1.00
C112   C     0.20804   0.43810   0.77308   0.00000  Uiso   1.00
C113   C     0.03758   0.27825   0.85788   0.00000  Uiso   1.00
C114   C     0.97857   0.24069   0.83893   0.00000  Uiso   1.00
C115   C     0.92055   0.28607   0.85569   0.00000  Uiso   1.00
H116   H     0.10939   0.44962   0.93493   0.00000  Uiso   1.00
H117   H     0.16828   0.33560   0.99951   0.00000  Uiso   1.00
H118   H     0.17871   0.57001   0.87911   0.00000  Uiso   1.00
H119   H     0.98148   0.46569   0.93580   0.00000  Uiso   1.00
H120   H     0.23313   0.17389   0.05590   0.00000  Uiso   1.00
H121   H     0.25512   0.66818   0.80203   0.00000  Uiso   1.00
H122   H     0.83920   0.44821   0.92156   0.00000  Uiso   1.00
H123   H     0.10590   0.17761   0.81783   0.00000  Uiso   1.00
H124   H     0.16460   0.04865   0.87598   0.00000  Uiso   1.00
H125   H     0.17503   0.28307   0.75558   0.00000  Uiso   1.00
H126   H     0.97780   0.17875   0.81227   0.00000  Uiso   1.00
H127   H     0.23015   0.94100   0.95563   0.00000  Uiso   1.00
H128   H     0.25213   0.43529   0.70177   0.00000  Uiso   1.00
H129   H     0.83622   0.21531   0.82129   0.00000  Uiso   1.00
O130   O     0.27034   0.97753   0.04612   0.00000  Uiso   1.00
O131   O     0.29917   0.62602   0.71306   0.00000  Uiso   1.00
O132   O     0.75350   0.33742   0.86988   0.00000  Uiso   1.00
N133   N     0.22436   0.13677   0.02432   0.00000  Uiso   1.00
N134   N     0.24493   0.59889   0.78698   0.00000  Uiso   1.00
N135   N     0.85608   0.39326   0.89871   0.00000  Uiso   1.00
N136   N     0.22276   0.01145   0.97037   0.00000  Uiso   1.00
N137   N     0.24332   0.47357   0.73303   0.00000  Uiso   1.00
N138   N     0.85448   0.26794   0.84476   0.00000  Uiso   1.00
C139   C     0.39141   0.11270   0.40811   0.00000  Uiso   1.00
C140   C     0.35991   0.21238   0.42695   0.00000  Uiso   1.00
C141   C     0.33251   0.22637   0.47285   0.00000  Uiso   1.00
C142   C     0.30615   0.32337   0.48308   0.00000  Uiso   1.00
C143   C     0.25704   0.46594   0.51758   0.00000  Uiso   1.00
C144   C     0.35423   0.08502   0.36154   0.00000  Uiso   1.00
C145   C     0.32207   0.99192   0.35244   0.00000  Uiso   1.00
C146   C     0.29093   0.98171   0.30760   0.00000  Uiso   1.00
C147   C     0.23305   0.92653   0.24053   0.00000  Uiso   1.00
C148   C     0.46139   0.14170   0.39234   0.00000  Uiso   1.00
C149   C     0.51934   0.09625   0.40913   0.00000  Uiso   1.00
C150   C     0.57843   0.13374   0.39021   0.00000  Uiso   1.00
C151   C     0.68693   0.16657   0.37097   0.00000  Uiso   1.00
C152   C     0.39330   0.26007   0.34466   0.00000  Uiso   1.00
C153   C     0.36093   0.29242   0.39249   0.00000  Uiso   1.00
C154   C     0.33460   0.38942   0.40265   0.00000  Uiso   1.00
C155   C     0.30718   0.40356   0.44856   0.00000  Uiso   1.00
C156   C     0.35525   0.16506   0.32708   0.00000  Uiso   1.00
C157   C     0.32416   0.15497   0.28224   0.00000  Uiso   1.00
C158   C     0.29196   0.06190   0.27308   0.00000  Uiso   1.00
C159   C     0.46242   0.22175   0.35788   0.00000  Uiso   1.00
C160   C     0.52143   0.25931   0.33893   0.00000  Uiso   1.00
C161   C     0.57945   0.21393   0.35569   0.00000  Uiso   1.00
H162   H     0.39061   0.05038   0.43493   0.00000  Uiso   1.00
H163   H     0.33172   0.16440   0.49951   0.00000  Uiso   1.00
H164   H     0.32129   0.92999   0.37911   0.00000  Uiso   1.00
H165   H     0.51852   0.03431   0.43580   0.00000  Uiso   1.00
H166   H     0.26687   0.32611   0.55590   0.00000  Uiso   1.00
H167   H     0.24488   0.83182   0.30203   0.00000  Uiso   1.00
H168   H     0.66080   0.05179   0.42156   0.00000  Uiso   1.00
H169   H     0.39410   0.32239   0.31783   0.00000  Uiso   1.00
H170   H     0.33540   0.45135   0.37598   0.00000  Uiso   1.00
H171   H     0.32497   0.21693   0.25558   0.00000  Uiso   1.00
H172   H     0.52220   0.32125   0.31227   0.00000  Uiso   1.00
H173   H     0.26985   0.55900   0.45563   0.00000  Uiso   1.00
H174   H     0.24787   0.06471   0.20177   0.00000  Uiso   1.00
H175   H     0.66378   0.28469   0.32129   0.00000  Uiso   1.00
O176   O     0.22966   0.52247   0.54612   0.00000  Uiso   1.00
O177   O     0.20083   0.87398   0.21306   0.00000  Uiso   1.00
O178   O     0.74650   0.16258   0.36988   0.00000  Uiso   1.00
N179   N     0.27564   0.36323   0.52432   0.00000  Uiso   1.00
N180   N     0.25507   0.90111   0.28698   0.00000  Uiso   1.00
N181   N     0.64392   0.10674   0.39871   0.00000  Uiso   1.00
N182   N     0.27724   0.48855   0.47037   0.00000  Uiso   1.00
N183   N     0.25668   0.02643   0.23303   0.00000  Uiso   1.00
N184   N     0.64552   0.23206   0.34476   0.00000  Uiso   1.00
C185   C     0.10859   0.61270   0.40811   0.00000  Uiso   1.00
C186   C     0.14009   0.71238   0.42695   0.00000  Uiso   1.00
C187   C     0.16749   0.72637   0.47285   0.00000  Uiso   1.00
C188   C     0.19385   0.82337   0.48308   0.00000  Uiso   1.00
C189   C     0.24296   0.96594   0.51758   0.00000  Uiso   1.00
C190   C     0.14577   0.58502   0.36154   0.00000  Uiso   1.00
C191   C     0.17793   0.49192   0.35244   0.00000  Uiso   1.00
C192   C     0.20907   0.48171   0.30760   0.00000  Uiso   1.00
C193   C     0.26695   0.42653   0.24053   0.00000  Uiso   1.00
C194   C     0.03861   0.64170   0.39234   0.00000  Uiso   1.00
C195   C     0.98066   0.59625   0.40913   0.00000  Uiso   1.00
C196   C     0.92157   0.63374   0.39021   0.00000  Uiso   1.00
C197   C     0.81307   0.66657   0.37097   0.00000  Uiso   1.00
C198   C     0.10670   0.76007   0.34466   0.00000  Uiso   1.00
C199   C     0.13907   0.79242   0.39249   0.00000  Uiso   1.00
C200   C     0.16540   0.88942   0.40265   0.00000  Uiso   1.00
C201   C     0.19282   0.90356   0.44856   0.00000  Uiso   1.00
C202   C     0.14475   0.66506   0.32708   0.00000  Uiso   1.00
C203   C     0.17584   0.65497   0.28224   0.00000  Uiso   1.00
C204   C     0.20804   0.56190   0.27308   0.00000  Uiso   1.00
C205   C     0.03758   0.72175   0.35788   0.00000  Uiso   1.00
C206   C     0.97857   0.75931   0.33893   0.00000  Uiso   1.00
C207   C     0.92055   0.71393   0.35569   0.00000  Uiso   1.00
H208   H     0.10939   0.55038   0.43493   0.00000  Uiso   1.00
H209   H     0.16828   0.66440   0.49951   0.00000  Uiso   1.00
H210   H     0.17871   0.42999   0.37911   0.00000  Uiso   1.00
H211   H     0.98148   0.53431   0.43580   0.00000  Uiso   1.00
H212   H     0.23313   0.82611   0.55590   0.00000  Uiso   1.00
H213   H     0.25512   0.33182   0.30203   0.00000  Uiso   1.00
H214   H     0.83920   0.55179   0.42156   0.00000  Uiso   1.00
H215   H     0.10590   0.82239   0.31783   0.00000  Uiso   1.00
H216   H     0.16460   0.95135   0.37598   0.00000  Uiso   1.00
H217   H     0.17503   0.71693   0.25558   0.00000  Uiso   1.00
H218   H     0.97780   0.82125   0.31227   0.00000  Uiso   1.00
H219   H     0.23015   0.05900   0.45563   0.00000  Uiso   1.00
H220   H     0.25213   0.56471   0.20177   0.00000  Uiso   1.00
H221   H     0.83622   0.78469   0.32129   0.00000  Uiso   1.00
O222   O     0.27034   0.02247   0.54612   0.00000  Uiso   1.00
O223   O     0.29917   0.37398   0.21306   0.00000  Uiso   1.00
O224   O     0.75350   0.66258   0.36988   0.00000  Uiso   1.00
N225   N     0.22436   0.86323   0.52432   0.00000  Uiso   1.00
N226   N     0.24493   0.40111   0.28698   0.00000  Uiso   1.00
N227   N     0.85608   0.60674   0.39871   0.00000  Uiso   1.00
N228   N     0.22276   0.98855   0.47037   0.00000  Uiso   1.00
N229   N     0.24332   0.52643   0.23303   0.00000  Uiso   1.00
N230   N     0.85448   0.73206   0.34476   0.00000  Uiso   1.00
C231   C     0.39141   0.88730   0.90811   0.00000  Uiso   1.00
C232   C     0.35991   0.78762   0.92695   0.00000  Uiso   1.00
C233   C     0.33251   0.77363   0.97285   0.00000  Uiso   1.00
C234   C     0.30615   0.67663   0.98308   0.00000  Uiso   1.00
C235   C     0.25704   0.53406   0.01758   0.00000  Uiso   1.00
C236   C     0.35423   0.91498   0.86154   0.00000  Uiso   1.00
C237   C     0.32207   0.00808   0.85244   0.00000  Uiso   1.00
C238   C     0.29093   0.01829   0.80760   0.00000  Uiso   1.00
C239   C     0.23305   0.07347   0.74053   0.00000  Uiso   1.00
C240   C     0.46139   0.85830   0.89234   0.00000  Uiso   1.00
C241   C     0.51934   0.90375   0.90913   0.00000  Uiso   1.00
C242   C     0.57843   0.86626   0.89021   0.00000  Uiso   1.00
C243   C     0.68693   0.83343   0.87097   0.00000  Uiso   1.00
C244   C     0.39330   0.73993   0.84466   0.00000  Uiso   1.00
C245   C     0.36093   0.70758   0.89249   0.00000  Uiso   1.00
C246   C     0.33460   0.61058   0.90265   0.00000  Uiso   1.00
C247   C     0.30718   0.59644   0.94856   0.00000  Uiso   1.00
C248   C     0.35525   0.83494   0.82708   0.00000  Uiso   1.00
C249   C     0.32416   0.84503   0.78224   0.00000  Uiso   1.00
C250   C     0.29196   0.93810   0.77308   0.00000  Uiso   1.00
C251   C     0.46242   0.77825   0.85788   0.00000  Uiso   1.00
C252   C     0.52143   0.74069   0.83893   0.00000  Uiso   1.00
C253   C     0.57945   0.78607   0.85569   0.00000  Uiso   1.00
H254   H     0.39061   0.94962   0.93493   0.00000  Uiso   1.00
H255   H     0.33172   0.83560   0.99951   0.00000  Uiso   1.00
H256   H     0.32129   0.07001   0.87911   0.00000  Uiso   1.00
H257   H     0.51852   0.96569   0.93580   0.00000  Uiso   1.00
H258   H     0.26687   0.67389   0.05590   0.00000  Uiso   1.00
H259   H     0.24488   0.16818   0.80203   0.00000  Uiso   1.00
H260   H     0.66080   0.94821   0.92156   0.00000  Uiso   1.00
H261   H     0.39410   0.67761   0.81783   0.00000  Uiso   1.00
H262   H     0.33540   0.54865   0.87598   0.00000  Uiso   1.00
H263   H     0.32497   0.78307   0.75558   0.00000  Uiso   1.00
H264   H     0.52220   0.67875   0.81227   0.00000  Uiso   1.00
H265   H     0.26985   0.44100   0.95563   0.00000  Uiso   1.00
H266   H     0.24787   0.93529   0.70177   0.00000  Uiso   1.00
H267   H     0.66378   0.71531   0.82129   0.00000  Uiso   1.00
O268   O     0.22966   0.47753   0.04612   0.00000  Uiso   1.00
O269   O     0.20083   0.12602   0.71306   0.00000  Uiso   1.00
O270   O     0.74650   0.83742   0.86988   0.00000  Uiso   1.00
N271   N     0.27564   0.63677   0.02432   0.00000  Uiso   1.00
N272   N     0.25507   0.09889   0.78698   0.00000  Uiso   1.00
N273   N     0.64392   0.89326   0.89871   0.00000  Uiso   1.00
N274   N     0.27724   0.51145   0.97037   0.00000  Uiso   1.00
N275   N     0.25668   0.97357   0.73303   0.00000  Uiso   1.00
N276   N     0.64552   0.76794   0.84476   0.00000  Uiso   1.00
C277   C     0.89141   0.61270   0.09189   0.00000  Uiso   1.00
C278   C     0.85991   0.71238   0.07305   0.00000  Uiso   1.00
C279   C     0.83251   0.72637   0.02715   0.00000  Uiso   1.00
C280   C     0.80615   0.82337   0.01692   0.00000  Uiso   1.00
C281   C     0.75704   0.96594   0.98242   0.00000  Uiso   1.00
C282   C     0.85423   0.58502   0.13846   0.00000  Uiso   1.00
C283   C     0.82207   0.49192   0.14756   0.00000  Uiso   1.00
C284   C     0.79093   0.48171   0.19240   0.00000  Uiso   1.00
C285   C     0.73305   0.42653   0.25947   0.00000  Uiso   1.00
C286   C     0.96139   0.64170   0.10766   0.00000  Uiso   1.00
C287   C     0.01934   0.59625   0.09087   0.00000  Uiso   1.00
C288   C     0.07843   0.63374   0.10979   0.00000  Uiso   1.00
C289   C     0.18693   0.66657   0.12903   0.00000  Uiso   1.00
C290   C     0.89330   0.76007   0.15534   0.00000  Uiso   1.00
C291   C     0.86093   0.79242   0.10751   0.00000  Uiso   1.00
C292   C     0.83460   0.88942   0.09735   0.00000  Uiso   1.00
C293   C     0.80718   0.90356   0.05144   0.00000  Uiso   1.00
C294   C     0.85525   0.66506   0.17292   0.00000  Uiso   1.00
C295   C     0.82416   0.65497   0.21776   0.00000  Uiso   1.00
C296   C     0.79196   0.56190   0.22692   0.00000  Uiso   1.00
C297   C     0.96242   0.72175   0.14212   0.00000  Uiso   1.00
C298   C     0.02143   0.75931   0.16107   0.00000  Uiso   1.00
C299   C     0.07945   0.71393   0.14431   0.00000  Uiso   1.00
H300   H     0.89061   0.55038   0.06507   0.00000  Uiso   1.00
H301   H     0.83172   0.66440   0.00049   0.00000  Uiso   1.00
H302   H     0.82129   0.42999   0.12089   0.00000  Uiso   1.00
H303   H     0.01852   0.53431   0.06420   0.00000  Uiso   1.00
H304   H     0.76687   0.82611   0.94410   0.00000  Uiso   1.00
H305   H     0.74488   0.33182   0.19797   0.00000  Uiso   1.00
H306   H     0.16080   0.55179   0.07844   0.00000  Uiso   1.00
H307   H     0.89410   0.82239   0.18217   0.00000  Uiso   1.00
H308   H     0.83540   0.95135   0.12402   0.00000  Uiso   1.00
H309   H     0.82497   0.71693   0.24442   0.00000  Uiso   1.00
H310   H     0.02220   0.82125   0.18773   0.00000  Uiso   1.00
H311   H     0.76985   0.05900   0.04437   0.00000  Uiso   1.00
H312   H     0.74787   0.56471   0.29823   0.00000  Uiso   1.00
H313   H     0.16378   0.78469   0.17871   0.00000  Uiso   1.00
O314   O     0.72966   0.02247   0.95388   0.00000  Uiso   1.00
O315   O     0.70083   0.37398   0.28694   0.00000  Uiso   1.00
O316   O     0.24650   0.66258   0.13012   0.00000  Uiso   1.00
N317   N     0.77564   0.86323   0.97568   0.00000  Uiso   1.00
N318   N     0.75507   0.40111   0.21302   0.00000  Uiso   1.00
N319   N     0.14392   0.60674   0.10129   0.00000  Uiso   1.00
N320   N     0.77724   0.98855   0.02963   0.00000  Uiso   1.00
N321   N     0.75668   0.52643   0.26697   0.00000  Uiso   1.00
N322   N     0.14552   0.73206   0.15524   0.00000  Uiso   1.00
C323   C     0.60859   0.88730   0.59189   0.00000  Uiso   1.00
C324   C     0.64009   0.78762   0.57305   0.00000  Uiso   1.00
C325   C     0.66749   0.77363   0.52715   0.00000  Uiso   1.00
C326   C     0.69385   0.67663   0.51692   0.00000  Uiso   1.00
C327   C     0.74296   0.53406   0.48242   0.00000  Uiso   1.00
C328   C     0.64577   0.91498   0.63846   0.00000  Uiso   1.00
C329   C     0.67793   0.00808   0.64756   0.00000  Uiso   1.00
C330   C     0.70907   0.01829   0.69240   0.00000  Uiso   1.00
C331   C     0.76695   0.07347   0.75947   0.00000  Uiso   1.00
C332   C     0.53861   0.85830   0.60766   0.00000  Uiso   1.00
C333   C     0.48066   0.90375   0.59087   0.00000  Uiso   1.00
C334   C     0.42157   0.86626   0.60979   0.00000  Uiso   1.00
C335   C     0.31307   0.83343   0.62903   0.00000  Uiso   1.00
C336   C     0.60670   0.73993   0.65534   0.00000  Uiso   1.00
C337   C     0.63907   0.70758   0.60751   0.00000  Uiso   1.00
C338   C     0.66540   0.61058   0.59735   0.00000  Uiso   1.00
C339   C     0.69282   0.59644   0.55144   0.00000  Uiso   1.00
C340   C     0.64475   0.83494   0.67292   0.00000  Uiso   1.00
C341   C     0.67584   0.84503   0.71776   0.00000  Uiso   1.00
C342   C     0.70804   0.93810   0.72692   0.00000  Uiso   1.00
C343   C     0.53758   0.77825   0.64212   0.00000  Uiso   1.00
C344   C     0.47857   0.74069   0.66107   0.00000  Uiso   1.00
C345   C     0.42055   0.78607   0.64431   0.00000  Uiso   1.00
H346   H     0.60939   0.94962   0.56507   0.00000  Uiso   1.00
H347   H     0.66828   0.83560   0.50049   0.00000  Uiso   1.00
H348   H     0.67871   0.07001   0.62089   0.00000  Uiso   1.00
H349   H     0.48148   0.96569   0.56420   0.00000  Uiso   1.00
H350   H     0.73313   0.67389   0.44410   0.00000  Uiso   1.00
H351   H     0.75512   0.16818   0.69797   0.00000  Uiso   1.00
H352   H     0.33920   0.94821   0.57844   0.00000  Uiso   1.00
H353   H     0.60590   0.67761   0.68217   0.00000  Uiso   1.00
H354   H     0.66460   0.54865   0.62402   0.00000  Uiso   1.00
H355   H     0.67503   0.78307   0.74442   0.00000  Uiso   1.00
H356   H     0.47780   0.67875   0.68773   0.00000  Uiso   1.00
H357   H     0.73015   0.44100   0.54437   0.00000  Uiso   1.00
H358   H     0.75213   0.93529   0.79823   0.00000  Uiso   1.00
H359   H     0.33622   0.71531   0.67871   0.00000  Uiso   1.00
O360   O     0.77034   0.47753   0.45388   0.00000  Uiso   1.00
O361   O     0.79917   0.12602   0.78694   0.00000  Uiso   1.00
O362   O     0.25350   0.83742   0.63012   0.00000  Uiso   1.00
N363   N     0.72436   0.63677   0.47568   0.00000  Uiso   1.00
N364   N     0.74493   0.09889   0.71302   0.00000  Uiso   1.00
N365   N     0.35608   0.89326   0.60129   0.00000  Uiso   1.00
N366   N     0.72276   0.51145   0.52963   0.00000  Uiso   1.00
N367   N     0.74332   0.97357   0.76697   0.00000  Uiso   1.00
N368   N     0.35448   0.76794   0.65524   0.00000  Uiso   1.00
