data_job_01291
_audit_creation_date              2018-12-19
_audit_creation_method            'Materials Studio'
_symmetry_space_group_name_H-M    'P1'
_symmetry_Int_Tables_number       1
_symmetry_cell_setting            triclinic
loop_
_symmetry_equiv_pos_as_xyz
  x,y,z
_cell_length_a                    20.4023
_cell_length_b                    14.8809
_cell_length_c                    13.1622
_cell_angle_alpha                 90.0000
_cell_angle_beta                  146.4474
_cell_angle_gamma                 90.0000
loop_
_atom_site_label
_atom_site_type_symbol
_atom_site_fract_x
_atom_site_fract_y
_atom_site_fract_z
_atom_site_U_iso_or_equiv
_atom_site_adp_type
_atom_site_occupancy
C1     C     0.27120   0.35995   0.52444   0.00000  Uiso   1.00
C2     C     0.28967   0.40146   0.44356   0.00000  Uiso   1.00
C3     C     0.23717   0.47985   0.34055   0.00000  Uiso   1.00
C4     C     0.26545   0.50663   0.27898   0.00000  Uiso   1.00
C5     C     0.28222   0.57863   0.14721   0.00000  Uiso   1.00
C6     C     0.22801   0.26426   0.44999   0.00000  Uiso   1.00
C7     C     0.12368   0.22729   0.35241   0.00000  Uiso   1.00
C8     C     0.10007   0.13857   0.29628   0.00000  Uiso   1.00
C9     C     0.02115   0.99756   0.17461   0.00000  Uiso   1.00
C10    C     0.39430   0.35120   0.73038   0.00000  Uiso   1.00
C11    C     0.42980   0.38731   0.86856   0.00000  Uiso   1.00
C12    C     0.54619   0.37177   0.04851   0.00000  Uiso   1.00
C13    C     0.72547   0.36575   0.36218   0.00000  Uiso   1.00
C14    C     0.41478   0.26811   0.59830   0.00000  Uiso   1.00
C15    C     0.36765   0.35157   0.48367   0.00000  Uiso   1.00
C16    C     0.39602   0.37823   0.42226   0.00000  Uiso   1.00
C17    C     0.34358   0.45665   0.31917   0.00000  Uiso   1.00
C18    C     0.30599   0.21437   0.49010   0.00000  Uiso   1.00
C19    C     0.28253   0.12568   0.43412   0.00000  Uiso   1.00
C20    C     0.17820   0.08859   0.33647   0.00000  Uiso   1.00
C21    C     0.47229   0.30131   0.77050   0.00000  Uiso   1.00
C22    C     0.58865   0.28570   0.95027   0.00000  Uiso   1.00
C23    C     0.62431   0.32179   0.08870   0.00000  Uiso   1.00
H24    H     0.21048   0.39878   0.49321   0.00000  Uiso   1.00
H25    H     0.17681   0.51843   0.30951   0.00000  Uiso   1.00
H26    H     0.06335   0.26591   0.32140   0.00000  Uiso   1.00
H27    H     0.36942   0.42591   0.83747   0.00000  Uiso   1.00
H28    H     0.17385   0.62906   0.12349   0.00000  Uiso   1.00
H29    H     0.93463   0.09661   0.14860   0.00000  Uiso   1.00
H30    H     0.58003   0.43400   0.23683   0.00000  Uiso   1.00
H31    H     0.47549   0.22927   0.62953   0.00000  Uiso   1.00
H32    H     0.45638   0.33961   0.45332   0.00000  Uiso   1.00
H33    H     0.34291   0.08709   0.46520   0.00000  Uiso   1.00
H34    H     0.64897   0.24710   0.98126   0.00000  Uiso   1.00
H35    H     0.40075   0.48393   0.24020   0.00000  Uiso   1.00
H36    H     0.16152   0.95147   0.26531   0.00000  Uiso   1.00
H37    H     0.80693   0.28886   0.35354   0.00000  Uiso   1.00
O38    O     0.26991   0.63213   0.06342   0.00000  Uiso   1.00
O39    O     0.95607   0.93356   0.09639   0.00000  Uiso   1.00
O40    O     0.80282   0.37622   0.52412   0.00000  Uiso   1.00
N41    N     0.22989   0.57977   0.17518   0.00000  Uiso   1.00
N42    N     0.00622   0.08196   0.19862   0.00000  Uiso   1.00
N43    N     0.60961   0.39737   0.21603   0.00000  Uiso   1.00
N44    N     0.35199   0.50168   0.23798   0.00000  Uiso   1.00
N45    N     0.12832   0.00386   0.26142   0.00000  Uiso   1.00
N46    N     0.73170   0.31928   0.27883   0.00000  Uiso   1.00
C47    C     0.72880   0.85995   0.97556   0.00000  Uiso   1.00
C48    C     0.71033   0.90146   0.05644   0.00000  Uiso   1.00
C49    C     0.76283   0.97985   0.15945   0.00000  Uiso   1.00
C50    C     0.73455   0.00663   0.22102   0.00000  Uiso   1.00
C51    C     0.71778   0.07863   0.35279   0.00000  Uiso   1.00
C52    C     0.77199   0.76426   0.05001   0.00000  Uiso   1.00
C53    C     0.87632   0.72729   0.14759   0.00000  Uiso   1.00
C54    C     0.89993   0.63857   0.20372   0.00000  Uiso   1.00
C55    C     0.97885   0.49756   0.32539   0.00000  Uiso   1.00
C56    C     0.60570   0.85120   0.76962   0.00000  Uiso   1.00
C57    C     0.57020   0.88731   0.63144   0.00000  Uiso   1.00
C58    C     0.45381   0.87177   0.45149   0.00000  Uiso   1.00
C59    C     0.27453   0.86575   0.13782   0.00000  Uiso   1.00
C60    C     0.58522   0.76811   0.90170   0.00000  Uiso   1.00
C61    C     0.63235   0.85157   0.01633   0.00000  Uiso   1.00
C62    C     0.60398   0.87823   0.07774   0.00000  Uiso   1.00
C63    C     0.65642   0.95665   0.18083   0.00000  Uiso   1.00
C64    C     0.69401   0.71437   0.00990   0.00000  Uiso   1.00
C65    C     0.71747   0.62568   0.06588   0.00000  Uiso   1.00
C66    C     0.82180   0.58859   0.16353   0.00000  Uiso   1.00
C67    C     0.52771   0.80131   0.72950   0.00000  Uiso   1.00
C68    C     0.41135   0.78570   0.54973   0.00000  Uiso   1.00
C69    C     0.37569   0.82179   0.41130   0.00000  Uiso   1.00
H70    H     0.78952   0.89878   0.00679   0.00000  Uiso   1.00
H71    H     0.82319   0.01843   0.19049   0.00000  Uiso   1.00
H72    H     0.93665   0.76591   0.17860   0.00000  Uiso   1.00
H73    H     0.63058   0.92591   0.66253   0.00000  Uiso   1.00
H74    H     0.82615   0.12906   0.37651   0.00000  Uiso   1.00
H75    H     0.06537   0.59661   0.35140   0.00000  Uiso   1.00
H76    H     0.41997   0.93400   0.26317   0.00000  Uiso   1.00
H77    H     0.52451   0.72927   0.87047   0.00000  Uiso   1.00
H78    H     0.54362   0.83961   0.04668   0.00000  Uiso   1.00
H79    H     0.65709   0.58709   0.03480   0.00000  Uiso   1.00
H80    H     0.35103   0.74710   0.51874   0.00000  Uiso   1.00
H81    H     0.59925   0.98393   0.25980   0.00000  Uiso   1.00
H82    H     0.83848   0.45147   0.23469   0.00000  Uiso   1.00
H83    H     0.19307   0.78886   0.14646   0.00000  Uiso   1.00
O84    O     0.73009   0.13213   0.43658   0.00000  Uiso   1.00
O85    O     0.04393   0.43356   0.40361   0.00000  Uiso   1.00
O86    O     0.19718   0.87622   0.97588   0.00000  Uiso   1.00
N87    N     0.77011   0.07977   0.32482   0.00000  Uiso   1.00
N88    N     0.99378   0.58196   0.30138   0.00000  Uiso   1.00
N89    N     0.39039   0.89737   0.28397   0.00000  Uiso   1.00
N90    N     0.64801   0.00168   0.26202   0.00000  Uiso   1.00
N91    N     0.87168   0.50386   0.23858   0.00000  Uiso   1.00
N92    N     0.26830   0.81928   0.22117   0.00000  Uiso   1.00
C93    C     0.72880   0.64005   0.47556   0.00000  Uiso   1.00
C94    C     0.71033   0.59854   0.55644   0.00000  Uiso   1.00
C95    C     0.76283   0.52015   0.65945   0.00000  Uiso   1.00
C96    C     0.73455   0.49337   0.72102   0.00000  Uiso   1.00
C97    C     0.71778   0.42137   0.85279   0.00000  Uiso   1.00
C98    C     0.77199   0.73574   0.55001   0.00000  Uiso   1.00
C99    C     0.87632   0.77271   0.64759   0.00000  Uiso   1.00
C100   C     0.89993   0.86143   0.70372   0.00000  Uiso   1.00
C101   C     0.97885   0.00244   0.82539   0.00000  Uiso   1.00
C102   C     0.60570   0.64880   0.26962   0.00000  Uiso   1.00
C103   C     0.57020   0.61269   0.13144   0.00000  Uiso   1.00
C104   C     0.45381   0.62823   0.95149   0.00000  Uiso   1.00
C105   C     0.27453   0.63425   0.63782   0.00000  Uiso   1.00
C106   C     0.58522   0.73189   0.40170   0.00000  Uiso   1.00
C107   C     0.63235   0.64843   0.51633   0.00000  Uiso   1.00
C108   C     0.60398   0.62177   0.57774   0.00000  Uiso   1.00
C109   C     0.65642   0.54335   0.68083   0.00000  Uiso   1.00
C110   C     0.69401   0.78563   0.50990   0.00000  Uiso   1.00
C111   C     0.71747   0.87432   0.56588   0.00000  Uiso   1.00
C112   C     0.82180   0.91141   0.66353   0.00000  Uiso   1.00
C113   C     0.52771   0.69869   0.22950   0.00000  Uiso   1.00
C114   C     0.41135   0.71430   0.04973   0.00000  Uiso   1.00
C115   C     0.37569   0.67821   0.91130   0.00000  Uiso   1.00
H116   H     0.78952   0.60122   0.50679   0.00000  Uiso   1.00
H117   H     0.82319   0.48157   0.69049   0.00000  Uiso   1.00
H118   H     0.93665   0.73409   0.67860   0.00000  Uiso   1.00
H119   H     0.63058   0.57409   0.16253   0.00000  Uiso   1.00
H120   H     0.82615   0.37094   0.87651   0.00000  Uiso   1.00
H121   H     0.06537   0.90339   0.85140   0.00000  Uiso   1.00
H122   H     0.41997   0.56600   0.76317   0.00000  Uiso   1.00
H123   H     0.52451   0.77073   0.37047   0.00000  Uiso   1.00
H124   H     0.54362   0.66039   0.54668   0.00000  Uiso   1.00
H125   H     0.65709   0.91291   0.53480   0.00000  Uiso   1.00
H126   H     0.35103   0.75290   0.01874   0.00000  Uiso   1.00
H127   H     0.59925   0.51607   0.75980   0.00000  Uiso   1.00
H128   H     0.83848   0.04853   0.73469   0.00000  Uiso   1.00
H129   H     0.19307   0.71114   0.64646   0.00000  Uiso   1.00
O130   O     0.73009   0.36787   0.93658   0.00000  Uiso   1.00
O131   O     0.04393   0.06644   0.90361   0.00000  Uiso   1.00
O132   O     0.19718   0.62378   0.47588   0.00000  Uiso   1.00
N133   N     0.77011   0.42023   0.82482   0.00000  Uiso   1.00
N134   N     0.99378   0.91804   0.80138   0.00000  Uiso   1.00
N135   N     0.39039   0.60263   0.78397   0.00000  Uiso   1.00
N136   N     0.64801   0.49832   0.76202   0.00000  Uiso   1.00
N137   N     0.87168   0.99614   0.73858   0.00000  Uiso   1.00
N138   N     0.26830   0.68072   0.72117   0.00000  Uiso   1.00
C139   C     0.27120   0.14005   0.02444   0.00000  Uiso   1.00
C140   C     0.28967   0.09854   0.94356   0.00000  Uiso   1.00
C141   C     0.23717   0.02015   0.84055   0.00000  Uiso   1.00
C142   C     0.26545   0.99337   0.77898   0.00000  Uiso   1.00
C143   C     0.28222   0.92137   0.64721   0.00000  Uiso   1.00
C144   C     0.22801   0.23574   0.94999   0.00000  Uiso   1.00
C145   C     0.12368   0.27271   0.85241   0.00000  Uiso   1.00
C146   C     0.10007   0.36143   0.79628   0.00000  Uiso   1.00
C147   C     0.02115   0.50244   0.67461   0.00000  Uiso   1.00
C148   C     0.39430   0.14880   0.23038   0.00000  Uiso   1.00
C149   C     0.42980   0.11269   0.36856   0.00000  Uiso   1.00
C150   C     0.54619   0.12823   0.54851   0.00000  Uiso   1.00
C151   C     0.72547   0.13425   0.86218   0.00000  Uiso   1.00
C152   C     0.41478   0.23189   0.09830   0.00000  Uiso   1.00
C153   C     0.36765   0.14843   0.98367   0.00000  Uiso   1.00
C154   C     0.39602   0.12177   0.92226   0.00000  Uiso   1.00
C155   C     0.34358   0.04335   0.81917   0.00000  Uiso   1.00
C156   C     0.30599   0.28563   0.99010   0.00000  Uiso   1.00
C157   C     0.28253   0.37432   0.93412   0.00000  Uiso   1.00
C158   C     0.17820   0.41141   0.83647   0.00000  Uiso   1.00
C159   C     0.47229   0.19869   0.27050   0.00000  Uiso   1.00
C160   C     0.58865   0.21430   0.45027   0.00000  Uiso   1.00
C161   C     0.62431   0.17821   0.58870   0.00000  Uiso   1.00
H162   H     0.21048   0.10122   0.99321   0.00000  Uiso   1.00
H163   H     0.17681   0.98157   0.80951   0.00000  Uiso   1.00
H164   H     0.06335   0.23409   0.82140   0.00000  Uiso   1.00
H165   H     0.36942   0.07409   0.33747   0.00000  Uiso   1.00
H166   H     0.17385   0.87094   0.62349   0.00000  Uiso   1.00
H167   H     0.93463   0.40339   0.64860   0.00000  Uiso   1.00
H168   H     0.58003   0.06600   0.73683   0.00000  Uiso   1.00
H169   H     0.47549   0.27073   0.12953   0.00000  Uiso   1.00
H170   H     0.45638   0.16039   0.95332   0.00000  Uiso   1.00
H171   H     0.34291   0.41291   0.96520   0.00000  Uiso   1.00
H172   H     0.64897   0.25290   0.48126   0.00000  Uiso   1.00
H173   H     0.40075   0.01607   0.74020   0.00000  Uiso   1.00
H174   H     0.16152   0.54853   0.76531   0.00000  Uiso   1.00
H175   H     0.80693   0.21114   0.85354   0.00000  Uiso   1.00
O176   O     0.26991   0.86787   0.56342   0.00000  Uiso   1.00
O177   O     0.95607   0.56644   0.59639   0.00000  Uiso   1.00
O178   O     0.80282   0.12378   0.02412   0.00000  Uiso   1.00
N179   N     0.22989   0.92023   0.67518   0.00000  Uiso   1.00
N180   N     0.00622   0.41804   0.69862   0.00000  Uiso   1.00
N181   N     0.60961   0.10263   0.71603   0.00000  Uiso   1.00
N182   N     0.35199   0.99832   0.73798   0.00000  Uiso   1.00
N183   N     0.12832   0.49614   0.76142   0.00000  Uiso   1.00
N184   N     0.73170   0.18072   0.77883   0.00000  Uiso   1.00
