data_job_01961
_audit_creation_date              2018-12-19
_audit_creation_method            'Materials Studio'
_symmetry_space_group_name_H-M    'P1'
_symmetry_Int_Tables_number       1
_symmetry_cell_setting            triclinic
loop_
_symmetry_equiv_pos_as_xyz
  x,y,z
_cell_length_a                    12.5330
_cell_length_b                    12.5383
_cell_length_c                    17.2927
_cell_angle_alpha                 104.1388
_cell_angle_beta                  72.8440
_cell_angle_gamma                 113.4541
loop_
_atom_site_label
_atom_site_type_symbol
_atom_site_fract_x
_atom_site_fract_y
_atom_site_fract_z
_atom_site_U_iso_or_equiv
_atom_site_adp_type
_atom_site_occupancy
C1     C     0.78125   0.14550   0.83671   0.00000  Uiso   1.00
C2     C     0.82686   0.22144   0.76890   0.00000  Uiso   1.00
C3     C     0.88716   0.34201   0.77717   0.00000  Uiso   1.00
C4     C     0.92142   0.39531   0.70784   0.00000  Uiso   1.00
C5     C     0.99602   0.52313   0.61394   0.00000  Uiso   1.00
C6     C     0.64789   0.08238   0.84130   0.00000  Uiso   1.00
C7     C     0.55774   0.08602   0.91046   0.00000  Uiso   1.00
C8     C     0.44135   0.02225   0.90208   0.00000  Uiso   1.00
C9     C     0.23811   0.93410   0.92061   0.00000  Uiso   1.00
C10    C     0.83718   0.05061   0.80549   0.00000  Uiso   1.00
C11    C     0.90616   0.02752   0.84453   0.00000  Uiso   1.00
C12    C     0.94912   0.93699   0.80601   0.00000  Uiso   1.00
C13    C     0.03979   0.79953   0.76892   0.00000  Uiso   1.00
C14    C     0.73486   0.02574   0.69888   0.00000  Uiso   1.00
C15    C     0.80165   0.15639   0.69404   0.00000  Uiso   1.00
C16    C     0.83584   0.20952   0.62467   0.00000  Uiso   1.00
C17    C     0.89619   0.33015   0.63284   0.00000  Uiso   1.00
C18    C     0.62269   0.01733   0.76644   0.00000  Uiso   1.00
C19    C     0.50641   0.95353   0.75797   0.00000  Uiso   1.00
C20    C     0.41610   0.95708   0.82708   0.00000  Uiso   1.00
C21    C     0.81199   0.98557   0.73062   0.00000  Uiso   1.00
C22    C     0.85484   0.89504   0.69204   0.00000  Uiso   1.00
C23    C     0.92387   0.87182   0.73101   0.00000  Uiso   1.00
H24    H     0.80085   0.19613   0.89500   0.00000  Uiso   1.00
H25    H     0.90663   0.39232   0.83512   0.00000  Uiso   1.00
H26    H     0.57726   0.13636   0.96838   0.00000  Uiso   1.00
H27    H     0.92564   0.07788   0.90246   0.00000  Uiso   1.00
H28    H     0.01276   0.58115   0.73571   0.00000  Uiso   1.00
H29    H     0.31827   0.04141   0.01673   0.00000  Uiso   1.00
H30    H     0.05288   0.91809   0.87773   0.00000  Uiso   1.00
H31    H     0.71524   0.97510   0.64060   0.00000  Uiso   1.00
H32    H     0.81633   0.15916   0.56675   0.00000  Uiso   1.00
H33    H     0.48695   0.90320   0.70002   0.00000  Uiso   1.00
H34    H     0.83533   0.84472   0.63410   0.00000  Uiso   1.00
H35    H     0.93946   0.39191   0.51790   0.00000  Uiso   1.00
H36    H     0.24496   0.85216   0.79892   0.00000  Uiso   1.00
H37    H     0.97958   0.72885   0.65991   0.00000  Uiso   1.00
O38    O     0.04412   0.61160   0.58283   0.00000  Uiso   1.00
O39    O     0.13297   0.90347   0.95151   0.00000  Uiso   1.00
O40    O     0.09677   0.74169   0.76914   0.00000  Uiso   1.00
N41    N     0.98166   0.51135   0.69458   0.00000  Uiso   1.00
N42    N     0.33234   0.00674   0.95731   0.00000  Uiso   1.00
N43    N     0.01912   0.89143   0.82737   0.00000  Uiso   1.00
N44    N     0.94222   0.40952   0.57738   0.00000  Uiso   1.00
N45    N     0.29290   0.90491   0.84011   0.00000  Uiso   1.00
N46    N     0.97968   0.78960   0.71016   0.00000  Uiso   1.00
C47    C     0.21875   0.85450   0.16329   0.00000  Uiso   1.00
C48    C     0.17314   0.77856   0.23110   0.00000  Uiso   1.00
C49    C     0.11284   0.65799   0.22283   0.00000  Uiso   1.00
C50    C     0.07858   0.60469   0.29216   0.00000  Uiso   1.00
C51    C     0.00398   0.47687   0.38606   0.00000  Uiso   1.00
C52    C     0.35211   0.91762   0.15870   0.00000  Uiso   1.00
C53    C     0.44226   0.91398   0.08954   0.00000  Uiso   1.00
C54    C     0.55865   0.97775   0.09792   0.00000  Uiso   1.00
C55    C     0.76189   0.06590   0.07939   0.00000  Uiso   1.00
C56    C     0.16282   0.94939   0.19451   0.00000  Uiso   1.00
C57    C     0.09384   0.97248   0.15547   0.00000  Uiso   1.00
C58    C     0.05088   0.06301   0.19399   0.00000  Uiso   1.00
C59    C     0.96021   0.20047   0.23108   0.00000  Uiso   1.00
C60    C     0.26514   0.97426   0.30112   0.00000  Uiso   1.00
C61    C     0.19835   0.84361   0.30596   0.00000  Uiso   1.00
C62    C     0.16416   0.79048   0.37533   0.00000  Uiso   1.00
C63    C     0.10381   0.66985   0.36716   0.00000  Uiso   1.00
C64    C     0.37731   0.98267   0.23356   0.00000  Uiso   1.00
C65    C     0.49359   0.04647   0.24203   0.00000  Uiso   1.00
C66    C     0.58390   0.04292   0.17292   0.00000  Uiso   1.00
C67    C     0.18801   0.01443   0.26938   0.00000  Uiso   1.00
C68    C     0.14516   0.10496   0.30796   0.00000  Uiso   1.00
C69    C     0.07613   0.12818   0.26899   0.00000  Uiso   1.00
H70    H     0.19915   0.80387   0.10500   0.00000  Uiso   1.00
H71    H     0.09337   0.60768   0.16488   0.00000  Uiso   1.00
H72    H     0.42274   0.86364   0.03162   0.00000  Uiso   1.00
H73    H     0.07436   0.92212   0.09754   0.00000  Uiso   1.00
H74    H     0.98724   0.41885   0.26429   0.00000  Uiso   1.00
H75    H     0.68173   0.95859   0.98327   0.00000  Uiso   1.00
H76    H     0.94712   0.08191   0.12227   0.00000  Uiso   1.00
H77    H     0.28476   0.02490   0.35940   0.00000  Uiso   1.00
H78    H     0.18367   0.84084   0.43325   0.00000  Uiso   1.00
H79    H     0.51305   0.09680   0.29998   0.00000  Uiso   1.00
H80    H     0.16467   0.15528   0.36590   0.00000  Uiso   1.00
H81    H     0.06054   0.60809   0.48210   0.00000  Uiso   1.00
H82    H     0.75504   0.14784   0.20108   0.00000  Uiso   1.00
H83    H     0.02042   0.27115   0.34009   0.00000  Uiso   1.00
O84    O     0.95588   0.38840   0.41717   0.00000  Uiso   1.00
O85    O     0.86703   0.09653   0.04849   0.00000  Uiso   1.00
O86    O     0.90323   0.25831   0.23086   0.00000  Uiso   1.00
N87    N     0.01834   0.48865   0.30542   0.00000  Uiso   1.00
N88    N     0.66766   0.99326   0.04269   0.00000  Uiso   1.00
N89    N     0.98088   0.10857   0.17263   0.00000  Uiso   1.00
N90    N     0.05778   0.59048   0.42262   0.00000  Uiso   1.00
N91    N     0.70710   0.09509   0.15989   0.00000  Uiso   1.00
N92    N     0.02032   0.21040   0.28984   0.00000  Uiso   1.00
