data_job_01243
_audit_creation_date              2018-12-19
_audit_creation_method            'Materials Studio'
_symmetry_space_group_name_H-M    'P1'
_symmetry_Int_Tables_number       1
_symmetry_cell_setting            triclinic
loop_
_symmetry_equiv_pos_as_xyz
  x,y,z
_cell_length_a                    12.3974
_cell_length_b                    12.3974
_cell_length_c                    14.0098
_cell_angle_alpha                 90.0000
_cell_angle_beta                  90.0000
_cell_angle_gamma                 120.0000
loop_
_atom_site_label
_atom_site_type_symbol
_atom_site_fract_x
_atom_site_fract_y
_atom_site_fract_z
_atom_site_U_iso_or_equiv
_atom_site_adp_type
_atom_site_occupancy
C1     C     0.15487   0.59285   0.34398   0.00000  Uiso   1.00
C2     C     0.07158   0.54214   0.25618   0.00000  Uiso   1.00
C3     C     0.10773   0.58005   0.16271   0.00000  Uiso   1.00
C4     C     0.01769   0.52227   0.09248   0.00000  Uiso   1.00
C5     C     0.90687   0.45761   0.95273   0.00000  Uiso   1.00
C6     C     0.09000   0.63940   0.41100   0.00000  Uiso   1.00
C7     C     0.14165   0.75908   0.44772   0.00000  Uiso   1.00
C8     C     0.06713   0.78316   0.50783   0.00000  Uiso   1.00
C9     C     0.98494   0.86948   0.60850   0.00000  Uiso   1.00
C10    C     0.14940   0.48051   0.39318   0.00000  Uiso   1.00
C11    C     0.25099   0.46661   0.41494   0.00000  Uiso   1.00
C12    C     0.22648   0.35693   0.46007   0.00000  Uiso   1.00
C13    C     0.23651   0.19655   0.53308   0.00000  Uiso   1.00
C14    C     0.93068   0.42280   0.38546   0.00000  Uiso   1.00
C15    C     0.94981   0.44977   0.27872   0.00000  Uiso   1.00
C16    C     0.85969   0.39191   0.20861   0.00000  Uiso   1.00
C17    C     0.89571   0.42973   0.11505   0.00000  Uiso   1.00
C18    C     0.96823   0.54704   0.43354   0.00000  Uiso   1.00
C19    C     0.89362   0.57094   0.49361   0.00000  Uiso   1.00
C20    C     0.94514   0.69063   0.53040   0.00000  Uiso   1.00
C21    C     0.02763   0.38814   0.41572   0.00000  Uiso   1.00
C22    C     0.00295   0.27847   0.46083   0.00000  Uiso   1.00
C23    C     0.10449   0.26440   0.48265   0.00000  Uiso   1.00
H24    H     0.24967   0.66477   0.32644   0.00000  Uiso   1.00
H25    H     0.20197   0.65155   0.14530   0.00000  Uiso   1.00
H26    H     0.23589   0.83054   0.43027   0.00000  Uiso   1.00
H27    H     0.34521   0.53811   0.39750   0.00000  Uiso   1.00
H28    H     0.09538   0.59618   0.95442   0.00000  Uiso   1.00
H29    H     0.16691   0.97359   0.55532   0.00000  Uiso   1.00
H30    H     0.39744   0.35694   0.48621   0.00000  Uiso   1.00
H31    H     0.83588   0.35089   0.40301   0.00000  Uiso   1.00
H32    H     0.76547   0.32044   0.22606   0.00000  Uiso   1.00
H33    H     0.79939   0.49944   0.51104   0.00000  Uiso   1.00
H34    H     0.90871   0.20701   0.47826   0.00000  Uiso   1.00
H35    H     0.74109   0.32745   0.01997   0.00000  Uiso   1.00
H36    H     0.81264   0.70486   0.62087   0.00000  Uiso   1.00
H37    H     0.04315   0.08821   0.55176   0.00000  Uiso   1.00
O38    O     0.87937   0.44747   0.86942   0.00000  Uiso   1.00
O39    O     0.97324   0.94261   0.65779   0.00000  Uiso   1.00
O40    O     0.27568   0.13359   0.56711   0.00000  Uiso   1.00
N41    N     0.02166   0.53710   0.99413   0.00000  Uiso   1.00
N42    N     0.08854   0.88995   0.55592   0.00000  Uiso   1.00
N43    N     0.30406   0.31346   0.49133   0.00000  Uiso   1.00
N44    N     0.83103   0.39249   0.02940   0.00000  Uiso   1.00
N45    N     0.89791   0.74535   0.59119   0.00000  Uiso   1.00
N46    N     0.11343   0.16886   0.52660   0.00000  Uiso   1.00
C47    C     0.40715   0.56201   0.01065   0.00000  Uiso   1.00
C48    C     0.45786   0.52944   0.92285   0.00000  Uiso   1.00
C49    C     0.41995   0.52768   0.82938   0.00000  Uiso   1.00
C50    C     0.47773   0.49543   0.75915   0.00000  Uiso   1.00
C51    C     0.54239   0.44926   0.61939   0.00000  Uiso   1.00
C52    C     0.36060   0.45060   0.07767   0.00000  Uiso   1.00
C53    C     0.24092   0.38257   0.11438   0.00000  Uiso   1.00
C54    C     0.21684   0.28397   0.17449   0.00000  Uiso   1.00
C55    C     0.13052   0.11546   0.27516   0.00000  Uiso   1.00
C56    C     0.51949   0.66889   0.05985   0.00000  Uiso   1.00
C57    C     0.53339   0.78438   0.08161   0.00000  Uiso   1.00
C58    C     0.64307   0.86955   0.12674   0.00000  Uiso   1.00
C59    C     0.80345   0.03996   0.19974   0.00000  Uiso   1.00
C60    C     0.57720   0.50788   0.05213   0.00000  Uiso   1.00
C61    C     0.55023   0.50003   0.94538   0.00000  Uiso   1.00
C62    C     0.60809   0.46778   0.87527   0.00000  Uiso   1.00
C63    C     0.57027   0.46597   0.78172   0.00000  Uiso   1.00
C64    C     0.45296   0.42120   0.10020   0.00000  Uiso   1.00
C65    C     0.42906   0.32268   0.16028   0.00000  Uiso   1.00
C66    C     0.30937   0.25451   0.19707   0.00000  Uiso   1.00
C67    C     0.61186   0.63949   0.08238   0.00000  Uiso   1.00
C68    C     0.72153   0.72449   0.12750   0.00000  Uiso   1.00
C69    C     0.73560   0.84009   0.14931   0.00000  Uiso   1.00
H70    H     0.33523   0.58490   0.99311   0.00000  Uiso   1.00
H71    H     0.34845   0.55043   0.81197   0.00000  Uiso   1.00
H72    H     0.16946   0.40536   0.09694   0.00000  Uiso   1.00
H73    H     0.46189   0.80710   0.06416   0.00000  Uiso   1.00
H74    H     0.40382   0.49919   0.62109   0.00000  Uiso   1.00
H75    H     0.02641   0.19333   0.22198   0.00000  Uiso   1.00
H76    H     0.64306   0.04049   0.15287   0.00000  Uiso   1.00
H77    H     0.64911   0.48498   0.06967   0.00000  Uiso   1.00
H78    H     0.67956   0.44503   0.89273   0.00000  Uiso   1.00
H79    H     0.50056   0.29995   0.17770   0.00000  Uiso   1.00
H80    H     0.79299   0.70170   0.14492   0.00000  Uiso   1.00
H81    H     0.67255   0.41364   0.68663   0.00000  Uiso   1.00
H82    H     0.29514   0.10778   0.28754   0.00000  Uiso   1.00
H83    H     0.91179   0.95494   0.21842   0.00000  Uiso   1.00
O84    O     0.55253   0.43190   0.53608   0.00000  Uiso   1.00
O85    O     0.05739   0.03063   0.32446   0.00000  Uiso   1.00
O86    O     0.86641   0.14209   0.23377   0.00000  Uiso   1.00
N87    N     0.46290   0.48457   0.66079   0.00000  Uiso   1.00
N88    N     0.11005   0.19859   0.22259   0.00000  Uiso   1.00
N89    N     0.68654   0.99060   0.15799   0.00000  Uiso   1.00
N90    N     0.60751   0.43854   0.69606   0.00000  Uiso   1.00
N91    N     0.25465   0.15256   0.25786   0.00000  Uiso   1.00
N92    N     0.83114   0.94457   0.19327   0.00000  Uiso   1.00
C93    C     0.43799   0.84513   0.67731   0.00000  Uiso   1.00
C94    C     0.47056   0.92842   0.58951   0.00000  Uiso   1.00
C95    C     0.47232   0.89227   0.49604   0.00000  Uiso   1.00
C96    C     0.50457   0.98231   0.42581   0.00000  Uiso   1.00
C97    C     0.55074   0.09313   0.28606   0.00000  Uiso   1.00
C98    C     0.54940   0.91000   0.74434   0.00000  Uiso   1.00
C99    C     0.61743   0.85835   0.78105   0.00000  Uiso   1.00
C100   C     0.71603   0.93287   0.84116   0.00000  Uiso   1.00
C101   C     0.88454   0.01506   0.94183   0.00000  Uiso   1.00
C102   C     0.33111   0.85060   0.72652   0.00000  Uiso   1.00
C103   C     0.21562   0.74901   0.74828   0.00000  Uiso   1.00
C104   C     0.13045   0.77352   0.79341   0.00000  Uiso   1.00
C105   C     0.96004   0.76349   0.86641   0.00000  Uiso   1.00
C106   C     0.49212   0.06932   0.71880   0.00000  Uiso   1.00
C107   C     0.49997   0.05019   0.61205   0.00000  Uiso   1.00
C108   C     0.53222   0.14031   0.54194   0.00000  Uiso   1.00
C109   C     0.53403   0.10429   0.44838   0.00000  Uiso   1.00
C110   C     0.57880   0.03177   0.76687   0.00000  Uiso   1.00
C111   C     0.67732   0.10638   0.82695   0.00000  Uiso   1.00
C112   C     0.74549   0.05486   0.86373   0.00000  Uiso   1.00
C113   C     0.36051   0.97237   0.74905   0.00000  Uiso   1.00
C114   C     0.27551   0.99705   0.79417   0.00000  Uiso   1.00
C115   C     0.15991   0.89551   0.81598   0.00000  Uiso   1.00
H116   H     0.41510   0.75033   0.65977   0.00000  Uiso   1.00
H117   H     0.44957   0.79803   0.47864   0.00000  Uiso   1.00
H118   H     0.59464   0.76411   0.76361   0.00000  Uiso   1.00
H119   H     0.19290   0.65479   0.73083   0.00000  Uiso   1.00
H120   H     0.50081   0.90462   0.28775   0.00000  Uiso   1.00
H121   H     0.80667   0.83309   0.88865   0.00000  Uiso   1.00
H122   H     0.95951   0.60256   0.81954   0.00000  Uiso   1.00
H123   H     0.51502   0.16412   0.73634   0.00000  Uiso   1.00
H124   H     0.55497   0.23453   0.55940   0.00000  Uiso   1.00
H125   H     0.70005   0.20061   0.84437   0.00000  Uiso   1.00
H126   H     0.29830   0.09129   0.81159   0.00000  Uiso   1.00
H127   H     0.58636   0.25891   0.35330   0.00000  Uiso   1.00
H128   H     0.89222   0.18736   0.95421   0.00000  Uiso   1.00
H129   H     0.04506   0.95685   0.88509   0.00000  Uiso   1.00
O130   O     0.56810   0.12063   0.20275   0.00000  Uiso   1.00
O131   O     0.96937   0.02676   0.99112   0.00000  Uiso   1.00
O132   O     0.85791   0.72432   0.90044   0.00000  Uiso   1.00
N133   N     0.51543   0.97834   0.32746   0.00000  Uiso   1.00
N134   N     0.80141   0.91146   0.88925   0.00000  Uiso   1.00
N135   N     0.00940   0.69594   0.82466   0.00000  Uiso   1.00
N136   N     0.56146   0.16897   0.36273   0.00000  Uiso   1.00
N137   N     0.84744   0.10209   0.92453   0.00000  Uiso   1.00
N138   N     0.05543   0.88657   0.85993   0.00000  Uiso   1.00
