data_job_02891
_audit_creation_date              2018-12-19
_audit_creation_method            'Materials Studio'
_symmetry_space_group_name_H-M    'P1'
_symmetry_Int_Tables_number       1
_symmetry_cell_setting            triclinic
loop_
_symmetry_equiv_pos_as_xyz
  x,y,z
_cell_length_a                    24.1295
_cell_length_b                    20.6941
_cell_length_c                    14.2044
_cell_angle_alpha                 90.0000
_cell_angle_beta                  103.1200
_cell_angle_gamma                 90.0000
loop_
_atom_site_label
_atom_site_type_symbol
_atom_site_fract_x
_atom_site_fract_y
_atom_site_fract_z
_atom_site_U_iso_or_equiv
_atom_site_adp_type
_atom_site_occupancy
C1     C     0.72911   0.07223   0.03592   0.00000  Uiso   1.00
C2     C     0.78268   0.11079   0.07926   0.00000  Uiso   1.00
C3     C     0.81619   0.14353   0.02741   0.00000  Uiso   1.00
C4     C     0.86346   0.17593   0.08044   0.00000  Uiso   1.00
C5     C     0.94464   0.23584   0.13233   0.00000  Uiso   1.00
C6     C     0.73941   0.00433   0.07799   0.00000  Uiso   1.00
C7     C     0.73654   0.94756   0.02508   0.00000  Uiso   1.00
C8     C     0.74737   0.89034   0.07704   0.00000  Uiso   1.00
C9     C     0.76134   0.78497   0.12696   0.00000  Uiso   1.00
C10    C     0.68192   0.10108   0.07824   0.00000  Uiso   1.00
C11    C     0.63070   0.12565   0.02555   0.00000  Uiso   1.00
C12    C     0.59312   0.14987   0.07773   0.00000  Uiso   1.00
C13    C     0.51783   0.19471   0.12804   0.00000  Uiso   1.00
C14    C     0.75344   0.07154   0.22230   0.00000  Uiso   1.00
C15    C     0.79589   0.11042   0.18049   0.00000  Uiso   1.00
C16    C     0.84312   0.14278   0.23362   0.00000  Uiso   1.00
C17    C     0.87670   0.17556   0.18186   0.00000  Uiso   1.00
C18    C     0.75262   0.00396   0.17922   0.00000  Uiso   1.00
C19    C     0.76346   0.94681   0.23128   0.00000  Uiso   1.00
C20    C     0.76061   0.88997   0.17846   0.00000  Uiso   1.00
C21    C     0.69513   0.10071   0.17948   0.00000  Uiso   1.00
C22    C     0.65763   0.12489   0.23175   0.00000  Uiso   1.00
C23    C     0.60636   0.14949   0.17914   0.00000  Uiso   1.00
H24    H     0.71882   0.07251   0.95711   0.00000  Uiso   1.00
H25    H     0.80595   0.14380   0.94907   0.00000  Uiso   1.00
H26    H     0.72630   0.94787   0.94674   0.00000  Uiso   1.00
H27    H     0.62049   0.12592   0.94721   0.00000  Uiso   1.00
H28    H     0.90840   0.22266   0.98480   0.00000  Uiso   1.00
H29    H     0.74043   0.80952   0.97988   0.00000  Uiso   1.00
H30    H     0.51730   0.18498   0.98087   0.00000  Uiso   1.00
H31    H     0.76373   0.07125   0.30111   0.00000  Uiso   1.00
H32    H     0.85334   0.14248   0.31195   0.00000  Uiso   1.00
H33    H     0.77368   0.94654   0.30961   0.00000  Uiso   1.00
H34    H     0.66787   0.12460   0.31009   0.00000  Uiso   1.00
H35    H     0.94686   0.22158   0.27933   0.00000  Uiso   1.00
H36    H     0.77889   0.80844   0.27440   0.00000  Uiso   1.00
H37    H     0.55576   0.18391   0.27540   0.00000  Uiso   1.00
O38    O     0.98578   0.26898   0.13299   0.00000  Uiso   1.00
O39    O     0.76540   0.72695   0.12652   0.00000  Uiso   1.00
O40    O     0.47265   0.21956   0.12783   0.00000  Uiso   1.00
N41    N     0.90515   0.21264   0.05263   0.00000  Uiso   1.00
N42    N     0.74812   0.82638   0.04803   0.00000  Uiso   1.00
N43    N     0.53950   0.17739   0.04896   0.00000  Uiso   1.00
N44    N     0.92585   0.21207   0.21111   0.00000  Uiso   1.00
N45    N     0.76881   0.82580   0.20651   0.00000  Uiso   1.00
N46    N     0.56019   0.17681   0.20744   0.00000  Uiso   1.00
C47    C     0.22911   0.57223   0.03592   0.00000  Uiso   1.00
C48    C     0.28268   0.61079   0.07926   0.00000  Uiso   1.00
C49    C     0.31619   0.64353   0.02741   0.00000  Uiso   1.00
C50    C     0.36346   0.67593   0.08044   0.00000  Uiso   1.00
C51    C     0.44464   0.73584   0.13233   0.00000  Uiso   1.00
C52    C     0.23941   0.50433   0.07799   0.00000  Uiso   1.00
C53    C     0.23654   0.44756   0.02508   0.00000  Uiso   1.00
C54    C     0.24737   0.39034   0.07704   0.00000  Uiso   1.00
C55    C     0.26134   0.28497   0.12696   0.00000  Uiso   1.00
C56    C     0.18192   0.60108   0.07824   0.00000  Uiso   1.00
C57    C     0.13070   0.62565   0.02555   0.00000  Uiso   1.00
C58    C     0.09312   0.64987   0.07773   0.00000  Uiso   1.00
C59    C     0.01783   0.69471   0.12804   0.00000  Uiso   1.00
C60    C     0.25344   0.57154   0.22230   0.00000  Uiso   1.00
C61    C     0.29589   0.61042   0.18049   0.00000  Uiso   1.00
C62    C     0.34312   0.64278   0.23362   0.00000  Uiso   1.00
C63    C     0.37670   0.67556   0.18186   0.00000  Uiso   1.00
C64    C     0.25262   0.50396   0.17922   0.00000  Uiso   1.00
C65    C     0.26346   0.44681   0.23128   0.00000  Uiso   1.00
C66    C     0.26061   0.38997   0.17846   0.00000  Uiso   1.00
C67    C     0.19513   0.60071   0.17948   0.00000  Uiso   1.00
C68    C     0.15763   0.62489   0.23175   0.00000  Uiso   1.00
C69    C     0.10636   0.64949   0.17914   0.00000  Uiso   1.00
H70    H     0.21882   0.57251   0.95711   0.00000  Uiso   1.00
H71    H     0.30595   0.64380   0.94907   0.00000  Uiso   1.00
H72    H     0.22630   0.44787   0.94674   0.00000  Uiso   1.00
H73    H     0.12049   0.62592   0.94721   0.00000  Uiso   1.00
H74    H     0.40840   0.72266   0.98480   0.00000  Uiso   1.00
H75    H     0.24043   0.30952   0.97988   0.00000  Uiso   1.00
H76    H     0.01730   0.68498   0.98087   0.00000  Uiso   1.00
H77    H     0.26373   0.57125   0.30111   0.00000  Uiso   1.00
H78    H     0.35334   0.64248   0.31195   0.00000  Uiso   1.00
H79    H     0.27368   0.44654   0.30961   0.00000  Uiso   1.00
H80    H     0.16787   0.62460   0.31009   0.00000  Uiso   1.00
H81    H     0.44686   0.72158   0.27933   0.00000  Uiso   1.00
H82    H     0.27889   0.30844   0.27440   0.00000  Uiso   1.00
H83    H     0.05576   0.68391   0.27540   0.00000  Uiso   1.00
O84    O     0.48578   0.76898   0.13299   0.00000  Uiso   1.00
O85    O     0.26540   0.22695   0.12652   0.00000  Uiso   1.00
O86    O     0.97265   0.71956   0.12783   0.00000  Uiso   1.00
N87    N     0.40515   0.71264   0.05263   0.00000  Uiso   1.00
N88    N     0.24812   0.32638   0.04803   0.00000  Uiso   1.00
N89    N     0.03950   0.67739   0.04896   0.00000  Uiso   1.00
N90    N     0.42585   0.71207   0.21111   0.00000  Uiso   1.00
N91    N     0.26881   0.32580   0.20651   0.00000  Uiso   1.00
N92    N     0.06019   0.67681   0.20744   0.00000  Uiso   1.00
C93    C     0.27089   0.07223   0.46408   0.00000  Uiso   1.00
C94    C     0.21732   0.11079   0.42074   0.00000  Uiso   1.00
C95    C     0.18381   0.14353   0.47259   0.00000  Uiso   1.00
C96    C     0.13654   0.17593   0.41956   0.00000  Uiso   1.00
C97    C     0.05536   0.23584   0.36767   0.00000  Uiso   1.00
C98    C     0.26059   0.00433   0.42201   0.00000  Uiso   1.00
C99    C     0.26346   0.94756   0.47492   0.00000  Uiso   1.00
C100   C     0.25263   0.89034   0.42296   0.00000  Uiso   1.00
C101   C     0.23866   0.78497   0.37304   0.00000  Uiso   1.00
C102   C     0.31808   0.10108   0.42176   0.00000  Uiso   1.00
C103   C     0.36930   0.12565   0.47445   0.00000  Uiso   1.00
C104   C     0.40688   0.14987   0.42227   0.00000  Uiso   1.00
C105   C     0.48217   0.19471   0.37196   0.00000  Uiso   1.00
C106   C     0.24656   0.07154   0.27770   0.00000  Uiso   1.00
C107   C     0.20411   0.11042   0.31951   0.00000  Uiso   1.00
C108   C     0.15688   0.14278   0.26638   0.00000  Uiso   1.00
C109   C     0.12330   0.17556   0.31814   0.00000  Uiso   1.00
C110   C     0.24738   0.00396   0.32078   0.00000  Uiso   1.00
C111   C     0.23654   0.94681   0.26872   0.00000  Uiso   1.00
C112   C     0.23939   0.88997   0.32154   0.00000  Uiso   1.00
C113   C     0.30487   0.10071   0.32052   0.00000  Uiso   1.00
C114   C     0.34237   0.12489   0.26825   0.00000  Uiso   1.00
C115   C     0.39364   0.14949   0.32086   0.00000  Uiso   1.00
H116   H     0.28118   0.07251   0.54289   0.00000  Uiso   1.00
H117   H     0.19405   0.14380   0.55093   0.00000  Uiso   1.00
H118   H     0.27370   0.94787   0.55326   0.00000  Uiso   1.00
H119   H     0.37951   0.12592   0.55279   0.00000  Uiso   1.00
H120   H     0.09160   0.22266   0.51520   0.00000  Uiso   1.00
H121   H     0.25957   0.80952   0.52012   0.00000  Uiso   1.00
H122   H     0.48270   0.18498   0.51913   0.00000  Uiso   1.00
H123   H     0.23627   0.07125   0.19889   0.00000  Uiso   1.00
H124   H     0.14666   0.14248   0.18805   0.00000  Uiso   1.00
H125   H     0.22632   0.94654   0.19039   0.00000  Uiso   1.00
H126   H     0.33213   0.12460   0.18991   0.00000  Uiso   1.00
H127   H     0.05314   0.22158   0.22067   0.00000  Uiso   1.00
H128   H     0.22111   0.80844   0.22560   0.00000  Uiso   1.00
H129   H     0.44424   0.18391   0.22460   0.00000  Uiso   1.00
O130   O     0.01422   0.26898   0.36701   0.00000  Uiso   1.00
O131   O     0.23460   0.72695   0.37348   0.00000  Uiso   1.00
O132   O     0.52735   0.21956   0.37217   0.00000  Uiso   1.00
N133   N     0.09485   0.21264   0.44737   0.00000  Uiso   1.00
N134   N     0.25188   0.82638   0.45197   0.00000  Uiso   1.00
N135   N     0.46050   0.17739   0.45104   0.00000  Uiso   1.00
N136   N     0.07415   0.21207   0.28889   0.00000  Uiso   1.00
N137   N     0.23119   0.82580   0.29349   0.00000  Uiso   1.00
N138   N     0.43981   0.17681   0.29256   0.00000  Uiso   1.00
C139   C     0.77089   0.57223   0.46408   0.00000  Uiso   1.00
C140   C     0.71732   0.61079   0.42074   0.00000  Uiso   1.00
C141   C     0.68381   0.64353   0.47259   0.00000  Uiso   1.00
C142   C     0.63654   0.67593   0.41956   0.00000  Uiso   1.00
C143   C     0.55536   0.73584   0.36767   0.00000  Uiso   1.00
C144   C     0.76059   0.50433   0.42201   0.00000  Uiso   1.00
C145   C     0.76346   0.44756   0.47492   0.00000  Uiso   1.00
C146   C     0.75263   0.39034   0.42296   0.00000  Uiso   1.00
C147   C     0.73866   0.28497   0.37304   0.00000  Uiso   1.00
C148   C     0.81808   0.60108   0.42176   0.00000  Uiso   1.00
C149   C     0.86930   0.62565   0.47445   0.00000  Uiso   1.00
C150   C     0.90688   0.64987   0.42227   0.00000  Uiso   1.00
C151   C     0.98217   0.69471   0.37196   0.00000  Uiso   1.00
C152   C     0.74656   0.57154   0.27770   0.00000  Uiso   1.00
C153   C     0.70411   0.61042   0.31951   0.00000  Uiso   1.00
C154   C     0.65688   0.64278   0.26638   0.00000  Uiso   1.00
C155   C     0.62330   0.67556   0.31814   0.00000  Uiso   1.00
C156   C     0.74738   0.50396   0.32078   0.00000  Uiso   1.00
C157   C     0.73654   0.44681   0.26872   0.00000  Uiso   1.00
C158   C     0.73939   0.38997   0.32154   0.00000  Uiso   1.00
C159   C     0.80487   0.60071   0.32052   0.00000  Uiso   1.00
C160   C     0.84237   0.62489   0.26825   0.00000  Uiso   1.00
C161   C     0.89364   0.64949   0.32086   0.00000  Uiso   1.00
H162   H     0.78118   0.57251   0.54289   0.00000  Uiso   1.00
H163   H     0.69405   0.64380   0.55093   0.00000  Uiso   1.00
H164   H     0.77370   0.44787   0.55326   0.00000  Uiso   1.00
H165   H     0.87951   0.62592   0.55279   0.00000  Uiso   1.00
H166   H     0.59160   0.72266   0.51520   0.00000  Uiso   1.00
H167   H     0.75957   0.30952   0.52012   0.00000  Uiso   1.00
H168   H     0.98270   0.68498   0.51913   0.00000  Uiso   1.00
H169   H     0.73627   0.57125   0.19889   0.00000  Uiso   1.00
H170   H     0.64666   0.64248   0.18805   0.00000  Uiso   1.00
H171   H     0.72632   0.44654   0.19039   0.00000  Uiso   1.00
H172   H     0.83213   0.62460   0.18991   0.00000  Uiso   1.00
H173   H     0.55314   0.72158   0.22067   0.00000  Uiso   1.00
H174   H     0.72111   0.30844   0.22560   0.00000  Uiso   1.00
H175   H     0.94424   0.68391   0.22460   0.00000  Uiso   1.00
O176   O     0.51422   0.76898   0.36701   0.00000  Uiso   1.00
O177   O     0.73460   0.22695   0.37348   0.00000  Uiso   1.00
O178   O     0.02735   0.71956   0.37217   0.00000  Uiso   1.00
N179   N     0.59485   0.71264   0.44737   0.00000  Uiso   1.00
N180   N     0.75188   0.32638   0.45197   0.00000  Uiso   1.00
N181   N     0.96050   0.67739   0.45104   0.00000  Uiso   1.00
N182   N     0.57415   0.71207   0.28889   0.00000  Uiso   1.00
N183   N     0.73119   0.32580   0.29349   0.00000  Uiso   1.00
N184   N     0.93981   0.67681   0.29256   0.00000  Uiso   1.00
C185   C     0.27089   0.92777   0.96408   0.00000  Uiso   1.00
C186   C     0.21732   0.88921   0.92074   0.00000  Uiso   1.00
C187   C     0.18381   0.85647   0.97259   0.00000  Uiso   1.00
C188   C     0.13654   0.82407   0.91956   0.00000  Uiso   1.00
C189   C     0.05536   0.76416   0.86767   0.00000  Uiso   1.00
C190   C     0.26059   0.99567   0.92201   0.00000  Uiso   1.00
C191   C     0.26346   0.05244   0.97492   0.00000  Uiso   1.00
C192   C     0.25263   0.10966   0.92296   0.00000  Uiso   1.00
C193   C     0.23866   0.21503   0.87304   0.00000  Uiso   1.00
C194   C     0.31808   0.89892   0.92176   0.00000  Uiso   1.00
C195   C     0.36930   0.87435   0.97445   0.00000  Uiso   1.00
C196   C     0.40688   0.85013   0.92227   0.00000  Uiso   1.00
C197   C     0.48217   0.80529   0.87196   0.00000  Uiso   1.00
C198   C     0.24656   0.92846   0.77770   0.00000  Uiso   1.00
C199   C     0.20411   0.88958   0.81951   0.00000  Uiso   1.00
C200   C     0.15688   0.85722   0.76638   0.00000  Uiso   1.00
C201   C     0.12330   0.82444   0.81814   0.00000  Uiso   1.00
C202   C     0.24738   0.99604   0.82078   0.00000  Uiso   1.00
C203   C     0.23654   0.05319   0.76872   0.00000  Uiso   1.00
C204   C     0.23939   0.11003   0.82154   0.00000  Uiso   1.00
C205   C     0.30487   0.89929   0.82052   0.00000  Uiso   1.00
C206   C     0.34237   0.87511   0.76825   0.00000  Uiso   1.00
C207   C     0.39364   0.85051   0.82086   0.00000  Uiso   1.00
H208   H     0.28118   0.92749   0.04289   0.00000  Uiso   1.00
H209   H     0.19405   0.85620   0.05093   0.00000  Uiso   1.00
H210   H     0.27370   0.05213   0.05326   0.00000  Uiso   1.00
H211   H     0.37951   0.87408   0.05279   0.00000  Uiso   1.00
H212   H     0.09160   0.77734   0.01520   0.00000  Uiso   1.00
H213   H     0.25957   0.19048   0.02012   0.00000  Uiso   1.00
H214   H     0.48270   0.81502   0.01913   0.00000  Uiso   1.00
H215   H     0.23627   0.92875   0.69889   0.00000  Uiso   1.00
H216   H     0.14666   0.85752   0.68805   0.00000  Uiso   1.00
H217   H     0.22632   0.05346   0.69039   0.00000  Uiso   1.00
H218   H     0.33213   0.87540   0.68991   0.00000  Uiso   1.00
H219   H     0.05314   0.77842   0.72067   0.00000  Uiso   1.00
H220   H     0.22111   0.19156   0.72560   0.00000  Uiso   1.00
H221   H     0.44424   0.81609   0.72460   0.00000  Uiso   1.00
O222   O     0.01422   0.73102   0.86701   0.00000  Uiso   1.00
O223   O     0.23460   0.27305   0.87348   0.00000  Uiso   1.00
O224   O     0.52735   0.78044   0.87217   0.00000  Uiso   1.00
N225   N     0.09485   0.78736   0.94737   0.00000  Uiso   1.00
N226   N     0.25188   0.17362   0.95197   0.00000  Uiso   1.00
N227   N     0.46050   0.82261   0.95104   0.00000  Uiso   1.00
N228   N     0.07415   0.78793   0.78889   0.00000  Uiso   1.00
N229   N     0.23119   0.17420   0.79349   0.00000  Uiso   1.00
N230   N     0.43981   0.82319   0.79256   0.00000  Uiso   1.00
C231   C     0.77089   0.42777   0.96408   0.00000  Uiso   1.00
C232   C     0.71732   0.38921   0.92074   0.00000  Uiso   1.00
C233   C     0.68381   0.35647   0.97259   0.00000  Uiso   1.00
C234   C     0.63654   0.32407   0.91956   0.00000  Uiso   1.00
C235   C     0.55536   0.26416   0.86767   0.00000  Uiso   1.00
C236   C     0.76059   0.49567   0.92201   0.00000  Uiso   1.00
C237   C     0.76346   0.55244   0.97492   0.00000  Uiso   1.00
C238   C     0.75263   0.60966   0.92296   0.00000  Uiso   1.00
C239   C     0.73866   0.71503   0.87304   0.00000  Uiso   1.00
C240   C     0.81808   0.39892   0.92176   0.00000  Uiso   1.00
C241   C     0.86930   0.37435   0.97445   0.00000  Uiso   1.00
C242   C     0.90688   0.35013   0.92227   0.00000  Uiso   1.00
C243   C     0.98217   0.30529   0.87196   0.00000  Uiso   1.00
C244   C     0.74656   0.42846   0.77770   0.00000  Uiso   1.00
C245   C     0.70411   0.38958   0.81951   0.00000  Uiso   1.00
C246   C     0.65688   0.35722   0.76638   0.00000  Uiso   1.00
C247   C     0.62330   0.32444   0.81814   0.00000  Uiso   1.00
C248   C     0.74738   0.49604   0.82078   0.00000  Uiso   1.00
C249   C     0.73654   0.55319   0.76872   0.00000  Uiso   1.00
C250   C     0.73939   0.61003   0.82154   0.00000  Uiso   1.00
C251   C     0.80487   0.39929   0.82052   0.00000  Uiso   1.00
C252   C     0.84237   0.37511   0.76825   0.00000  Uiso   1.00
C253   C     0.89364   0.35051   0.82086   0.00000  Uiso   1.00
H254   H     0.78118   0.42749   0.04289   0.00000  Uiso   1.00
H255   H     0.69405   0.35620   0.05093   0.00000  Uiso   1.00
H256   H     0.77370   0.55213   0.05326   0.00000  Uiso   1.00
H257   H     0.87951   0.37408   0.05279   0.00000  Uiso   1.00
H258   H     0.59160   0.27734   0.01520   0.00000  Uiso   1.00
H259   H     0.75957   0.69048   0.02012   0.00000  Uiso   1.00
H260   H     0.98270   0.31502   0.01913   0.00000  Uiso   1.00
H261   H     0.73627   0.42875   0.69889   0.00000  Uiso   1.00
H262   H     0.64666   0.35752   0.68805   0.00000  Uiso   1.00
H263   H     0.72632   0.55346   0.69039   0.00000  Uiso   1.00
H264   H     0.83213   0.37540   0.68991   0.00000  Uiso   1.00
H265   H     0.55314   0.27842   0.72067   0.00000  Uiso   1.00
H266   H     0.72111   0.69156   0.72560   0.00000  Uiso   1.00
H267   H     0.94424   0.31609   0.72460   0.00000  Uiso   1.00
O268   O     0.51422   0.23102   0.86701   0.00000  Uiso   1.00
O269   O     0.73460   0.77305   0.87348   0.00000  Uiso   1.00
O270   O     0.02735   0.28044   0.87217   0.00000  Uiso   1.00
N271   N     0.59485   0.28736   0.94737   0.00000  Uiso   1.00
N272   N     0.75188   0.67362   0.95197   0.00000  Uiso   1.00
N273   N     0.96050   0.32261   0.95104   0.00000  Uiso   1.00
N274   N     0.57415   0.28793   0.78889   0.00000  Uiso   1.00
N275   N     0.73119   0.67420   0.79349   0.00000  Uiso   1.00
N276   N     0.93981   0.32319   0.79256   0.00000  Uiso   1.00
C277   C     0.72911   0.92777   0.53592   0.00000  Uiso   1.00
C278   C     0.78268   0.88921   0.57926   0.00000  Uiso   1.00
C279   C     0.81619   0.85647   0.52741   0.00000  Uiso   1.00
C280   C     0.86346   0.82407   0.58044   0.00000  Uiso   1.00
C281   C     0.94464   0.76416   0.63233   0.00000  Uiso   1.00
C282   C     0.73941   0.99567   0.57799   0.00000  Uiso   1.00
C283   C     0.73654   0.05244   0.52508   0.00000  Uiso   1.00
C284   C     0.74737   0.10966   0.57704   0.00000  Uiso   1.00
C285   C     0.76134   0.21503   0.62696   0.00000  Uiso   1.00
C286   C     0.68192   0.89892   0.57824   0.00000  Uiso   1.00
C287   C     0.63070   0.87435   0.52555   0.00000  Uiso   1.00
C288   C     0.59312   0.85013   0.57773   0.00000  Uiso   1.00
C289   C     0.51783   0.80529   0.62804   0.00000  Uiso   1.00
C290   C     0.75344   0.92846   0.72230   0.00000  Uiso   1.00
C291   C     0.79589   0.88958   0.68049   0.00000  Uiso   1.00
C292   C     0.84312   0.85722   0.73362   0.00000  Uiso   1.00
C293   C     0.87670   0.82444   0.68186   0.00000  Uiso   1.00
C294   C     0.75262   0.99604   0.67922   0.00000  Uiso   1.00
C295   C     0.76346   0.05319   0.73128   0.00000  Uiso   1.00
C296   C     0.76061   0.11003   0.67846   0.00000  Uiso   1.00
C297   C     0.69513   0.89929   0.67948   0.00000  Uiso   1.00
C298   C     0.65763   0.87511   0.73175   0.00000  Uiso   1.00
C299   C     0.60636   0.85051   0.67914   0.00000  Uiso   1.00
H300   H     0.71882   0.92749   0.45711   0.00000  Uiso   1.00
H301   H     0.80595   0.85620   0.44907   0.00000  Uiso   1.00
H302   H     0.72630   0.05213   0.44674   0.00000  Uiso   1.00
H303   H     0.62049   0.87408   0.44721   0.00000  Uiso   1.00
H304   H     0.90840   0.77734   0.48480   0.00000  Uiso   1.00
H305   H     0.74043   0.19048   0.47988   0.00000  Uiso   1.00
H306   H     0.51730   0.81502   0.48087   0.00000  Uiso   1.00
H307   H     0.76373   0.92875   0.80111   0.00000  Uiso   1.00
H308   H     0.85334   0.85752   0.81195   0.00000  Uiso   1.00
H309   H     0.77368   0.05346   0.80961   0.00000  Uiso   1.00
H310   H     0.66787   0.87540   0.81009   0.00000  Uiso   1.00
H311   H     0.94686   0.77842   0.77933   0.00000  Uiso   1.00
H312   H     0.77889   0.19156   0.77440   0.00000  Uiso   1.00
H313   H     0.55576   0.81609   0.77540   0.00000  Uiso   1.00
O314   O     0.98578   0.73102   0.63299   0.00000  Uiso   1.00
O315   O     0.76540   0.27305   0.62652   0.00000  Uiso   1.00
O316   O     0.47265   0.78044   0.62783   0.00000  Uiso   1.00
N317   N     0.90515   0.78736   0.55263   0.00000  Uiso   1.00
N318   N     0.74812   0.17362   0.54803   0.00000  Uiso   1.00
N319   N     0.53950   0.82261   0.54896   0.00000  Uiso   1.00
N320   N     0.92585   0.78793   0.71111   0.00000  Uiso   1.00
N321   N     0.76881   0.17420   0.70651   0.00000  Uiso   1.00
N322   N     0.56019   0.82319   0.70744   0.00000  Uiso   1.00
C323   C     0.22911   0.42777   0.53592   0.00000  Uiso   1.00
C324   C     0.28268   0.38921   0.57926   0.00000  Uiso   1.00
C325   C     0.31619   0.35647   0.52741   0.00000  Uiso   1.00
C326   C     0.36346   0.32407   0.58044   0.00000  Uiso   1.00
C327   C     0.44464   0.26416   0.63233   0.00000  Uiso   1.00
C328   C     0.23941   0.49567   0.57799   0.00000  Uiso   1.00
C329   C     0.23654   0.55244   0.52508   0.00000  Uiso   1.00
C330   C     0.24737   0.60966   0.57704   0.00000  Uiso   1.00
C331   C     0.26134   0.71503   0.62696   0.00000  Uiso   1.00
C332   C     0.18192   0.39892   0.57824   0.00000  Uiso   1.00
C333   C     0.13070   0.37435   0.52555   0.00000  Uiso   1.00
C334   C     0.09312   0.35013   0.57773   0.00000  Uiso   1.00
C335   C     0.01783   0.30529   0.62804   0.00000  Uiso   1.00
C336   C     0.25344   0.42846   0.72230   0.00000  Uiso   1.00
C337   C     0.29589   0.38958   0.68049   0.00000  Uiso   1.00
C338   C     0.34312   0.35722   0.73362   0.00000  Uiso   1.00
C339   C     0.37670   0.32444   0.68186   0.00000  Uiso   1.00
C340   C     0.25262   0.49604   0.67922   0.00000  Uiso   1.00
C341   C     0.26346   0.55319   0.73128   0.00000  Uiso   1.00
C342   C     0.26061   0.61003   0.67846   0.00000  Uiso   1.00
C343   C     0.19513   0.39929   0.67948   0.00000  Uiso   1.00
C344   C     0.15763   0.37511   0.73175   0.00000  Uiso   1.00
C345   C     0.10636   0.35051   0.67914   0.00000  Uiso   1.00
H346   H     0.21882   0.42749   0.45711   0.00000  Uiso   1.00
H347   H     0.30595   0.35620   0.44907   0.00000  Uiso   1.00
H348   H     0.22630   0.55213   0.44674   0.00000  Uiso   1.00
H349   H     0.12049   0.37408   0.44721   0.00000  Uiso   1.00
H350   H     0.40840   0.27734   0.48480   0.00000  Uiso   1.00
H351   H     0.24043   0.69048   0.47988   0.00000  Uiso   1.00
H352   H     0.01730   0.31502   0.48087   0.00000  Uiso   1.00
H353   H     0.26373   0.42875   0.80111   0.00000  Uiso   1.00
H354   H     0.35334   0.35752   0.81195   0.00000  Uiso   1.00
H355   H     0.27368   0.55346   0.80961   0.00000  Uiso   1.00
H356   H     0.16787   0.37540   0.81009   0.00000  Uiso   1.00
H357   H     0.44686   0.27842   0.77933   0.00000  Uiso   1.00
H358   H     0.27889   0.69156   0.77440   0.00000  Uiso   1.00
H359   H     0.05576   0.31609   0.77540   0.00000  Uiso   1.00
O360   O     0.48578   0.23102   0.63299   0.00000  Uiso   1.00
O361   O     0.26540   0.77305   0.62652   0.00000  Uiso   1.00
O362   O     0.97265   0.28044   0.62783   0.00000  Uiso   1.00
N363   N     0.40515   0.28736   0.55263   0.00000  Uiso   1.00
N364   N     0.24812   0.67362   0.54803   0.00000  Uiso   1.00
N365   N     0.03950   0.32261   0.54896   0.00000  Uiso   1.00
N366   N     0.42585   0.28793   0.71111   0.00000  Uiso   1.00
N367   N     0.26881   0.67420   0.70651   0.00000  Uiso   1.00
N368   N     0.06019   0.32319   0.70744   0.00000  Uiso   1.00
