data_job_01104
_audit_creation_date              2018-12-19
_audit_creation_method            'Materials Studio'
_symmetry_space_group_name_H-M    'P1'
_symmetry_Int_Tables_number       1
_symmetry_cell_setting            triclinic
loop_
_symmetry_equiv_pos_as_xyz
  x,y,z
_cell_length_a                    20.1846
_cell_length_b                    29.1091
_cell_length_c                    12.4704
_cell_angle_alpha                 90.0000
_cell_angle_beta                  142.2560
_cell_angle_gamma                 90.0000
loop_
_atom_site_label
_atom_site_type_symbol
_atom_site_fract_x
_atom_site_fract_y
_atom_site_fract_z
_atom_site_U_iso_or_equiv
_atom_site_adp_type
_atom_site_occupancy
C1     C     0.45353   0.57501   0.21271   0.00000  Uiso   1.00
C2     C     0.54893   0.57191   0.41205   0.00000  Uiso   1.00
C3     C     0.57761   0.53358   0.50850   0.00000  Uiso   1.00
C4     C     0.66756   0.53767   0.68967   0.00000  Uiso   1.00
C5     C     0.80666   0.52663   0.98679   0.00000  Uiso   1.00
C6     C     0.38525   0.61547   0.16345   0.00000  Uiso   1.00
C7     C     0.27631   0.61376   0.05086   0.00000  Uiso   1.00
C8     C     0.22848   0.65452   0.02274   0.00000  Uiso   1.00
C9     C     0.11345   0.71112   0.93380   0.00000  Uiso   1.00
C10    C     0.50095   0.58935   0.16557   0.00000  Uiso   1.00
C11    C     0.48927   0.56568   0.05471   0.00000  Uiso   1.00
C12    C     0.53883   0.58446   0.02834   0.00000  Uiso   1.00
C13    C     0.60343   0.60050   0.94269   0.00000  Uiso   1.00
C14    C     0.56228   0.65046   0.36295   0.00000  Uiso   1.00
C15    C     0.60799   0.61289   0.49366   0.00000  Uiso   1.00
C16    C     0.69793   0.61705   0.67473   0.00000  Uiso   1.00
C17    C     0.72674   0.57872   0.77142   0.00000  Uiso   1.00
C18    C     0.44431   0.65645   0.24506   0.00000  Uiso   1.00
C19    C     0.39663   0.69723   0.21709   0.00000  Uiso   1.00
C20    C     0.28765   0.69558   0.10449   0.00000  Uiso   1.00
C21    C     0.56002   0.63033   0.24718   0.00000  Uiso   1.00
C22    C     0.60959   0.64915   0.22096   0.00000  Uiso   1.00
C23    C     0.59800   0.62551   0.11009   0.00000  Uiso   1.00
H24    H     0.40754   0.54311   0.14917   0.00000  Uiso   1.00
H25    H     0.53187   0.50187   0.44529   0.00000  Uiso   1.00
H26    H     0.23062   0.58204   0.98771   0.00000  Uiso   1.00
H27    H     0.44355   0.53397   0.99158   0.00000  Uiso   1.00
H28    H     0.69574   0.47422   0.80960   0.00000  Uiso   1.00
H29    H     0.06053   0.64327   0.84471   0.00000  Uiso   1.00
H30    H     0.50953   0.54191   0.85287   0.00000  Uiso   1.00
H31    H     0.60827   0.68236   0.42648   0.00000  Uiso   1.00
H32    H     0.74362   0.64876   0.73784   0.00000  Uiso   1.00
H33    H     0.44236   0.72894   0.28025   0.00000  Uiso   1.00
H34    H     0.65529   0.68087   0.28413   0.00000  Uiso   1.00
H35    H     0.86760   0.59345   0.04704   0.00000  Uiso   1.00
H36    H     0.23238   0.76250   0.08214   0.00000  Uiso   1.00
H37    H     0.68139   0.66113   0.09031   0.00000  Uiso   1.00
O38    O     0.86706   0.50923   0.12813   0.00000  Uiso   1.00
O39    O     0.03368   0.73102   0.86221   0.00000  Uiso   1.00
O40    O     0.62277   0.59802   0.87293   0.00000  Uiso   1.00
N41    N     0.71762   0.50689   0.82275   0.00000  Uiso   1.00
N42    N     0.12374   0.66494   0.92066   0.00000  Uiso   1.00
N43    N     0.54349   0.57018   0.92825   0.00000  Uiso   1.00
N44    N     0.81010   0.57105   0.95052   0.00000  Uiso   1.00
N45    N     0.21622   0.72910   0.04843   0.00000  Uiso   1.00
N46    N     0.63597   0.63433   0.05601   0.00000  Uiso   1.00
C47    C     0.81784   0.08684   0.17104   0.00000  Uiso   1.00
C48    C     0.91276   0.08703   0.37069   0.00000  Uiso   1.00
C49    C     0.94447   0.05053   0.47562   0.00000  Uiso   1.00
C50    C     0.03338   0.05756   0.65549   0.00000  Uiso   1.00
C51    C     0.17234   0.05146   0.95452   0.00000  Uiso   1.00
C52    C     0.74549   0.12688   0.11133   0.00000  Uiso   1.00
C53    C     0.63656   0.12388   0.99818   0.00000  Uiso   1.00
C54    C     0.58466   0.16446   0.95971   0.00000  Uiso   1.00
C55    C     0.46391   0.22023   0.85597   0.00000  Uiso   1.00
C56    C     0.86483   0.09966   0.12214   0.00000  Uiso   1.00
C57    C     0.85623   0.07379   0.01804   0.00000  Uiso   1.00
C58    C     0.90479   0.09145   0.98864   0.00000  Uiso   1.00
C59    C     0.96934   0.10496   0.90169   0.00000  Uiso   1.00
C60    C     0.91934   0.16422   0.30389   0.00000  Uiso   1.00
C61    C     0.96788   0.12906   0.44284   0.00000  Uiso   1.00
C62    C     0.05677   0.13614   0.62260   0.00000  Uiso   1.00
C63    C     0.08862   0.09967   0.72778   0.00000  Uiso   1.00
C64    C     0.80061   0.16890   0.18348   0.00000  Uiso   1.00
C65    C     0.74886   0.20949   0.14516   0.00000  Uiso   1.00
C66    C     0.63989   0.20656   0.03199   0.00000  Uiso   1.00
C67    C     0.91997   0.14169   0.19430   0.00000  Uiso   1.00
C68    C     0.96854   0.15940   0.16504   0.00000  Uiso   1.00
C69    C     0.96002   0.13356   0.06092   0.00000  Uiso   1.00
H70    H     0.77492   0.05412   0.11486   0.00000  Uiso   1.00
H71    H     0.90178   0.01801   0.41973   0.00000  Uiso   1.00
H72    H     0.59392   0.09135   0.94235   0.00000  Uiso   1.00
H73    H     0.81356   0.04127   0.96223   0.00000  Uiso   1.00
H74    H     0.06673   0.99652   0.78955   0.00000  Uiso   1.00
H75    H     0.41757   0.15116   0.78293   0.00000  Uiso   1.00
H76    H     0.88072   0.04554   0.82483   0.00000  Uiso   1.00
H77    H     0.96226   0.19695   0.36006   0.00000  Uiso   1.00
H78    H     0.09942   0.16867   0.67840   0.00000  Uiso   1.00
H79    H     0.79155   0.24201   0.20102   0.00000  Uiso   1.00
H80    H     0.01119   0.19192   0.22089   0.00000  Uiso   1.00
H81    H     0.22713   0.11880   0.99950   0.00000  Uiso   1.00
H82    H     0.57797   0.27344   0.99286   0.00000  Uiso   1.00
H83    H     0.04113   0.16782   0.03478   0.00000  Uiso   1.00
O84    O     0.23375   0.03649   0.09951   0.00000  Uiso   1.00
O85    O     0.38208   0.23937   0.77883   0.00000  Uiso   1.00
O86    O     0.98973   0.10080   0.83382   0.00000  Uiso   1.00
N87    N     0.08567   0.02917   0.79528   0.00000  Uiso   1.00
N88    N     0.47875   0.17376   0.85416   0.00000  Uiso   1.00
N89    N     0.91173   0.07502   0.89330   0.00000  Uiso   1.00
N90    N     0.17198   0.09497   0.90825   0.00000  Uiso   1.00
N91    N     0.56506   0.23955   0.96713   0.00000  Uiso   1.00
N92    N     0.99805   0.14081   0.00627   0.00000  Uiso   1.00
C93    C     0.54647   0.07501   0.28729   0.00000  Uiso   1.00
C94    C     0.45107   0.07191   0.08795   0.00000  Uiso   1.00
C95    C     0.42239   0.03358   0.99150   0.00000  Uiso   1.00
C96    C     0.33244   0.03767   0.81033   0.00000  Uiso   1.00
C97    C     0.19334   0.02663   0.51321   0.00000  Uiso   1.00
C98    C     0.61475   0.11547   0.33655   0.00000  Uiso   1.00
C99    C     0.72369   0.11376   0.44914   0.00000  Uiso   1.00
C100   C     0.77152   0.15452   0.47726   0.00000  Uiso   1.00
C101   C     0.88655   0.21112   0.56620   0.00000  Uiso   1.00
C102   C     0.49905   0.08935   0.33443   0.00000  Uiso   1.00
C103   C     0.51073   0.06568   0.44529   0.00000  Uiso   1.00
C104   C     0.46117   0.08446   0.47166   0.00000  Uiso   1.00
C105   C     0.39657   0.10050   0.55731   0.00000  Uiso   1.00
C106   C     0.43772   0.15046   0.13705   0.00000  Uiso   1.00
C107   C     0.39201   0.11289   0.00634   0.00000  Uiso   1.00
C108   C     0.30207   0.11705   0.82527   0.00000  Uiso   1.00
C109   C     0.27326   0.07872   0.72858   0.00000  Uiso   1.00
C110   C     0.55569   0.15645   0.25494   0.00000  Uiso   1.00
C111   C     0.60337   0.19723   0.28291   0.00000  Uiso   1.00
C112   C     0.71235   0.19558   0.39551   0.00000  Uiso   1.00
C113   C     0.43998   0.13033   0.25282   0.00000  Uiso   1.00
C114   C     0.39041   0.14915   0.27904   0.00000  Uiso   1.00
C115   C     0.40200   0.12551   0.38991   0.00000  Uiso   1.00
H116   H     0.59246   0.04311   0.35083   0.00000  Uiso   1.00
H117   H     0.46813   0.00187   0.05471   0.00000  Uiso   1.00
H118   H     0.76938   0.08204   0.51229   0.00000  Uiso   1.00
H119   H     0.55645   0.03397   0.50842   0.00000  Uiso   1.00
H120   H     0.30426   0.97422   0.69040   0.00000  Uiso   1.00
H121   H     0.93947   0.14327   0.65529   0.00000  Uiso   1.00
H122   H     0.49047   0.04191   0.64713   0.00000  Uiso   1.00
H123   H     0.39173   0.18236   0.07352   0.00000  Uiso   1.00
H124   H     0.25638   0.14876   0.76216   0.00000  Uiso   1.00
H125   H     0.55764   0.22894   0.21975   0.00000  Uiso   1.00
H126   H     0.34471   0.18087   0.21587   0.00000  Uiso   1.00
H127   H     0.13240   0.09345   0.45296   0.00000  Uiso   1.00
H128   H     0.76762   0.26250   0.41786   0.00000  Uiso   1.00
H129   H     0.31861   0.16113   0.40969   0.00000  Uiso   1.00
O130   O     0.13294   0.00923   0.37187   0.00000  Uiso   1.00
O131   O     0.96632   0.23102   0.63779   0.00000  Uiso   1.00
O132   O     0.37723   0.09802   0.62707   0.00000  Uiso   1.00
N133   N     0.28238   0.00689   0.67725   0.00000  Uiso   1.00
N134   N     0.87626   0.16494   0.57934   0.00000  Uiso   1.00
N135   N     0.45651   0.07018   0.57175   0.00000  Uiso   1.00
N136   N     0.18990   0.07105   0.54948   0.00000  Uiso   1.00
N137   N     0.78378   0.22910   0.45157   0.00000  Uiso   1.00
N138   N     0.36403   0.13433   0.44399   0.00000  Uiso   1.00
C139   C     0.18216   0.58684   0.32896   0.00000  Uiso   1.00
C140   C     0.08724   0.58703   0.12931   0.00000  Uiso   1.00
C141   C     0.05553   0.55053   0.02438   0.00000  Uiso   1.00
C142   C     0.96662   0.55756   0.84451   0.00000  Uiso   1.00
C143   C     0.82766   0.55146   0.54548   0.00000  Uiso   1.00
C144   C     0.25451   0.62688   0.38867   0.00000  Uiso   1.00
C145   C     0.36344   0.62388   0.50182   0.00000  Uiso   1.00
C146   C     0.41534   0.66446   0.54029   0.00000  Uiso   1.00
C147   C     0.53609   0.72023   0.64403   0.00000  Uiso   1.00
C148   C     0.13517   0.59966   0.37786   0.00000  Uiso   1.00
C149   C     0.14377   0.57379   0.48196   0.00000  Uiso   1.00
C150   C     0.09521   0.59145   0.51136   0.00000  Uiso   1.00
C151   C     0.03066   0.60496   0.59831   0.00000  Uiso   1.00
C152   C     0.08066   0.66422   0.19611   0.00000  Uiso   1.00
C153   C     0.03212   0.62906   0.05716   0.00000  Uiso   1.00
C154   C     0.94323   0.63614   0.87740   0.00000  Uiso   1.00
C155   C     0.91138   0.59967   0.77222   0.00000  Uiso   1.00
C156   C     0.19939   0.66890   0.31652   0.00000  Uiso   1.00
C157   C     0.25114   0.70949   0.35484   0.00000  Uiso   1.00
C158   C     0.36011   0.70656   0.46801   0.00000  Uiso   1.00
C159   C     0.08003   0.64169   0.30570   0.00000  Uiso   1.00
C160   C     0.03146   0.65940   0.33496   0.00000  Uiso   1.00
C161   C     0.03998   0.63356   0.43908   0.00000  Uiso   1.00
H162   H     0.22508   0.55412   0.38514   0.00000  Uiso   1.00
H163   H     0.09822   0.51801   0.08027   0.00000  Uiso   1.00
H164   H     0.40608   0.59135   0.55765   0.00000  Uiso   1.00
H165   H     0.18644   0.54127   0.53777   0.00000  Uiso   1.00
H166   H     0.93327   0.49652   0.71045   0.00000  Uiso   1.00
H167   H     0.58243   0.65116   0.71707   0.00000  Uiso   1.00
H168   H     0.11928   0.54554   0.67517   0.00000  Uiso   1.00
H169   H     0.03774   0.69695   0.13994   0.00000  Uiso   1.00
H170   H     0.90058   0.66867   0.82160   0.00000  Uiso   1.00
H171   H     0.20845   0.74201   0.29898   0.00000  Uiso   1.00
H172   H     0.98881   0.69192   0.27911   0.00000  Uiso   1.00
H173   H     0.77287   0.61880   0.50050   0.00000  Uiso   1.00
H174   H     0.42203   0.77344   0.50714   0.00000  Uiso   1.00
H175   H     0.95887   0.66782   0.46522   0.00000  Uiso   1.00
O176   O     0.76625   0.53649   0.40049   0.00000  Uiso   1.00
O177   O     0.61792   0.73937   0.72117   0.00000  Uiso   1.00
O178   O     0.01027   0.60080   0.66618   0.00000  Uiso   1.00
N179   N     0.91433   0.52917   0.70472   0.00000  Uiso   1.00
N180   N     0.52125   0.67376   0.64584   0.00000  Uiso   1.00
N181   N     0.08827   0.57502   0.60670   0.00000  Uiso   1.00
N182   N     0.82802   0.59497   0.59175   0.00000  Uiso   1.00
N183   N     0.43494   0.73955   0.53287   0.00000  Uiso   1.00
N184   N     0.00195   0.64081   0.49373   0.00000  Uiso   1.00
C185   C     0.54647   0.42499   0.78729   0.00000  Uiso   1.00
C186   C     0.45107   0.42809   0.58795   0.00000  Uiso   1.00
C187   C     0.42239   0.46642   0.49150   0.00000  Uiso   1.00
C188   C     0.33244   0.46233   0.31033   0.00000  Uiso   1.00
C189   C     0.19334   0.47337   0.01321   0.00000  Uiso   1.00
C190   C     0.61475   0.38453   0.83655   0.00000  Uiso   1.00
C191   C     0.72369   0.38624   0.94914   0.00000  Uiso   1.00
C192   C     0.77152   0.34548   0.97726   0.00000  Uiso   1.00
C193   C     0.88655   0.28888   0.06620   0.00000  Uiso   1.00
C194   C     0.49905   0.41065   0.83443   0.00000  Uiso   1.00
C195   C     0.51073   0.43432   0.94529   0.00000  Uiso   1.00
C196   C     0.46117   0.41554   0.97166   0.00000  Uiso   1.00
C197   C     0.39657   0.39950   0.05731   0.00000  Uiso   1.00
C198   C     0.43772   0.34954   0.63705   0.00000  Uiso   1.00
C199   C     0.39201   0.38711   0.50634   0.00000  Uiso   1.00
C200   C     0.30207   0.38295   0.32527   0.00000  Uiso   1.00
C201   C     0.27326   0.42128   0.22858   0.00000  Uiso   1.00
C202   C     0.55569   0.34355   0.75494   0.00000  Uiso   1.00
C203   C     0.60337   0.30277   0.78291   0.00000  Uiso   1.00
C204   C     0.71235   0.30442   0.89551   0.00000  Uiso   1.00
C205   C     0.43998   0.36967   0.75282   0.00000  Uiso   1.00
C206   C     0.39041   0.35085   0.77904   0.00000  Uiso   1.00
C207   C     0.40200   0.37449   0.88991   0.00000  Uiso   1.00
H208   H     0.59246   0.45689   0.85083   0.00000  Uiso   1.00
H209   H     0.46813   0.49813   0.55471   0.00000  Uiso   1.00
H210   H     0.76938   0.41796   0.01229   0.00000  Uiso   1.00
H211   H     0.55645   0.46603   0.00842   0.00000  Uiso   1.00
H212   H     0.30426   0.52578   0.19040   0.00000  Uiso   1.00
H213   H     0.93947   0.35673   0.15529   0.00000  Uiso   1.00
H214   H     0.49047   0.45809   0.14713   0.00000  Uiso   1.00
H215   H     0.39173   0.31764   0.57352   0.00000  Uiso   1.00
H216   H     0.25638   0.35124   0.26216   0.00000  Uiso   1.00
H217   H     0.55764   0.27106   0.71975   0.00000  Uiso   1.00
H218   H     0.34471   0.31913   0.71587   0.00000  Uiso   1.00
H219   H     0.13240   0.40655   0.95296   0.00000  Uiso   1.00
H220   H     0.76762   0.23750   0.91786   0.00000  Uiso   1.00
H221   H     0.31861   0.33887   0.90969   0.00000  Uiso   1.00
O222   O     0.13294   0.49077   0.87187   0.00000  Uiso   1.00
O223   O     0.96632   0.26898   0.13779   0.00000  Uiso   1.00
O224   O     0.37723   0.40198   0.12707   0.00000  Uiso   1.00
N225   N     0.28238   0.49311   0.17725   0.00000  Uiso   1.00
N226   N     0.87626   0.33506   0.07934   0.00000  Uiso   1.00
N227   N     0.45651   0.42982   0.07175   0.00000  Uiso   1.00
N228   N     0.18990   0.42895   0.04948   0.00000  Uiso   1.00
N229   N     0.78378   0.27090   0.95157   0.00000  Uiso   1.00
N230   N     0.36403   0.36567   0.94399   0.00000  Uiso   1.00
C231   C     0.18216   0.91316   0.82896   0.00000  Uiso   1.00
C232   C     0.08724   0.91297   0.62931   0.00000  Uiso   1.00
C233   C     0.05553   0.94947   0.52438   0.00000  Uiso   1.00
C234   C     0.96662   0.94244   0.34451   0.00000  Uiso   1.00
C235   C     0.82766   0.94854   0.04548   0.00000  Uiso   1.00
C236   C     0.25451   0.87312   0.88867   0.00000  Uiso   1.00
C237   C     0.36344   0.87612   0.00182   0.00000  Uiso   1.00
C238   C     0.41534   0.83554   0.04029   0.00000  Uiso   1.00
C239   C     0.53609   0.77977   0.14403   0.00000  Uiso   1.00
C240   C     0.13517   0.90034   0.87786   0.00000  Uiso   1.00
C241   C     0.14377   0.92621   0.98196   0.00000  Uiso   1.00
C242   C     0.09521   0.90855   0.01136   0.00000  Uiso   1.00
C243   C     0.03066   0.89504   0.09831   0.00000  Uiso   1.00
C244   C     0.08066   0.83578   0.69611   0.00000  Uiso   1.00
C245   C     0.03212   0.87094   0.55716   0.00000  Uiso   1.00
C246   C     0.94323   0.86386   0.37740   0.00000  Uiso   1.00
C247   C     0.91138   0.90033   0.27222   0.00000  Uiso   1.00
C248   C     0.19939   0.83110   0.81652   0.00000  Uiso   1.00
C249   C     0.25114   0.79051   0.85484   0.00000  Uiso   1.00
C250   C     0.36011   0.79344   0.96801   0.00000  Uiso   1.00
C251   C     0.08003   0.85831   0.80570   0.00000  Uiso   1.00
C252   C     0.03146   0.84060   0.83496   0.00000  Uiso   1.00
C253   C     0.03998   0.86644   0.93908   0.00000  Uiso   1.00
H254   H     0.22508   0.94588   0.88514   0.00000  Uiso   1.00
H255   H     0.09822   0.98199   0.58027   0.00000  Uiso   1.00
H256   H     0.40608   0.90865   0.05765   0.00000  Uiso   1.00
H257   H     0.18644   0.95873   0.03777   0.00000  Uiso   1.00
H258   H     0.93327   0.00348   0.21045   0.00000  Uiso   1.00
H259   H     0.58243   0.84884   0.21707   0.00000  Uiso   1.00
H260   H     0.11928   0.95446   0.17517   0.00000  Uiso   1.00
H261   H     0.03774   0.80305   0.63994   0.00000  Uiso   1.00
H262   H     0.90058   0.83133   0.32160   0.00000  Uiso   1.00
H263   H     0.20845   0.75799   0.79898   0.00000  Uiso   1.00
H264   H     0.98881   0.80808   0.77911   0.00000  Uiso   1.00
H265   H     0.77287   0.88120   0.00050   0.00000  Uiso   1.00
H266   H     0.42203   0.72656   0.00714   0.00000  Uiso   1.00
H267   H     0.95887   0.83218   0.96522   0.00000  Uiso   1.00
O268   O     0.76625   0.96351   0.90049   0.00000  Uiso   1.00
O269   O     0.61792   0.76063   0.22117   0.00000  Uiso   1.00
O270   O     0.01027   0.89920   0.16618   0.00000  Uiso   1.00
N271   N     0.91433   0.97083   0.20472   0.00000  Uiso   1.00
N272   N     0.52125   0.82624   0.14584   0.00000  Uiso   1.00
N273   N     0.08827   0.92498   0.10670   0.00000  Uiso   1.00
N274   N     0.82802   0.90503   0.09175   0.00000  Uiso   1.00
N275   N     0.43494   0.76045   0.03287   0.00000  Uiso   1.00
N276   N     0.00195   0.85919   0.99373   0.00000  Uiso   1.00
C277   C     0.45353   0.92499   0.71271   0.00000  Uiso   1.00
C278   C     0.54893   0.92809   0.91205   0.00000  Uiso   1.00
C279   C     0.57761   0.96642   0.00850   0.00000  Uiso   1.00
C280   C     0.66756   0.96233   0.18967   0.00000  Uiso   1.00
C281   C     0.80666   0.97337   0.48679   0.00000  Uiso   1.00
C282   C     0.38525   0.88453   0.66345   0.00000  Uiso   1.00
C283   C     0.27631   0.88624   0.55086   0.00000  Uiso   1.00
C284   C     0.22848   0.84548   0.52274   0.00000  Uiso   1.00
C285   C     0.11345   0.78888   0.43380   0.00000  Uiso   1.00
C286   C     0.50095   0.91065   0.66557   0.00000  Uiso   1.00
C287   C     0.48927   0.93432   0.55471   0.00000  Uiso   1.00
C288   C     0.53883   0.91554   0.52834   0.00000  Uiso   1.00
C289   C     0.60343   0.89950   0.44269   0.00000  Uiso   1.00
C290   C     0.56228   0.84954   0.86295   0.00000  Uiso   1.00
C291   C     0.60799   0.88711   0.99366   0.00000  Uiso   1.00
C292   C     0.69793   0.88295   0.17473   0.00000  Uiso   1.00
C293   C     0.72674   0.92128   0.27142   0.00000  Uiso   1.00
C294   C     0.44431   0.84355   0.74506   0.00000  Uiso   1.00
C295   C     0.39663   0.80277   0.71709   0.00000  Uiso   1.00
C296   C     0.28765   0.80442   0.60449   0.00000  Uiso   1.00
C297   C     0.56002   0.86967   0.74718   0.00000  Uiso   1.00
C298   C     0.60959   0.85085   0.72096   0.00000  Uiso   1.00
C299   C     0.59800   0.87449   0.61009   0.00000  Uiso   1.00
H300   H     0.40754   0.95689   0.64917   0.00000  Uiso   1.00
H301   H     0.53187   0.99813   0.94529   0.00000  Uiso   1.00
H302   H     0.23062   0.91796   0.48771   0.00000  Uiso   1.00
H303   H     0.44355   0.96603   0.49158   0.00000  Uiso   1.00
H304   H     0.69574   0.02578   0.30960   0.00000  Uiso   1.00
H305   H     0.06053   0.85673   0.34471   0.00000  Uiso   1.00
H306   H     0.50953   0.95809   0.35287   0.00000  Uiso   1.00
H307   H     0.60827   0.81764   0.92648   0.00000  Uiso   1.00
H308   H     0.74362   0.85124   0.23784   0.00000  Uiso   1.00
H309   H     0.44236   0.77106   0.78025   0.00000  Uiso   1.00
H310   H     0.65529   0.81913   0.78413   0.00000  Uiso   1.00
H311   H     0.86760   0.90655   0.54704   0.00000  Uiso   1.00
H312   H     0.23238   0.73750   0.58214   0.00000  Uiso   1.00
H313   H     0.68139   0.83887   0.59031   0.00000  Uiso   1.00
O314   O     0.86706   0.99077   0.62813   0.00000  Uiso   1.00
O315   O     0.03368   0.76898   0.36221   0.00000  Uiso   1.00
O316   O     0.62277   0.90198   0.37293   0.00000  Uiso   1.00
N317   N     0.71762   0.99311   0.32275   0.00000  Uiso   1.00
N318   N     0.12374   0.83506   0.42066   0.00000  Uiso   1.00
N319   N     0.54349   0.92982   0.42825   0.00000  Uiso   1.00
N320   N     0.81010   0.92895   0.45052   0.00000  Uiso   1.00
N321   N     0.21622   0.77090   0.54843   0.00000  Uiso   1.00
N322   N     0.63597   0.86567   0.55601   0.00000  Uiso   1.00
C323   C     0.81784   0.41316   0.67104   0.00000  Uiso   1.00
C324   C     0.91276   0.41297   0.87069   0.00000  Uiso   1.00
C325   C     0.94447   0.44947   0.97562   0.00000  Uiso   1.00
C326   C     0.03338   0.44244   0.15549   0.00000  Uiso   1.00
C327   C     0.17234   0.44854   0.45452   0.00000  Uiso   1.00
C328   C     0.74549   0.37312   0.61133   0.00000  Uiso   1.00
C329   C     0.63656   0.37612   0.49818   0.00000  Uiso   1.00
C330   C     0.58466   0.33554   0.45971   0.00000  Uiso   1.00
C331   C     0.46391   0.27977   0.35597   0.00000  Uiso   1.00
C332   C     0.86483   0.40034   0.62214   0.00000  Uiso   1.00
C333   C     0.85623   0.42621   0.51804   0.00000  Uiso   1.00
C334   C     0.90479   0.40855   0.48864   0.00000  Uiso   1.00
C335   C     0.96934   0.39504   0.40169   0.00000  Uiso   1.00
C336   C     0.91934   0.33578   0.80389   0.00000  Uiso   1.00
C337   C     0.96788   0.37094   0.94284   0.00000  Uiso   1.00
C338   C     0.05677   0.36386   0.12260   0.00000  Uiso   1.00
C339   C     0.08862   0.40033   0.22778   0.00000  Uiso   1.00
C340   C     0.80061   0.33110   0.68348   0.00000  Uiso   1.00
C341   C     0.74886   0.29051   0.64516   0.00000  Uiso   1.00
C342   C     0.63989   0.29344   0.53199   0.00000  Uiso   1.00
C343   C     0.91997   0.35831   0.69430   0.00000  Uiso   1.00
C344   C     0.96854   0.34060   0.66504   0.00000  Uiso   1.00
C345   C     0.96002   0.36644   0.56092   0.00000  Uiso   1.00
H346   H     0.77492   0.44588   0.61486   0.00000  Uiso   1.00
H347   H     0.90178   0.48199   0.91973   0.00000  Uiso   1.00
H348   H     0.59392   0.40865   0.44235   0.00000  Uiso   1.00
H349   H     0.81356   0.45873   0.46223   0.00000  Uiso   1.00
H350   H     0.06673   0.50348   0.28955   0.00000  Uiso   1.00
H351   H     0.41757   0.34884   0.28293   0.00000  Uiso   1.00
H352   H     0.88072   0.45446   0.32483   0.00000  Uiso   1.00
H353   H     0.96226   0.30305   0.86006   0.00000  Uiso   1.00
H354   H     0.09942   0.33133   0.17840   0.00000  Uiso   1.00
H355   H     0.79155   0.25799   0.70102   0.00000  Uiso   1.00
H356   H     0.01119   0.30808   0.72089   0.00000  Uiso   1.00
H357   H     0.22713   0.38120   0.49950   0.00000  Uiso   1.00
H358   H     0.57797   0.22656   0.49286   0.00000  Uiso   1.00
H359   H     0.04113   0.33218   0.53478   0.00000  Uiso   1.00
O360   O     0.23375   0.46351   0.59951   0.00000  Uiso   1.00
O361   O     0.38208   0.26063   0.27883   0.00000  Uiso   1.00
O362   O     0.98973   0.39920   0.33382   0.00000  Uiso   1.00
N363   N     0.08567   0.47083   0.29528   0.00000  Uiso   1.00
N364   N     0.47875   0.32624   0.35416   0.00000  Uiso   1.00
N365   N     0.91173   0.42498   0.39330   0.00000  Uiso   1.00
N366   N     0.17198   0.40503   0.40825   0.00000  Uiso   1.00
N367   N     0.56506   0.26045   0.46713   0.00000  Uiso   1.00
N368   N     0.99805   0.35919   0.50627   0.00000  Uiso   1.00
