data_job_02448
_audit_creation_date              2018-12-19
_audit_creation_method            'Materials Studio'
_symmetry_space_group_name_H-M    'P1'
_symmetry_Int_Tables_number       1
_symmetry_cell_setting            triclinic
loop_
_symmetry_equiv_pos_as_xyz
  x,y,z
_cell_length_a                    12.5191
_cell_length_b                    12.5191
_cell_length_c                    29.7149
_cell_angle_alpha                 90.0000
_cell_angle_beta                  90.0000
_cell_angle_gamma                 90.0000
loop_
_atom_site_label
_atom_site_type_symbol
_atom_site_fract_x
_atom_site_fract_y
_atom_site_fract_z
_atom_site_U_iso_or_equiv
_atom_site_adp_type
_atom_site_occupancy
C1     C     0.16425   0.63703   0.30476   0.00000  Uiso   1.00
C2     C     0.27692   0.63139   0.32412   0.00000  Uiso   1.00
C3     C     0.36556   0.68525   0.30764   0.00000  Uiso   1.00
C4     C     0.46156   0.66950   0.33008   0.00000  Uiso   1.00
C5     C     0.63545   0.67092   0.35441   0.00000  Uiso   1.00
C6     C     0.13235   0.52218   0.29420   0.00000  Uiso   1.00
C7     C     0.09942   0.48421   0.25257   0.00000  Uiso   1.00
C8     C     0.07371   0.37653   0.24983   0.00000  Uiso   1.00
C9     C     0.02307   0.20841   0.22773   0.00000  Uiso   1.00
C10    C     0.09230   0.67273   0.34334   0.00000  Uiso   1.00
C11    C     0.02568   0.76133   0.34301   0.00000  Uiso   1.00
C12    C     0.96622   0.78039   0.38163   0.00000  Uiso   1.00
C13    C     0.85341   0.84602   0.43582   0.00000  Uiso   1.00
C14    C     0.17710   0.51330   0.37391   0.00000  Uiso   1.00
C15    C     0.28389   0.56419   0.36168   0.00000  Uiso   1.00
C16    C     0.37978   0.54836   0.38415   0.00000  Uiso   1.00
C17    C     0.46855   0.60218   0.36771   0.00000  Uiso   1.00
C18    C     0.13932   0.45497   0.33176   0.00000  Uiso   1.00
C19    C     0.11364   0.34732   0.32908   0.00000  Uiso   1.00
C20    C     0.08069   0.30920   0.28746   0.00000  Uiso   1.00
C21    C     0.09928   0.60553   0.38090   0.00000  Uiso   1.00
C22    C     0.03990   0.62444   0.41952   0.00000  Uiso   1.00
C23    C     0.97321   0.71306   0.41926   0.00000  Uiso   1.00
H24    H     0.15882   0.68935   0.27551   0.00000  Uiso   1.00
H25    H     0.36013   0.73724   0.27857   0.00000  Uiso   1.00
H26    H     0.09402   0.53624   0.22351   0.00000  Uiso   1.00
H27    H     0.02030   0.81332   0.31394   0.00000  Uiso   1.00
H28    H     0.58641   0.76067   0.29851   0.00000  Uiso   1.00
H29    H     0.02528   0.33686   0.18243   0.00000  Uiso   1.00
H30    H     0.86981   0.92113   0.37311   0.00000  Uiso   1.00
H31    H     0.18253   0.46098   0.40315   0.00000  Uiso   1.00
H32    H     0.38515   0.49634   0.41322   0.00000  Uiso   1.00
H33    H     0.11904   0.29534   0.35816   0.00000  Uiso   1.00
H34    H     0.04532   0.57242   0.44858   0.00000  Uiso   1.00
H35    H     0.60672   0.56514   0.40779   0.00000  Uiso   1.00
H36    H     0.04558   0.14133   0.29171   0.00000  Uiso   1.00
H37    H     0.89011   0.72560   0.48239   0.00000  Uiso   1.00
O38    O     0.72944   0.69026   0.35746   0.00000  Uiso   1.00
O39    O     0.99323   0.13424   0.20516   0.00000  Uiso   1.00
O40    O     0.78926   0.90080   0.45533   0.00000  Uiso   1.00
N41    N     0.56338   0.70982   0.32285   0.00000  Uiso   1.00
N42    N     0.03877   0.31357   0.21432   0.00000  Uiso   1.00
N43    N     0.89340   0.85980   0.39259   0.00000  Uiso   1.00
N44    N     0.57431   0.60461   0.38166   0.00000  Uiso   1.00
N45    N     0.04969   0.20836   0.27312   0.00000  Uiso   1.00
N46    N     0.90432   0.75459   0.45139   0.00000  Uiso   1.00
C47    C     0.83575   0.36297   0.80476   0.00000  Uiso   1.00
C48    C     0.72308   0.36861   0.82412   0.00000  Uiso   1.00
C49    C     0.63444   0.31475   0.80764   0.00000  Uiso   1.00
C50    C     0.53844   0.33050   0.83008   0.00000  Uiso   1.00
C51    C     0.36455   0.32908   0.85441   0.00000  Uiso   1.00
C52    C     0.86765   0.47782   0.79420   0.00000  Uiso   1.00
C53    C     0.90058   0.51579   0.75257   0.00000  Uiso   1.00
C54    C     0.92629   0.62347   0.74983   0.00000  Uiso   1.00
C55    C     0.97693   0.79159   0.72773   0.00000  Uiso   1.00
C56    C     0.90770   0.32727   0.84334   0.00000  Uiso   1.00
C57    C     0.97432   0.23867   0.84301   0.00000  Uiso   1.00
C58    C     0.03378   0.21961   0.88163   0.00000  Uiso   1.00
C59    C     0.14659   0.15398   0.93582   0.00000  Uiso   1.00
C60    C     0.82290   0.48670   0.87391   0.00000  Uiso   1.00
C61    C     0.71611   0.43581   0.86168   0.00000  Uiso   1.00
C62    C     0.62022   0.45164   0.88415   0.00000  Uiso   1.00
C63    C     0.53145   0.39782   0.86771   0.00000  Uiso   1.00
C64    C     0.86068   0.54503   0.83176   0.00000  Uiso   1.00
C65    C     0.88636   0.65268   0.82908   0.00000  Uiso   1.00
C66    C     0.91931   0.69080   0.78746   0.00000  Uiso   1.00
C67    C     0.90072   0.39447   0.88090   0.00000  Uiso   1.00
C68    C     0.96010   0.37556   0.91952   0.00000  Uiso   1.00
C69    C     0.02679   0.28694   0.91926   0.00000  Uiso   1.00
H70    H     0.84118   0.31065   0.77551   0.00000  Uiso   1.00
H71    H     0.63987   0.26276   0.77857   0.00000  Uiso   1.00
H72    H     0.90598   0.46376   0.72351   0.00000  Uiso   1.00
H73    H     0.97970   0.18668   0.81394   0.00000  Uiso   1.00
H74    H     0.41359   0.23933   0.79851   0.00000  Uiso   1.00
H75    H     0.97472   0.66314   0.68243   0.00000  Uiso   1.00
H76    H     0.13019   0.07887   0.87311   0.00000  Uiso   1.00
H77    H     0.81747   0.53902   0.90315   0.00000  Uiso   1.00
H78    H     0.61485   0.50366   0.91322   0.00000  Uiso   1.00
H79    H     0.88096   0.70466   0.85816   0.00000  Uiso   1.00
H80    H     0.95468   0.42758   0.94858   0.00000  Uiso   1.00
H81    H     0.39328   0.43486   0.90779   0.00000  Uiso   1.00
H82    H     0.95442   0.85867   0.79171   0.00000  Uiso   1.00
H83    H     0.10989   0.27440   0.98239   0.00000  Uiso   1.00
O84    O     0.27056   0.30974   0.85746   0.00000  Uiso   1.00
O85    O     0.00677   0.86576   0.70516   0.00000  Uiso   1.00
O86    O     0.21074   0.09920   0.95533   0.00000  Uiso   1.00
N87    N     0.43662   0.29018   0.82285   0.00000  Uiso   1.00
N88    N     0.96123   0.68643   0.71432   0.00000  Uiso   1.00
N89    N     0.10660   0.14020   0.89259   0.00000  Uiso   1.00
N90    N     0.42569   0.39539   0.88166   0.00000  Uiso   1.00
N91    N     0.95031   0.79164   0.77312   0.00000  Uiso   1.00
N92    N     0.09568   0.24541   0.95139   0.00000  Uiso   1.00
C93    C     0.86297   0.66425   0.05476   0.00000  Uiso   1.00
C94    C     0.86861   0.77692   0.07412   0.00000  Uiso   1.00
C95    C     0.81475   0.86556   0.05764   0.00000  Uiso   1.00
C96    C     0.83050   0.96156   0.08008   0.00000  Uiso   1.00
C97    C     0.82908   0.13545   0.10441   0.00000  Uiso   1.00
C98    C     0.97782   0.63235   0.04420   0.00000  Uiso   1.00
C99    C     0.01579   0.59942   0.00257   0.00000  Uiso   1.00
C100   C     0.12347   0.57371   0.99983   0.00000  Uiso   1.00
C101   C     0.29159   0.52307   0.97773   0.00000  Uiso   1.00
C102   C     0.82727   0.59230   0.09334   0.00000  Uiso   1.00
C103   C     0.73867   0.52568   0.09301   0.00000  Uiso   1.00
C104   C     0.71961   0.46622   0.13163   0.00000  Uiso   1.00
C105   C     0.65398   0.35341   0.18582   0.00000  Uiso   1.00
C106   C     0.98670   0.67710   0.12391   0.00000  Uiso   1.00
C107   C     0.93581   0.78389   0.11168   0.00000  Uiso   1.00
C108   C     0.95164   0.87978   0.13415   0.00000  Uiso   1.00
C109   C     0.89782   0.96855   0.11771   0.00000  Uiso   1.00
C110   C     0.04503   0.63932   0.08176   0.00000  Uiso   1.00
C111   C     0.15268   0.61364   0.07908   0.00000  Uiso   1.00
C112   C     0.19080   0.58069   0.03746   0.00000  Uiso   1.00
C113   C     0.89447   0.59928   0.13090   0.00000  Uiso   1.00
C114   C     0.87556   0.53990   0.16952   0.00000  Uiso   1.00
C115   C     0.78694   0.47321   0.16926   0.00000  Uiso   1.00
H116   H     0.81065   0.65882   0.02551   0.00000  Uiso   1.00
H117   H     0.76276   0.86013   0.02857   0.00000  Uiso   1.00
H118   H     0.96376   0.59402   0.97351   0.00000  Uiso   1.00
H119   H     0.68668   0.52030   0.06394   0.00000  Uiso   1.00
H120   H     0.73933   0.08641   0.04851   0.00000  Uiso   1.00
H121   H     0.16314   0.52528   0.93243   0.00000  Uiso   1.00
H122   H     0.57887   0.36981   0.12311   0.00000  Uiso   1.00
H123   H     0.03902   0.68253   0.15315   0.00000  Uiso   1.00
H124   H     0.00366   0.88515   0.16322   0.00000  Uiso   1.00
H125   H     0.20466   0.61904   0.10816   0.00000  Uiso   1.00
H126   H     0.92758   0.54532   0.19858   0.00000  Uiso   1.00
H127   H     0.93486   0.10672   0.15779   0.00000  Uiso   1.00
H128   H     0.35867   0.54558   0.04171   0.00000  Uiso   1.00
H129   H     0.77440   0.39011   0.23239   0.00000  Uiso   1.00
O130   O     0.80974   0.22944   0.10746   0.00000  Uiso   1.00
O131   O     0.36576   0.49323   0.95516   0.00000  Uiso   1.00
O132   O     0.59920   0.28926   0.20533   0.00000  Uiso   1.00
N133   N     0.79018   0.06338   0.07285   0.00000  Uiso   1.00
N134   N     0.18643   0.53877   0.96432   0.00000  Uiso   1.00
N135   N     0.64020   0.39340   0.14259   0.00000  Uiso   1.00
N136   N     0.89539   0.07431   0.13166   0.00000  Uiso   1.00
N137   N     0.29164   0.54969   0.02312   0.00000  Uiso   1.00
N138   N     0.74541   0.40432   0.20139   0.00000  Uiso   1.00
C139   C     0.13703   0.33575   0.55476   0.00000  Uiso   1.00
C140   C     0.13139   0.22308   0.57412   0.00000  Uiso   1.00
C141   C     0.18525   0.13444   0.55764   0.00000  Uiso   1.00
C142   C     0.16950   0.03844   0.58008   0.00000  Uiso   1.00
C143   C     0.17092   0.86455   0.60441   0.00000  Uiso   1.00
C144   C     0.02218   0.36765   0.54420   0.00000  Uiso   1.00
C145   C     0.98421   0.40058   0.50257   0.00000  Uiso   1.00
C146   C     0.87653   0.42629   0.49983   0.00000  Uiso   1.00
C147   C     0.70841   0.47693   0.47773   0.00000  Uiso   1.00
C148   C     0.17273   0.40770   0.59334   0.00000  Uiso   1.00
C149   C     0.26133   0.47432   0.59301   0.00000  Uiso   1.00
C150   C     0.28039   0.53378   0.63163   0.00000  Uiso   1.00
C151   C     0.34602   0.64659   0.68582   0.00000  Uiso   1.00
C152   C     0.01330   0.32290   0.62391   0.00000  Uiso   1.00
C153   C     0.06419   0.21611   0.61168   0.00000  Uiso   1.00
C154   C     0.04836   0.12022   0.63415   0.00000  Uiso   1.00
C155   C     0.10218   0.03145   0.61771   0.00000  Uiso   1.00
C156   C     0.95497   0.36068   0.58176   0.00000  Uiso   1.00
C157   C     0.84732   0.38636   0.57908   0.00000  Uiso   1.00
C158   C     0.80920   0.41931   0.53746   0.00000  Uiso   1.00
C159   C     0.10553   0.40072   0.63090   0.00000  Uiso   1.00
C160   C     0.12444   0.46010   0.66952   0.00000  Uiso   1.00
C161   C     0.21306   0.52679   0.66926   0.00000  Uiso   1.00
H162   H     0.18935   0.34118   0.52551   0.00000  Uiso   1.00
H163   H     0.23724   0.13987   0.52857   0.00000  Uiso   1.00
H164   H     0.03624   0.40598   0.47351   0.00000  Uiso   1.00
H165   H     0.31332   0.47970   0.56394   0.00000  Uiso   1.00
H166   H     0.26067   0.91359   0.54851   0.00000  Uiso   1.00
H167   H     0.83686   0.47472   0.43243   0.00000  Uiso   1.00
H168   H     0.42113   0.63019   0.62311   0.00000  Uiso   1.00
H169   H     0.96098   0.31747   0.65315   0.00000  Uiso   1.00
H170   H     0.99634   0.11485   0.66322   0.00000  Uiso   1.00
H171   H     0.79534   0.38096   0.60816   0.00000  Uiso   1.00
H172   H     0.07242   0.45468   0.69858   0.00000  Uiso   1.00
H173   H     0.06514   0.89328   0.65779   0.00000  Uiso   1.00
H174   H     0.64133   0.45442   0.54171   0.00000  Uiso   1.00
H175   H     0.22560   0.60989   0.73239   0.00000  Uiso   1.00
O176   O     0.19026   0.77056   0.60746   0.00000  Uiso   1.00
O177   O     0.63424   0.50677   0.45516   0.00000  Uiso   1.00
O178   O     0.40080   0.71074   0.70533   0.00000  Uiso   1.00
N179   N     0.20982   0.93662   0.57285   0.00000  Uiso   1.00
N180   N     0.81357   0.46123   0.46432   0.00000  Uiso   1.00
N181   N     0.35980   0.60660   0.64259   0.00000  Uiso   1.00
N182   N     0.10461   0.92569   0.63166   0.00000  Uiso   1.00
N183   N     0.70836   0.45031   0.52312   0.00000  Uiso   1.00
N184   N     0.25459   0.59568   0.70139   0.00000  Uiso   1.00
C185   C     0.33575   0.13703   0.44524   0.00000  Uiso   1.00
C186   C     0.22308   0.13139   0.42588   0.00000  Uiso   1.00
C187   C     0.13444   0.18525   0.44236   0.00000  Uiso   1.00
C188   C     0.03844   0.16950   0.41992   0.00000  Uiso   1.00
C189   C     0.86455   0.17092   0.39559   0.00000  Uiso   1.00
C190   C     0.36765   0.02218   0.45580   0.00000  Uiso   1.00
C191   C     0.40058   0.98421   0.49743   0.00000  Uiso   1.00
C192   C     0.42629   0.87653   0.50017   0.00000  Uiso   1.00
C193   C     0.47693   0.70841   0.52227   0.00000  Uiso   1.00
C194   C     0.40770   0.17273   0.40666   0.00000  Uiso   1.00
C195   C     0.47432   0.26133   0.40699   0.00000  Uiso   1.00
C196   C     0.53378   0.28039   0.36837   0.00000  Uiso   1.00
C197   C     0.64659   0.34602   0.31418   0.00000  Uiso   1.00
C198   C     0.32290   0.01330   0.37609   0.00000  Uiso   1.00
C199   C     0.21611   0.06419   0.38832   0.00000  Uiso   1.00
C200   C     0.12022   0.04836   0.36585   0.00000  Uiso   1.00
C201   C     0.03145   0.10218   0.38229   0.00000  Uiso   1.00
C202   C     0.36068   0.95497   0.41824   0.00000  Uiso   1.00
C203   C     0.38636   0.84732   0.42092   0.00000  Uiso   1.00
C204   C     0.41931   0.80920   0.46254   0.00000  Uiso   1.00
C205   C     0.40072   0.10553   0.36910   0.00000  Uiso   1.00
C206   C     0.46010   0.12444   0.33048   0.00000  Uiso   1.00
C207   C     0.52679   0.21306   0.33074   0.00000  Uiso   1.00
H208   H     0.34118   0.18935   0.47449   0.00000  Uiso   1.00
H209   H     0.13987   0.23724   0.47143   0.00000  Uiso   1.00
H210   H     0.40598   0.03624   0.52649   0.00000  Uiso   1.00
H211   H     0.47970   0.31332   0.43606   0.00000  Uiso   1.00
H212   H     0.91359   0.26067   0.45149   0.00000  Uiso   1.00
H213   H     0.47472   0.83686   0.56757   0.00000  Uiso   1.00
H214   H     0.63019   0.42113   0.37689   0.00000  Uiso   1.00
H215   H     0.31747   0.96098   0.34685   0.00000  Uiso   1.00
H216   H     0.11485   0.99634   0.33678   0.00000  Uiso   1.00
H217   H     0.38096   0.79534   0.39184   0.00000  Uiso   1.00
H218   H     0.45468   0.07242   0.30142   0.00000  Uiso   1.00
H219   H     0.89328   0.06514   0.34221   0.00000  Uiso   1.00
H220   H     0.45442   0.64133   0.45829   0.00000  Uiso   1.00
H221   H     0.60989   0.22560   0.26761   0.00000  Uiso   1.00
O222   O     0.77056   0.19026   0.39254   0.00000  Uiso   1.00
O223   O     0.50677   0.63424   0.54484   0.00000  Uiso   1.00
O224   O     0.71074   0.40080   0.29467   0.00000  Uiso   1.00
N225   N     0.93662   0.20982   0.42715   0.00000  Uiso   1.00
N226   N     0.46123   0.81357   0.53568   0.00000  Uiso   1.00
N227   N     0.60660   0.35980   0.35741   0.00000  Uiso   1.00
N228   N     0.92569   0.10461   0.36834   0.00000  Uiso   1.00
N229   N     0.45031   0.70836   0.47688   0.00000  Uiso   1.00
N230   N     0.59568   0.25459   0.29861   0.00000  Uiso   1.00
C231   C     0.66425   0.86297   0.94524   0.00000  Uiso   1.00
C232   C     0.77692   0.86861   0.92588   0.00000  Uiso   1.00
C233   C     0.86556   0.81475   0.94236   0.00000  Uiso   1.00
C234   C     0.96156   0.83050   0.91992   0.00000  Uiso   1.00
C235   C     0.13545   0.82908   0.89559   0.00000  Uiso   1.00
C236   C     0.63235   0.97782   0.95580   0.00000  Uiso   1.00
C237   C     0.59942   0.01579   0.99743   0.00000  Uiso   1.00
C238   C     0.57371   0.12347   0.00017   0.00000  Uiso   1.00
C239   C     0.52307   0.29159   0.02227   0.00000  Uiso   1.00
C240   C     0.59230   0.82727   0.90666   0.00000  Uiso   1.00
C241   C     0.52568   0.73867   0.90699   0.00000  Uiso   1.00
C242   C     0.46622   0.71961   0.86837   0.00000  Uiso   1.00
C243   C     0.35341   0.65398   0.81418   0.00000  Uiso   1.00
C244   C     0.67710   0.98670   0.87609   0.00000  Uiso   1.00
C245   C     0.78389   0.93581   0.88832   0.00000  Uiso   1.00
C246   C     0.87978   0.95164   0.86585   0.00000  Uiso   1.00
C247   C     0.96855   0.89782   0.88229   0.00000  Uiso   1.00
C248   C     0.63932   0.04503   0.91824   0.00000  Uiso   1.00
C249   C     0.61364   0.15268   0.92092   0.00000  Uiso   1.00
C250   C     0.58069   0.19080   0.96254   0.00000  Uiso   1.00
C251   C     0.59928   0.89447   0.86910   0.00000  Uiso   1.00
C252   C     0.53990   0.87556   0.83048   0.00000  Uiso   1.00
C253   C     0.47321   0.78694   0.83074   0.00000  Uiso   1.00
H254   H     0.65882   0.81065   0.97449   0.00000  Uiso   1.00
H255   H     0.86013   0.76276   0.97143   0.00000  Uiso   1.00
H256   H     0.59402   0.96376   0.02649   0.00000  Uiso   1.00
H257   H     0.52030   0.68668   0.93606   0.00000  Uiso   1.00
H258   H     0.08641   0.73933   0.95149   0.00000  Uiso   1.00
H259   H     0.52528   0.16314   0.06757   0.00000  Uiso   1.00
H260   H     0.36981   0.57887   0.87689   0.00000  Uiso   1.00
H261   H     0.68253   0.03902   0.84685   0.00000  Uiso   1.00
H262   H     0.88515   0.00366   0.83678   0.00000  Uiso   1.00
H263   H     0.61904   0.20466   0.89184   0.00000  Uiso   1.00
H264   H     0.54532   0.92758   0.80142   0.00000  Uiso   1.00
H265   H     0.10672   0.93486   0.84221   0.00000  Uiso   1.00
H266   H     0.54558   0.35867   0.95829   0.00000  Uiso   1.00
H267   H     0.39011   0.77440   0.76761   0.00000  Uiso   1.00
O268   O     0.22944   0.80974   0.89254   0.00000  Uiso   1.00
O269   O     0.49323   0.36576   0.04484   0.00000  Uiso   1.00
O270   O     0.28926   0.59920   0.79467   0.00000  Uiso   1.00
N271   N     0.06338   0.79018   0.92715   0.00000  Uiso   1.00
N272   N     0.53877   0.18643   0.03568   0.00000  Uiso   1.00
N273   N     0.39340   0.64020   0.85741   0.00000  Uiso   1.00
N274   N     0.07431   0.89539   0.86834   0.00000  Uiso   1.00
N275   N     0.54969   0.29164   0.97688   0.00000  Uiso   1.00
N276   N     0.40432   0.74541   0.79861   0.00000  Uiso   1.00
C277   C     0.63703   0.16425   0.69524   0.00000  Uiso   1.00
C278   C     0.63139   0.27692   0.67588   0.00000  Uiso   1.00
C279   C     0.68525   0.36556   0.69236   0.00000  Uiso   1.00
C280   C     0.66950   0.46156   0.66992   0.00000  Uiso   1.00
C281   C     0.67092   0.63545   0.64559   0.00000  Uiso   1.00
C282   C     0.52218   0.13235   0.70580   0.00000  Uiso   1.00
C283   C     0.48421   0.09942   0.74743   0.00000  Uiso   1.00
C284   C     0.37653   0.07371   0.75017   0.00000  Uiso   1.00
C285   C     0.20841   0.02307   0.77227   0.00000  Uiso   1.00
C286   C     0.67273   0.09230   0.65666   0.00000  Uiso   1.00
C287   C     0.76133   0.02568   0.65699   0.00000  Uiso   1.00
C288   C     0.78039   0.96622   0.61837   0.00000  Uiso   1.00
C289   C     0.84602   0.85341   0.56418   0.00000  Uiso   1.00
C290   C     0.51330   0.17710   0.62609   0.00000  Uiso   1.00
C291   C     0.56419   0.28389   0.63832   0.00000  Uiso   1.00
C292   C     0.54836   0.37978   0.61585   0.00000  Uiso   1.00
C293   C     0.60218   0.46855   0.63229   0.00000  Uiso   1.00
C294   C     0.45497   0.13932   0.66824   0.00000  Uiso   1.00
C295   C     0.34732   0.11364   0.67092   0.00000  Uiso   1.00
C296   C     0.30920   0.08069   0.71254   0.00000  Uiso   1.00
C297   C     0.60553   0.09928   0.61910   0.00000  Uiso   1.00
C298   C     0.62444   0.03990   0.58048   0.00000  Uiso   1.00
C299   C     0.71306   0.97321   0.58074   0.00000  Uiso   1.00
H300   H     0.68935   0.15882   0.72449   0.00000  Uiso   1.00
H301   H     0.73724   0.36013   0.72143   0.00000  Uiso   1.00
H302   H     0.53624   0.09402   0.77649   0.00000  Uiso   1.00
H303   H     0.81332   0.02030   0.68606   0.00000  Uiso   1.00
H304   H     0.76067   0.58641   0.70149   0.00000  Uiso   1.00
H305   H     0.33686   0.02528   0.81757   0.00000  Uiso   1.00
H306   H     0.92113   0.86981   0.62689   0.00000  Uiso   1.00
H307   H     0.46098   0.18253   0.59685   0.00000  Uiso   1.00
H308   H     0.49634   0.38515   0.58678   0.00000  Uiso   1.00
H309   H     0.29534   0.11904   0.64184   0.00000  Uiso   1.00
H310   H     0.57242   0.04532   0.55142   0.00000  Uiso   1.00
H311   H     0.56514   0.60672   0.59221   0.00000  Uiso   1.00
H312   H     0.14133   0.04558   0.70829   0.00000  Uiso   1.00
H313   H     0.72560   0.89011   0.51761   0.00000  Uiso   1.00
O314   O     0.69026   0.72944   0.64254   0.00000  Uiso   1.00
O315   O     0.13424   0.99323   0.79484   0.00000  Uiso   1.00
O316   O     0.90080   0.78926   0.54467   0.00000  Uiso   1.00
N317   N     0.70982   0.56338   0.67715   0.00000  Uiso   1.00
N318   N     0.31357   0.03877   0.78568   0.00000  Uiso   1.00
N319   N     0.85980   0.89340   0.60741   0.00000  Uiso   1.00
N320   N     0.60461   0.57431   0.61834   0.00000  Uiso   1.00
N321   N     0.20836   0.04969   0.72688   0.00000  Uiso   1.00
N322   N     0.75459   0.90432   0.54861   0.00000  Uiso   1.00
C323   C     0.36297   0.83575   0.19524   0.00000  Uiso   1.00
C324   C     0.36861   0.72308   0.17588   0.00000  Uiso   1.00
C325   C     0.31475   0.63444   0.19236   0.00000  Uiso   1.00
C326   C     0.33050   0.53844   0.16992   0.00000  Uiso   1.00
C327   C     0.32908   0.36455   0.14559   0.00000  Uiso   1.00
C328   C     0.47782   0.86765   0.20580   0.00000  Uiso   1.00
C329   C     0.51579   0.90058   0.24743   0.00000  Uiso   1.00
C330   C     0.62347   0.92629   0.25017   0.00000  Uiso   1.00
C331   C     0.79159   0.97693   0.27227   0.00000  Uiso   1.00
C332   C     0.32727   0.90770   0.15666   0.00000  Uiso   1.00
C333   C     0.23867   0.97432   0.15699   0.00000  Uiso   1.00
C334   C     0.21961   0.03378   0.11837   0.00000  Uiso   1.00
C335   C     0.15398   0.14659   0.06418   0.00000  Uiso   1.00
C336   C     0.48670   0.82290   0.12609   0.00000  Uiso   1.00
C337   C     0.43581   0.71611   0.13832   0.00000  Uiso   1.00
C338   C     0.45164   0.62022   0.11585   0.00000  Uiso   1.00
C339   C     0.39782   0.53145   0.13229   0.00000  Uiso   1.00
C340   C     0.54503   0.86068   0.16824   0.00000  Uiso   1.00
C341   C     0.65268   0.88636   0.17092   0.00000  Uiso   1.00
C342   C     0.69080   0.91931   0.21254   0.00000  Uiso   1.00
C343   C     0.39447   0.90072   0.11910   0.00000  Uiso   1.00
C344   C     0.37556   0.96010   0.08048   0.00000  Uiso   1.00
C345   C     0.28694   0.02679   0.08074   0.00000  Uiso   1.00
H346   H     0.31065   0.84118   0.22449   0.00000  Uiso   1.00
H347   H     0.26276   0.63987   0.22143   0.00000  Uiso   1.00
H348   H     0.46376   0.90598   0.27649   0.00000  Uiso   1.00
H349   H     0.18668   0.97970   0.18606   0.00000  Uiso   1.00
H350   H     0.23933   0.41359   0.20149   0.00000  Uiso   1.00
H351   H     0.66314   0.97472   0.31757   0.00000  Uiso   1.00
H352   H     0.07887   0.13019   0.12689   0.00000  Uiso   1.00
H353   H     0.53902   0.81747   0.09685   0.00000  Uiso   1.00
H354   H     0.50366   0.61485   0.08678   0.00000  Uiso   1.00
H355   H     0.70466   0.88096   0.14184   0.00000  Uiso   1.00
H356   H     0.42758   0.95468   0.05142   0.00000  Uiso   1.00
H357   H     0.43486   0.39328   0.09221   0.00000  Uiso   1.00
H358   H     0.85867   0.95442   0.20829   0.00000  Uiso   1.00
H359   H     0.27440   0.10989   0.01761   0.00000  Uiso   1.00
O360   O     0.30974   0.27056   0.14254   0.00000  Uiso   1.00
O361   O     0.86576   0.00677   0.29484   0.00000  Uiso   1.00
O362   O     0.09920   0.21074   0.04467   0.00000  Uiso   1.00
N363   N     0.29018   0.43662   0.17715   0.00000  Uiso   1.00
N364   N     0.68643   0.96123   0.28568   0.00000  Uiso   1.00
N365   N     0.14020   0.10660   0.10741   0.00000  Uiso   1.00
N366   N     0.39539   0.42569   0.11834   0.00000  Uiso   1.00
N367   N     0.79164   0.95031   0.22688   0.00000  Uiso   1.00
N368   N     0.24541   0.09568   0.04861   0.00000  Uiso   1.00
