data_job_04536
_audit_creation_date              2018-12-19
_audit_creation_method            'Materials Studio'
_symmetry_space_group_name_H-M    'P1'
_symmetry_Int_Tables_number       1
_symmetry_cell_setting            triclinic
loop_
_symmetry_equiv_pos_as_xyz
  x,y,z
_cell_length_a                    18.1577
_cell_length_b                    22.3468
_cell_length_c                    22.1466
_cell_angle_alpha                 90.0000
_cell_angle_beta                  146.2552
_cell_angle_gamma                 90.0000
loop_
_atom_site_label
_atom_site_type_symbol
_atom_site_fract_x
_atom_site_fract_y
_atom_site_fract_z
_atom_site_U_iso_or_equiv
_atom_site_adp_type
_atom_site_occupancy
C1     C     0.92407   0.06630   0.23543   0.00000  Uiso   1.00
C2     C     0.83271   0.11385   0.14654   0.00000  Uiso   1.00
C3     C     0.76120   0.10864   0.04452   0.00000  Uiso   1.00
C4     C     0.68332   0.15715   0.97481   0.00000  Uiso   1.00
C5     C     0.54243   0.22312   0.83205   0.00000  Uiso   1.00
C6     C     0.05889   0.09623   0.33501   0.00000  Uiso   1.00
C7     C     0.17755   0.07620   0.39144   0.00000  Uiso   1.00
C8     C     0.29005   0.10987   0.48040   0.00000  Uiso   1.00
C9     C     0.50033   0.14846   0.63028   0.00000  Uiso   1.00
C10    C     0.87298   0.05420   0.26424   0.00000  Uiso   1.00
C11    C     0.83535   0.99883   0.26120   0.00000  Uiso   1.00
C12    C     0.79136   0.99712   0.29059   0.00000  Uiso   1.00
C13    C     0.71298   0.97045   0.33059   0.00000  Uiso   1.00
C14    C     0.91291   0.16172   0.29307   0.00000  Uiso   1.00
C15    C     0.82666   0.16568   0.17786   0.00000  Uiso   1.00
C16    C     0.74885   0.21421   0.10828   0.00000  Uiso   1.00
C17    C     0.67723   0.20907   0.00617   0.00000  Uiso   1.00
C18    C     0.05283   0.14806   0.36632   0.00000  Uiso   1.00
C19    C     0.16519   0.18177   0.45521   0.00000  Uiso   1.00
C20    C     0.28398   0.16180   0.51176   0.00000  Uiso   1.00
C21    C     0.86691   0.10603   0.29554   0.00000  Uiso   1.00
C22    C     0.82299   0.10440   0.32496   0.00000  Uiso   1.00
C23    C     0.78529   0.04904   0.32196   0.00000  Uiso   1.00
H24    H     0.92880   0.02595   0.21106   0.00000  Uiso   1.00
H25    H     0.76593   0.06852   0.02032   0.00000  Uiso   1.00
H26    H     0.18221   0.03609   0.36720   0.00000  Uiso   1.00
H27    H     0.84006   0.95873   0.23697   0.00000  Uiso   1.00
H28    H     0.58272   0.13859   0.82267   0.00000  Uiso   1.00
H29    H     0.46047   0.07018   0.55411   0.00000  Uiso   1.00
H30    H     0.73898   0.90707   0.27949   0.00000  Uiso   1.00
H31    H     0.90819   0.20207   0.31744   0.00000  Uiso   1.00
H32    H     0.74418   0.25431   0.13254   0.00000  Uiso   1.00
H33    H     0.16046   0.22187   0.47942   0.00000  Uiso   1.00
H34    H     0.81831   0.14452   0.34918   0.00000  Uiso   1.00
H35    H     0.56507   0.28939   0.91375   0.00000  Uiso   1.00
H36    H     0.44283   0.22097   0.64520   0.00000  Uiso   1.00
H37    H     0.72133   0.05786   0.37057   0.00000  Uiso   1.00
O38    O     0.46641   0.24519   0.74467   0.00000  Uiso   1.00
O39    O     0.61799   0.15543   0.70430   0.00000  Uiso   1.00
O40    O     0.67141   0.94142   0.34399   0.00000  Uiso   1.00
N41    N     0.60105   0.16691   0.86948   0.00000  Uiso   1.00
N42    N     0.42170   0.10295   0.55332   0.00000  Uiso   1.00
N43    N     0.74720   0.95045   0.29660   0.00000  Uiso   1.00
N44    N     0.59156   0.24805   0.91848   0.00000  Uiso   1.00
N45    N     0.41220   0.18409   0.60233   0.00000  Uiso   1.00
N46    N     0.73770   0.03159   0.34560   0.00000  Uiso   1.00
C47    C     0.53317   0.56642   0.56067   0.00000  Uiso   1.00
C48    C     0.44728   0.61411   0.47219   0.00000  Uiso   1.00
C49    C     0.37651   0.60721   0.37066   0.00000  Uiso   1.00
C50    C     0.30395   0.65617   0.30127   0.00000  Uiso   1.00
C51    C     0.17088   0.72204   0.15917   0.00000  Uiso   1.00
C52    C     0.67068   0.59401   0.66107   0.00000  Uiso   1.00
C53    C     0.78774   0.57020   0.71835   0.00000  Uiso   1.00
C54    C     0.90323   0.60224   0.80797   0.00000  Uiso   1.00
C55    C     0.11701   0.63686   0.95916   0.00000  Uiso   1.00
C56    C     0.47950   0.55915   0.58803   0.00000  Uiso   1.00
C57    C     0.43585   0.50603   0.58392   0.00000  Uiso   1.00
C58    C     0.39041   0.50871   0.61207   0.00000  Uiso   1.00
C59    C     0.30736   0.48922   0.64984   0.00000  Uiso   1.00
C60    C     0.53015   0.66566   0.61799   0.00000  Uiso   1.00
C61    C     0.44564   0.66801   0.50333   0.00000  Uiso   1.00
C62    C     0.37316   0.71700   0.43407   0.00000  Uiso   1.00
C63    C     0.30229   0.71017   0.33245   0.00000  Uiso   1.00
C64    C     0.66904   0.64791   0.69220   0.00000  Uiso   1.00
C65    C     0.78439   0.67999   0.78176   0.00000  Uiso   1.00
C66    C     0.90159   0.65623   0.83916   0.00000  Uiso   1.00
C67    C     0.47785   0.61305   0.61916   0.00000  Uiso   1.00
C68    C     0.43249   0.61582   0.64733   0.00000  Uiso   1.00
C69    C     0.38877   0.56271   0.64326   0.00000  Uiso   1.00
H70    H     0.53446   0.52446   0.53644   0.00000  Uiso   1.00
H71    H     0.37782   0.56549   0.34660   0.00000  Uiso   1.00
H72    H     0.78898   0.52848   0.69425   0.00000  Uiso   1.00
H73    H     0.43713   0.46433   0.55983   0.00000  Uiso   1.00
H74    H     0.20346   0.63476   0.14988   0.00000  Uiso   1.00
H75    H     0.07043   0.55671   0.88293   0.00000  Uiso   1.00
H76    H     0.32850   0.42142   0.59949   0.00000  Uiso   1.00
H77    H     0.52887   0.70762   0.64223   0.00000  Uiso   1.00
H78    H     0.37191   0.75871   0.45818   0.00000  Uiso   1.00
H79    H     0.78308   0.72170   0.80583   0.00000  Uiso   1.00
H80    H     0.43123   0.65754   0.67141   0.00000  Uiso   1.00
H81    H     0.19867   0.79158   0.24044   0.00000  Uiso   1.00
H82    H     0.06565   0.71353   0.97350   0.00000  Uiso   1.00
H83    H     0.32371   0.57824   0.69005   0.00000  Uiso   1.00
O84    O     0.09795   0.74348   0.07220   0.00000  Uiso   1.00
O85    O     0.23538   0.64108   0.03394   0.00000  Uiso   1.00
O86    O     0.26198   0.46358   0.66206   0.00000  Uiso   1.00
N87    N     0.22385   0.66465   0.19644   0.00000  Uiso   1.00
N88    N     0.03441   0.59169   0.88179   0.00000  Uiso   1.00
N89    N     0.34080   0.46520   0.61682   0.00000  Uiso   1.00
N90    N     0.22127   0.74904   0.24517   0.00000  Uiso   1.00
N91    N     0.03184   0.67607   0.93052   0.00000  Uiso   1.00
N92    N     0.33823   0.54958   0.66555   0.00000  Uiso   1.00
C93    C     0.42216   0.93540   0.72633   0.00000  Uiso   1.00
C94    C     0.51603   0.88766   0.81469   0.00000  Uiso   1.00
C95    C     0.65062   0.89507   0.91709   0.00000  Uiso   1.00
C96    C     0.71923   0.84596   0.98619   0.00000  Uiso   1.00
C97    C     0.87471   0.78013   0.12827   0.00000  Uiso   1.00
C98    C     0.35895   0.90872   0.62677   0.00000  Uiso   1.00
C99    C     0.36144   0.93385   0.57118   0.00000  Uiso   1.00
C100   C     0.29779   0.90248   0.48209   0.00000  Uiso   1.00
C101   C     0.20931   0.86936   0.33238   0.00000  Uiso   1.00
C102   C     0.31098   0.94101   0.69685   0.00000  Uiso   1.00
C103   C     0.27312   0.99329   0.70014   0.00000  Uiso   1.00
C104   C     0.16905   0.98911   0.67001   0.00000  Uiso   1.00
C105   C     0.00610   0.00613   0.62910   0.00000  Uiso   1.00
C106   C     0.30466   0.83501   0.66696   0.00000  Uiso   1.00
C107   C     0.45221   0.83314   0.78243   0.00000  Uiso   1.00
C108   C     0.52062   0.78401   0.85140   0.00000  Uiso   1.00
C109   C     0.65529   0.79134   0.95389   0.00000  Uiso   1.00
C110   C     0.29512   0.85420   0.59452   0.00000  Uiso   1.00
C111   C     0.23144   0.82279   0.50549   0.00000  Uiso   1.00
C112   C     0.23385   0.84785   0.44978   0.00000  Uiso   1.00
C113   C     0.24716   0.88649   0.66460   0.00000  Uiso   1.00
C114   C     0.14312   0.88223   0.63445   0.00000  Uiso   1.00
C115   C     0.10511   0.93448   0.63770   0.00000  Uiso   1.00
H116   H     0.47184   0.97785   0.75143   0.00000  Uiso   1.00
H117   H     0.69998   0.93727   0.94201   0.00000  Uiso   1.00
H118   H     0.41083   0.97605   0.59615   0.00000  Uiso   1.00
H119   H     0.32253   0.03547   0.72510   0.00000  Uiso   1.00
H120   H     0.92478   0.86823   0.13907   0.00000  Uiso   1.00
H121   H     0.31505   0.95001   0.40977   0.00000  Uiso   1.00
H122   H     0.12884   0.07533   0.68168   0.00000  Uiso   1.00
H123   H     0.25497   0.79256   0.64185   0.00000  Uiso   1.00
H124   H     0.47121   0.74182   0.82642   0.00000  Uiso   1.00
H125   H     0.18206   0.78060   0.48055   0.00000  Uiso   1.00
H126   H     0.09376   0.84002   0.60950   0.00000  Uiso   1.00
H127   H     0.73910   0.70960   0.04525   0.00000  Uiso   1.00
H128   H     0.12936   0.79137   0.31595   0.00000  Uiso   1.00
H129   H     0.94316   0.91669   0.58786   0.00000  Uiso   1.00
O130   O     0.97811   0.75887   0.21554   0.00000  Uiso   1.00
O131   O     0.17815   0.86616   0.25872   0.00000  Uiso   1.00
O132   O     0.93386   0.03057   0.61546   0.00000  Uiso   1.00
N133   N     0.85140   0.83787   0.09166   0.00000  Uiso   1.00
N134   N     0.28136   0.91431   0.40983   0.00000  Uiso   1.00
N135   N     0.10724   0.03148   0.66401   0.00000  Uiso   1.00
N136   N     0.75148   0.75250   0.04118   0.00000  Uiso   1.00
N137   N     0.18144   0.82895   0.35935   0.00000  Uiso   1.00
N138   N     0.00733   0.94612   0.61353   0.00000  Uiso   1.00
C139   C     0.03834   0.43229   0.07194   0.00000  Uiso   1.00
C140   C     0.12756   0.38366   0.15888   0.00000  Uiso   1.00
C141   C     0.26297   0.38860   0.26110   0.00000  Uiso   1.00
C142   C     0.32677   0.33906   0.32882   0.00000  Uiso   1.00
C143   C     0.47584   0.27153   0.46888   0.00000  Uiso   1.00
C144   C     0.97130   0.40464   0.97118   0.00000  Uiso   1.00
C145   C     0.97533   0.42724   0.91558   0.00000  Uiso   1.00
C146   C     0.90757   0.39537   0.82530   0.00000  Uiso   1.00
C147   C     0.81398   0.36045   0.67390   0.00000  Uiso   1.00
C148   C     0.92878   0.44225   0.04360   0.00000  Uiso   1.00
C149   C     0.89702   0.49647   0.04887   0.00000  Uiso   1.00
C150   C     0.79343   0.49627   0.01954   0.00000  Uiso   1.00
C151   C     0.63381   0.51974   0.98059   0.00000  Uiso   1.00
C152   C     0.91082   0.33553   0.01044   0.00000  Uiso   1.00
C153   C     0.05829   0.33110   0.12547   0.00000  Uiso   1.00
C154   C     0.12189   0.28154   0.19306   0.00000  Uiso   1.00
C155   C     0.25738   0.28641   0.29537   0.00000  Uiso   1.00
C156   C     0.90204   0.35209   0.93778   0.00000  Uiso   1.00
C157   C     0.83425   0.32018   0.84755   0.00000  Uiso   1.00
C158   C     0.83818   0.34272   0.79183   0.00000  Uiso   1.00
C159   C     0.85951   0.38970   0.01020   0.00000  Uiso   1.00
C160   C     0.75594   0.38941   0.98084   0.00000  Uiso   1.00
C161   C     0.72404   0.44362   0.98607   0.00000  Uiso   1.00
H162   H     0.09226   0.47321   0.09793   0.00000  Uiso   1.00
H163   H     0.31654   0.42928   0.28691   0.00000  Uiso   1.00
H164   H     0.02893   0.46791   0.94144   0.00000  Uiso   1.00
H165   H     0.95064   0.53713   0.07472   0.00000  Uiso   1.00
H166   H     0.53466   0.35739   0.48169   0.00000  Uiso   1.00
H167   H     0.92818   0.43887   0.75323   0.00000  Uiso   1.00
H168   H     0.76308   0.58483   0.03426   0.00000  Uiso   1.00
H169   H     0.85689   0.29460   0.98443   0.00000  Uiso   1.00
H170   H     0.06826   0.24087   0.16719   0.00000  Uiso   1.00
H171   H     0.78065   0.27951   0.82172   0.00000  Uiso   1.00
H172   H     0.70236   0.34873   0.95500   0.00000  Uiso   1.00
H173   H     0.33315   0.20447   0.38451   0.00000  Uiso   1.00
H174   H     0.72667   0.28595   0.65605   0.00000  Uiso   1.00
H175   H     0.56157   0.43192   0.93709   0.00000  Uiso   1.00
O176   O     0.57721   0.24880   0.55536   0.00000  Uiso   1.00
O177   O     0.78151   0.35570   0.59963   0.00000  Uiso   1.00
O178   O     0.56491   0.54721   0.96836   0.00000  Uiso   1.00
N179   N     0.45823   0.32878   0.43374   0.00000  Uiso   1.00
N180   N     0.89122   0.40495   0.75269   0.00000  Uiso   1.00
N181   N     0.73684   0.54142   0.01541   0.00000  Uiso   1.00
N182   N     0.34979   0.24649   0.38146   0.00000  Uiso   1.00
N183   N     0.78279   0.32267   0.70040   0.00000  Uiso   1.00
N184   N     0.62841   0.45914   0.96312   0.00000  Uiso   1.00
C185   C     0.92407   0.93370   0.73543   0.00000  Uiso   1.00
C186   C     0.83271   0.88615   0.64654   0.00000  Uiso   1.00
C187   C     0.76120   0.89136   0.54452   0.00000  Uiso   1.00
C188   C     0.68332   0.84285   0.47481   0.00000  Uiso   1.00
C189   C     0.54243   0.77688   0.33205   0.00000  Uiso   1.00
C190   C     0.05889   0.90377   0.83501   0.00000  Uiso   1.00
C191   C     0.17755   0.92380   0.89144   0.00000  Uiso   1.00
C192   C     0.29005   0.89013   0.98040   0.00000  Uiso   1.00
C193   C     0.50033   0.85154   0.13028   0.00000  Uiso   1.00
C194   C     0.87298   0.94580   0.76424   0.00000  Uiso   1.00
C195   C     0.83535   0.00117   0.76120   0.00000  Uiso   1.00
C196   C     0.79136   0.00288   0.79059   0.00000  Uiso   1.00
C197   C     0.71298   0.02955   0.83059   0.00000  Uiso   1.00
C198   C     0.91291   0.83828   0.79307   0.00000  Uiso   1.00
C199   C     0.82666   0.83432   0.67786   0.00000  Uiso   1.00
C200   C     0.74885   0.78579   0.60828   0.00000  Uiso   1.00
C201   C     0.67723   0.79093   0.50617   0.00000  Uiso   1.00
C202   C     0.05283   0.85194   0.86632   0.00000  Uiso   1.00
C203   C     0.16519   0.81823   0.95521   0.00000  Uiso   1.00
C204   C     0.28398   0.83820   0.01176   0.00000  Uiso   1.00
C205   C     0.86691   0.89397   0.79554   0.00000  Uiso   1.00
C206   C     0.82299   0.89560   0.82496   0.00000  Uiso   1.00
C207   C     0.78529   0.95096   0.82196   0.00000  Uiso   1.00
H208   H     0.92880   0.97405   0.71106   0.00000  Uiso   1.00
H209   H     0.76593   0.93148   0.52032   0.00000  Uiso   1.00
H210   H     0.18221   0.96391   0.86720   0.00000  Uiso   1.00
H211   H     0.84006   0.04127   0.73697   0.00000  Uiso   1.00
H212   H     0.58272   0.86141   0.32267   0.00000  Uiso   1.00
H213   H     0.46047   0.92982   0.05411   0.00000  Uiso   1.00
H214   H     0.73898   0.09293   0.77949   0.00000  Uiso   1.00
H215   H     0.90819   0.79793   0.81744   0.00000  Uiso   1.00
H216   H     0.74418   0.74569   0.63254   0.00000  Uiso   1.00
H217   H     0.16046   0.77813   0.97942   0.00000  Uiso   1.00
H218   H     0.81831   0.85548   0.84918   0.00000  Uiso   1.00
H219   H     0.56507   0.71061   0.41375   0.00000  Uiso   1.00
H220   H     0.44283   0.77903   0.14520   0.00000  Uiso   1.00
H221   H     0.72133   0.94214   0.87057   0.00000  Uiso   1.00
O222   O     0.46641   0.75481   0.24467   0.00000  Uiso   1.00
O223   O     0.61799   0.84457   0.20430   0.00000  Uiso   1.00
O224   O     0.67141   0.05858   0.84399   0.00000  Uiso   1.00
N225   N     0.60105   0.83309   0.36948   0.00000  Uiso   1.00
N226   N     0.42170   0.89705   0.05332   0.00000  Uiso   1.00
N227   N     0.74720   0.04955   0.79660   0.00000  Uiso   1.00
N228   N     0.59156   0.75195   0.41848   0.00000  Uiso   1.00
N229   N     0.41220   0.81591   0.10233   0.00000  Uiso   1.00
N230   N     0.73770   0.96841   0.84560   0.00000  Uiso   1.00
C231   C     0.53317   0.43358   0.06067   0.00000  Uiso   1.00
C232   C     0.44728   0.38589   0.97219   0.00000  Uiso   1.00
C233   C     0.37651   0.39279   0.87066   0.00000  Uiso   1.00
C234   C     0.30395   0.34383   0.80127   0.00000  Uiso   1.00
C235   C     0.17088   0.27796   0.65917   0.00000  Uiso   1.00
C236   C     0.67068   0.40599   0.16107   0.00000  Uiso   1.00
C237   C     0.78774   0.42980   0.21835   0.00000  Uiso   1.00
C238   C     0.90323   0.39776   0.30797   0.00000  Uiso   1.00
C239   C     0.11701   0.36314   0.45916   0.00000  Uiso   1.00
C240   C     0.47950   0.44085   0.08803   0.00000  Uiso   1.00
C241   C     0.43585   0.49397   0.08392   0.00000  Uiso   1.00
C242   C     0.39041   0.49129   0.11207   0.00000  Uiso   1.00
C243   C     0.30736   0.51078   0.14984   0.00000  Uiso   1.00
C244   C     0.53015   0.33434   0.11799   0.00000  Uiso   1.00
C245   C     0.44564   0.33199   0.00333   0.00000  Uiso   1.00
C246   C     0.37316   0.28300   0.93407   0.00000  Uiso   1.00
C247   C     0.30229   0.28983   0.83245   0.00000  Uiso   1.00
C248   C     0.66904   0.35209   0.19220   0.00000  Uiso   1.00
C249   C     0.78439   0.32001   0.28176   0.00000  Uiso   1.00
C250   C     0.90159   0.34377   0.33916   0.00000  Uiso   1.00
C251   C     0.47785   0.38695   0.11916   0.00000  Uiso   1.00
C252   C     0.43249   0.38418   0.14733   0.00000  Uiso   1.00
C253   C     0.38877   0.43729   0.14326   0.00000  Uiso   1.00
H254   H     0.53446   0.47554   0.03644   0.00000  Uiso   1.00
H255   H     0.37782   0.43451   0.84660   0.00000  Uiso   1.00
H256   H     0.78898   0.47152   0.19425   0.00000  Uiso   1.00
H257   H     0.43713   0.53567   0.05983   0.00000  Uiso   1.00
H258   H     0.20346   0.36524   0.64988   0.00000  Uiso   1.00
H259   H     0.07043   0.44329   0.38293   0.00000  Uiso   1.00
H260   H     0.32850   0.57858   0.09949   0.00000  Uiso   1.00
H261   H     0.52887   0.29238   0.14223   0.00000  Uiso   1.00
H262   H     0.37191   0.24129   0.95818   0.00000  Uiso   1.00
H263   H     0.78308   0.27830   0.30583   0.00000  Uiso   1.00
H264   H     0.43123   0.34246   0.17141   0.00000  Uiso   1.00
H265   H     0.19867   0.20842   0.74044   0.00000  Uiso   1.00
H266   H     0.06565   0.28647   0.47350   0.00000  Uiso   1.00
H267   H     0.32371   0.42176   0.19005   0.00000  Uiso   1.00
O268   O     0.09795   0.25652   0.57220   0.00000  Uiso   1.00
O269   O     0.23538   0.35892   0.53394   0.00000  Uiso   1.00
O270   O     0.26198   0.53642   0.16206   0.00000  Uiso   1.00
N271   N     0.22385   0.33535   0.69644   0.00000  Uiso   1.00
N272   N     0.03441   0.40831   0.38179   0.00000  Uiso   1.00
N273   N     0.34080   0.53480   0.11682   0.00000  Uiso   1.00
N274   N     0.22127   0.25096   0.74517   0.00000  Uiso   1.00
N275   N     0.03184   0.32393   0.43052   0.00000  Uiso   1.00
N276   N     0.33823   0.45042   0.16555   0.00000  Uiso   1.00
C277   C     0.42216   0.06460   0.22633   0.00000  Uiso   1.00
C278   C     0.51603   0.11234   0.31469   0.00000  Uiso   1.00
C279   C     0.65062   0.10493   0.41709   0.00000  Uiso   1.00
C280   C     0.71923   0.15404   0.48619   0.00000  Uiso   1.00
C281   C     0.87471   0.21987   0.62827   0.00000  Uiso   1.00
C282   C     0.35895   0.09128   0.12677   0.00000  Uiso   1.00
C283   C     0.36144   0.06615   0.07118   0.00000  Uiso   1.00
C284   C     0.29779   0.09752   0.98209   0.00000  Uiso   1.00
C285   C     0.20931   0.13064   0.83238   0.00000  Uiso   1.00
C286   C     0.31098   0.05899   0.19685   0.00000  Uiso   1.00
C287   C     0.27312   0.00671   0.20014   0.00000  Uiso   1.00
C288   C     0.16905   0.01089   0.17001   0.00000  Uiso   1.00
C289   C     0.00610   0.99387   0.12910   0.00000  Uiso   1.00
C290   C     0.30466   0.16499   0.16696   0.00000  Uiso   1.00
C291   C     0.45221   0.16686   0.28243   0.00000  Uiso   1.00
C292   C     0.52062   0.21599   0.35140   0.00000  Uiso   1.00
C293   C     0.65529   0.20866   0.45389   0.00000  Uiso   1.00
C294   C     0.29512   0.14580   0.09452   0.00000  Uiso   1.00
C295   C     0.23144   0.17721   0.00549   0.00000  Uiso   1.00
C296   C     0.23385   0.15215   0.94978   0.00000  Uiso   1.00
C297   C     0.24716   0.11351   0.16460   0.00000  Uiso   1.00
C298   C     0.14312   0.11777   0.13445   0.00000  Uiso   1.00
C299   C     0.10511   0.06552   0.13770   0.00000  Uiso   1.00
H300   H     0.47184   0.02215   0.25143   0.00000  Uiso   1.00
H301   H     0.69998   0.06273   0.44201   0.00000  Uiso   1.00
H302   H     0.41083   0.02395   0.09615   0.00000  Uiso   1.00
H303   H     0.32253   0.96453   0.22510   0.00000  Uiso   1.00
H304   H     0.92478   0.13177   0.63907   0.00000  Uiso   1.00
H305   H     0.31505   0.04999   0.90977   0.00000  Uiso   1.00
H306   H     0.12884   0.92467   0.18168   0.00000  Uiso   1.00
H307   H     0.25497   0.20744   0.14185   0.00000  Uiso   1.00
H308   H     0.47121   0.25818   0.32642   0.00000  Uiso   1.00
H309   H     0.18206   0.21940   0.98055   0.00000  Uiso   1.00
H310   H     0.09376   0.15998   0.10950   0.00000  Uiso   1.00
H311   H     0.73910   0.29040   0.54525   0.00000  Uiso   1.00
H312   H     0.12936   0.20863   0.81595   0.00000  Uiso   1.00
H313   H     0.94316   0.08331   0.08786   0.00000  Uiso   1.00
O314   O     0.97811   0.24113   0.71554   0.00000  Uiso   1.00
O315   O     0.17815   0.13384   0.75872   0.00000  Uiso   1.00
O316   O     0.93386   0.96943   0.11546   0.00000  Uiso   1.00
N317   N     0.85140   0.16213   0.59166   0.00000  Uiso   1.00
N318   N     0.28136   0.08569   0.90983   0.00000  Uiso   1.00
N319   N     0.10724   0.96852   0.16401   0.00000  Uiso   1.00
N320   N     0.75148   0.24750   0.54118   0.00000  Uiso   1.00
N321   N     0.18144   0.17105   0.85935   0.00000  Uiso   1.00
N322   N     0.00733   0.05388   0.11353   0.00000  Uiso   1.00
C323   C     0.03834   0.56771   0.57194   0.00000  Uiso   1.00
C324   C     0.12756   0.61634   0.65888   0.00000  Uiso   1.00
C325   C     0.26297   0.61140   0.76110   0.00000  Uiso   1.00
C326   C     0.32677   0.66094   0.82882   0.00000  Uiso   1.00
C327   C     0.47584   0.72847   0.96888   0.00000  Uiso   1.00
C328   C     0.97130   0.59536   0.47118   0.00000  Uiso   1.00
C329   C     0.97533   0.57276   0.41558   0.00000  Uiso   1.00
C330   C     0.90757   0.60463   0.32530   0.00000  Uiso   1.00
C331   C     0.81398   0.63955   0.17390   0.00000  Uiso   1.00
C332   C     0.92878   0.55775   0.54360   0.00000  Uiso   1.00
C333   C     0.89702   0.50353   0.54887   0.00000  Uiso   1.00
C334   C     0.79343   0.50373   0.51954   0.00000  Uiso   1.00
C335   C     0.63381   0.48026   0.48059   0.00000  Uiso   1.00
C336   C     0.91082   0.66447   0.51044   0.00000  Uiso   1.00
C337   C     0.05829   0.66890   0.62547   0.00000  Uiso   1.00
C338   C     0.12189   0.71846   0.69306   0.00000  Uiso   1.00
C339   C     0.25738   0.71359   0.79537   0.00000  Uiso   1.00
C340   C     0.90204   0.64791   0.43778   0.00000  Uiso   1.00
C341   C     0.83425   0.67982   0.34755   0.00000  Uiso   1.00
C342   C     0.83818   0.65728   0.29183   0.00000  Uiso   1.00
C343   C     0.85951   0.61030   0.51020   0.00000  Uiso   1.00
C344   C     0.75594   0.61059   0.48084   0.00000  Uiso   1.00
C345   C     0.72404   0.55638   0.48607   0.00000  Uiso   1.00
H346   H     0.09226   0.52679   0.59793   0.00000  Uiso   1.00
H347   H     0.31654   0.57072   0.78691   0.00000  Uiso   1.00
H348   H     0.02893   0.53209   0.44144   0.00000  Uiso   1.00
H349   H     0.95064   0.46287   0.57472   0.00000  Uiso   1.00
H350   H     0.53466   0.64261   0.98169   0.00000  Uiso   1.00
H351   H     0.92818   0.56113   0.25323   0.00000  Uiso   1.00
H352   H     0.76308   0.41517   0.53426   0.00000  Uiso   1.00
H353   H     0.85689   0.70540   0.48443   0.00000  Uiso   1.00
H354   H     0.06826   0.75913   0.66719   0.00000  Uiso   1.00
H355   H     0.78065   0.72049   0.32172   0.00000  Uiso   1.00
H356   H     0.70236   0.65127   0.45500   0.00000  Uiso   1.00
H357   H     0.33315   0.79553   0.88451   0.00000  Uiso   1.00
H358   H     0.72667   0.71405   0.15605   0.00000  Uiso   1.00
H359   H     0.56157   0.56808   0.43709   0.00000  Uiso   1.00
O360   O     0.57721   0.75120   0.05536   0.00000  Uiso   1.00
O361   O     0.78151   0.64430   0.09963   0.00000  Uiso   1.00
O362   O     0.56491   0.45279   0.46836   0.00000  Uiso   1.00
N363   N     0.45823   0.67122   0.93374   0.00000  Uiso   1.00
N364   N     0.89122   0.59505   0.25269   0.00000  Uiso   1.00
N365   N     0.73684   0.45858   0.51541   0.00000  Uiso   1.00
N366   N     0.34979   0.75351   0.88146   0.00000  Uiso   1.00
N367   N     0.78279   0.67733   0.20040   0.00000  Uiso   1.00
N368   N     0.62841   0.54086   0.46312   0.00000  Uiso   1.00
