data_job_03583
_audit_creation_date              2018-12-19
_audit_creation_method            'Materials Studio'
_symmetry_space_group_name_H-M    'P1'
_symmetry_Int_Tables_number       1
_symmetry_cell_setting            triclinic
loop_
_symmetry_equiv_pos_as_xyz
  x,y,z
_cell_length_a                    26.2679
_cell_length_b                    12.4162
_cell_length_c                    21.5381
_cell_angle_alpha                 90.0000
_cell_angle_beta                  150.3693
_cell_angle_gamma                 90.0000
loop_
_atom_site_label
_atom_site_type_symbol
_atom_site_fract_x
_atom_site_fract_y
_atom_site_fract_z
_atom_site_U_iso_or_equiv
_atom_site_adp_type
_atom_site_occupancy
C1     C     0.38645   0.47774   0.46317   0.00000  Uiso   1.00
C2     C     0.29675   0.46646   0.32285   0.00000  Uiso   1.00
C3     C     0.30117   0.48411   0.26397   0.00000  Uiso   1.00
C4     C     0.21068   0.46955   0.13476   0.00000  Uiso   1.00
C5     C     0.08531   0.45682   0.92718   0.00000  Uiso   1.00
C6     C     0.35142   0.55806   0.47525   0.00000  Uiso   1.00
C7     C     0.40182   0.65272   0.54453   0.00000  Uiso   1.00
C8     C     0.35736   0.71526   0.54362   0.00000  Uiso   1.00
C9     C     0.31691   0.84470   0.57273   0.00000  Uiso   1.00
C10    C     0.39565   0.36948   0.50589   0.00000  Uiso   1.00
C11    C     0.48326   0.30558   0.60096   0.00000  Uiso   1.00
C12    C     0.47605   0.20936   0.62586   0.00000  Uiso   1.00
C13    C     0.50428   0.04600   0.70254   0.00000  Uiso   1.00
C14    C     0.21787   0.42050   0.33839   0.00000  Uiso   1.00
C15    C     0.20518   0.43537   0.25508   0.00000  Uiso   1.00
C16    C     0.11466   0.42077   0.12592   0.00000  Uiso   1.00
C17    C     0.11895   0.43840   0.06686   0.00000  Uiso   1.00
C18    C     0.25986   0.52697   0.40749   0.00000  Uiso   1.00
C19    C     0.21531   0.58938   0.40648   0.00000  Uiso   1.00
C20    C     0.26563   0.68411   0.47573   0.00000  Uiso   1.00
C21    C     0.30409   0.33838   0.43812   0.00000  Uiso   1.00
C22    C     0.29674   0.24224   0.46289   0.00000  Uiso   1.00
C23    C     0.38432   0.17821   0.55797   0.00000  Uiso   1.00
H24    H     0.45773   0.50196   0.51594   0.00000  Uiso   1.00
H25    H     0.37204   0.50819   0.31646   0.00000  Uiso   1.00
H26    H     0.47268   0.67676   0.59698   0.00000  Uiso   1.00
H27    H     0.55410   0.32967   0.65338   0.00000  Uiso   1.00
H28    H     0.23665   0.50142   0.06540   0.00000  Uiso   1.00
H29    H     0.44887   0.85684   0.65693   0.00000  Uiso   1.00
H30    H     0.62057   0.12495   0.77588   0.00000  Uiso   1.00
H31    H     0.14658   0.39629   0.28563   0.00000  Uiso   1.00
H32    H     0.04381   0.39671   0.07350   0.00000  Uiso   1.00
H33    H     0.14445   0.56529   0.35403   0.00000  Uiso   1.00
H34    H     0.22587   0.21821   0.41043   0.00000  Uiso   1.00
H35    H     0.97024   0.41095   0.86821   0.00000  Uiso   1.00
H36    H     0.18247   0.76637   0.45975   0.00000  Uiso   1.00
H37    H     0.35416   0.03448   0.57868   0.00000  Uiso   1.00
O38    O     0.04145   0.45840   0.83141   0.00000  Uiso   1.00
O39    O     0.31989   0.92469   0.60750   0.00000  Uiso   1.00
O40    O     0.54514   0.96447   0.76354   0.00000  Uiso   1.00
N41    N     0.18806   0.48004   0.04810   0.00000  Uiso   1.00
N42    N     0.38647   0.81235   0.60114   0.00000  Uiso   1.00
N43    N     0.54699   0.12811   0.71236   0.00000  Uiso   1.00
N44    N     0.04471   0.43136   0.94200   0.00000  Uiso   1.00
N45    N     0.24312   0.76367   0.49503   0.00000  Uiso   1.00
N46    N     0.40364   0.07943   0.60625   0.00000  Uiso   1.00
C47    C     0.61355   0.97774   0.03683   0.00000  Uiso   1.00
C48    C     0.70325   0.96646   0.17715   0.00000  Uiso   1.00
C49    C     0.69883   0.98411   0.23603   0.00000  Uiso   1.00
C50    C     0.78932   0.96955   0.36524   0.00000  Uiso   1.00
C51    C     0.91469   0.95682   0.57282   0.00000  Uiso   1.00
C52    C     0.64858   0.05806   0.02475   0.00000  Uiso   1.00
C53    C     0.59818   0.15272   0.95547   0.00000  Uiso   1.00
C54    C     0.64264   0.21526   0.95638   0.00000  Uiso   1.00
C55    C     0.68309   0.34470   0.92727   0.00000  Uiso   1.00
C56    C     0.60435   0.86948   0.99411   0.00000  Uiso   1.00
C57    C     0.51674   0.80558   0.89904   0.00000  Uiso   1.00
C58    C     0.52395   0.70936   0.87414   0.00000  Uiso   1.00
C59    C     0.49572   0.54600   0.79746   0.00000  Uiso   1.00
C60    C     0.78213   0.92050   0.16161   0.00000  Uiso   1.00
C61    C     0.79482   0.93537   0.24492   0.00000  Uiso   1.00
C62    C     0.88534   0.92077   0.37408   0.00000  Uiso   1.00
C63    C     0.88105   0.93840   0.43314   0.00000  Uiso   1.00
C64    C     0.74014   0.02697   0.09251   0.00000  Uiso   1.00
C65    C     0.78469   0.08938   0.09352   0.00000  Uiso   1.00
C66    C     0.73437   0.18411   0.02427   0.00000  Uiso   1.00
C67    C     0.69591   0.83838   0.06188   0.00000  Uiso   1.00
C68    C     0.70326   0.74224   0.03711   0.00000  Uiso   1.00
C69    C     0.61568   0.67821   0.94203   0.00000  Uiso   1.00
H70    H     0.54227   0.00196   0.98406   0.00000  Uiso   1.00
H71    H     0.62796   0.00819   0.18354   0.00000  Uiso   1.00
H72    H     0.52732   0.17676   0.90302   0.00000  Uiso   1.00
H73    H     0.44590   0.82967   0.84662   0.00000  Uiso   1.00
H74    H     0.76335   0.00142   0.43460   0.00000  Uiso   1.00
H75    H     0.55113   0.35684   0.84307   0.00000  Uiso   1.00
H76    H     0.37943   0.62495   0.72412   0.00000  Uiso   1.00
H77    H     0.85342   0.89629   0.21437   0.00000  Uiso   1.00
H78    H     0.95619   0.89671   0.42650   0.00000  Uiso   1.00
H79    H     0.85555   0.06529   0.14597   0.00000  Uiso   1.00
H80    H     0.77413   0.71821   0.08957   0.00000  Uiso   1.00
H81    H     0.02976   0.91095   0.63179   0.00000  Uiso   1.00
H82    H     0.81753   0.26637   0.04025   0.00000  Uiso   1.00
H83    H     0.64584   0.53448   0.92132   0.00000  Uiso   1.00
O84    O     0.95855   0.95840   0.66859   0.00000  Uiso   1.00
O85    O     0.68011   0.42469   0.89250   0.00000  Uiso   1.00
O86    O     0.45486   0.46447   0.73646   0.00000  Uiso   1.00
N87    N     0.81194   0.98004   0.45190   0.00000  Uiso   1.00
N88    N     0.61353   0.31235   0.89886   0.00000  Uiso   1.00
N89    N     0.45301   0.62811   0.78764   0.00000  Uiso   1.00
N90    N     0.95529   0.93136   0.55800   0.00000  Uiso   1.00
N91    N     0.75688   0.26367   0.00497   0.00000  Uiso   1.00
N92    N     0.59636   0.57943   0.89375   0.00000  Uiso   1.00
C93    C     0.61355   0.52226   0.53683   0.00000  Uiso   1.00
C94    C     0.70325   0.53354   0.67715   0.00000  Uiso   1.00
C95    C     0.69883   0.51589   0.73603   0.00000  Uiso   1.00
C96    C     0.78932   0.53045   0.86524   0.00000  Uiso   1.00
C97    C     0.91469   0.54318   0.07282   0.00000  Uiso   1.00
C98    C     0.64858   0.44194   0.52475   0.00000  Uiso   1.00
C99    C     0.59818   0.34728   0.45547   0.00000  Uiso   1.00
C100   C     0.64264   0.28474   0.45638   0.00000  Uiso   1.00
C101   C     0.68309   0.15530   0.42727   0.00000  Uiso   1.00
C102   C     0.60435   0.63052   0.49411   0.00000  Uiso   1.00
C103   C     0.51674   0.69442   0.39904   0.00000  Uiso   1.00
C104   C     0.52395   0.79064   0.37414   0.00000  Uiso   1.00
C105   C     0.49572   0.95400   0.29746   0.00000  Uiso   1.00
C106   C     0.78213   0.57950   0.66161   0.00000  Uiso   1.00
C107   C     0.79482   0.56463   0.74492   0.00000  Uiso   1.00
C108   C     0.88534   0.57923   0.87408   0.00000  Uiso   1.00
C109   C     0.88105   0.56160   0.93314   0.00000  Uiso   1.00
C110   C     0.74014   0.47303   0.59251   0.00000  Uiso   1.00
C111   C     0.78469   0.41062   0.59352   0.00000  Uiso   1.00
C112   C     0.73437   0.31589   0.52427   0.00000  Uiso   1.00
C113   C     0.69591   0.66162   0.56188   0.00000  Uiso   1.00
C114   C     0.70326   0.75776   0.53711   0.00000  Uiso   1.00
C115   C     0.61568   0.82179   0.44203   0.00000  Uiso   1.00
H116   H     0.54227   0.49804   0.48406   0.00000  Uiso   1.00
H117   H     0.62796   0.49181   0.68354   0.00000  Uiso   1.00
H118   H     0.52732   0.32324   0.40302   0.00000  Uiso   1.00
H119   H     0.44590   0.67033   0.34662   0.00000  Uiso   1.00
H120   H     0.76335   0.49858   0.93460   0.00000  Uiso   1.00
H121   H     0.55113   0.14316   0.34307   0.00000  Uiso   1.00
H122   H     0.37943   0.87505   0.22412   0.00000  Uiso   1.00
H123   H     0.85342   0.60371   0.71437   0.00000  Uiso   1.00
H124   H     0.95619   0.60329   0.92650   0.00000  Uiso   1.00
H125   H     0.85555   0.43471   0.64597   0.00000  Uiso   1.00
H126   H     0.77413   0.78179   0.58957   0.00000  Uiso   1.00
H127   H     0.02976   0.58905   0.13179   0.00000  Uiso   1.00
H128   H     0.81753   0.23363   0.54025   0.00000  Uiso   1.00
H129   H     0.64584   0.96552   0.42132   0.00000  Uiso   1.00
O130   O     0.95855   0.54160   0.16859   0.00000  Uiso   1.00
O131   O     0.68011   0.07531   0.39250   0.00000  Uiso   1.00
O132   O     0.45486   0.03553   0.23646   0.00000  Uiso   1.00
N133   N     0.81194   0.51996   0.95190   0.00000  Uiso   1.00
N134   N     0.61353   0.18765   0.39886   0.00000  Uiso   1.00
N135   N     0.45301   0.87189   0.28764   0.00000  Uiso   1.00
N136   N     0.95529   0.56864   0.05800   0.00000  Uiso   1.00
N137   N     0.75688   0.23633   0.50497   0.00000  Uiso   1.00
N138   N     0.59636   0.92057   0.39375   0.00000  Uiso   1.00
C139   C     0.38645   0.02226   0.96317   0.00000  Uiso   1.00
C140   C     0.29675   0.03354   0.82285   0.00000  Uiso   1.00
C141   C     0.30117   0.01589   0.76397   0.00000  Uiso   1.00
C142   C     0.21068   0.03045   0.63476   0.00000  Uiso   1.00
C143   C     0.08531   0.04318   0.42718   0.00000  Uiso   1.00
C144   C     0.35142   0.94194   0.97525   0.00000  Uiso   1.00
C145   C     0.40182   0.84728   0.04453   0.00000  Uiso   1.00
C146   C     0.35736   0.78474   0.04362   0.00000  Uiso   1.00
C147   C     0.31691   0.65530   0.07273   0.00000  Uiso   1.00
C148   C     0.39565   0.13052   0.00589   0.00000  Uiso   1.00
C149   C     0.48326   0.19442   0.10096   0.00000  Uiso   1.00
C150   C     0.47605   0.29064   0.12586   0.00000  Uiso   1.00
C151   C     0.50428   0.45400   0.20254   0.00000  Uiso   1.00
C152   C     0.21787   0.07950   0.83839   0.00000  Uiso   1.00
C153   C     0.20518   0.06463   0.75508   0.00000  Uiso   1.00
C154   C     0.11466   0.07923   0.62592   0.00000  Uiso   1.00
C155   C     0.11895   0.06160   0.56686   0.00000  Uiso   1.00
C156   C     0.25986   0.97303   0.90749   0.00000  Uiso   1.00
C157   C     0.21531   0.91062   0.90648   0.00000  Uiso   1.00
C158   C     0.26563   0.81589   0.97573   0.00000  Uiso   1.00
C159   C     0.30409   0.16162   0.93812   0.00000  Uiso   1.00
C160   C     0.29674   0.25776   0.96289   0.00000  Uiso   1.00
C161   C     0.38432   0.32179   0.05797   0.00000  Uiso   1.00
H162   H     0.45773   0.99804   0.01594   0.00000  Uiso   1.00
H163   H     0.37204   0.99181   0.81646   0.00000  Uiso   1.00
H164   H     0.47268   0.82324   0.09698   0.00000  Uiso   1.00
H165   H     0.55410   0.17033   0.15338   0.00000  Uiso   1.00
H166   H     0.23665   0.99858   0.56540   0.00000  Uiso   1.00
H167   H     0.44887   0.64316   0.15693   0.00000  Uiso   1.00
H168   H     0.62057   0.37505   0.27588   0.00000  Uiso   1.00
H169   H     0.14658   0.10371   0.78563   0.00000  Uiso   1.00
H170   H     0.04381   0.10329   0.57350   0.00000  Uiso   1.00
H171   H     0.14445   0.93471   0.85403   0.00000  Uiso   1.00
H172   H     0.22587   0.28179   0.91043   0.00000  Uiso   1.00
H173   H     0.97024   0.08905   0.36821   0.00000  Uiso   1.00
H174   H     0.18247   0.73363   0.95975   0.00000  Uiso   1.00
H175   H     0.35416   0.46552   0.07868   0.00000  Uiso   1.00
O176   O     0.04145   0.04160   0.33141   0.00000  Uiso   1.00
O177   O     0.31989   0.57531   0.10750   0.00000  Uiso   1.00
O178   O     0.54514   0.53553   0.26354   0.00000  Uiso   1.00
N179   N     0.18806   0.01996   0.54810   0.00000  Uiso   1.00
N180   N     0.38647   0.68765   0.10114   0.00000  Uiso   1.00
N181   N     0.54699   0.37189   0.21236   0.00000  Uiso   1.00
N182   N     0.04471   0.06864   0.44200   0.00000  Uiso   1.00
N183   N     0.24312   0.73633   0.99503   0.00000  Uiso   1.00
N184   N     0.40364   0.42057   0.10625   0.00000  Uiso   1.00
