data_job_05929
_audit_creation_date              2018-12-19
_audit_creation_method            'Materials Studio'
_symmetry_space_group_name_H-M    'P1'
_symmetry_Int_Tables_number       1
_symmetry_cell_setting            triclinic
loop_
_symmetry_equiv_pos_as_xyz
  x,y,z
_cell_length_a                    7.7376
_cell_length_b                    22.2493
_cell_length_c                    22.6632
_cell_angle_alpha                 118.7380
_cell_angle_beta                  81.4594
_cell_angle_gamma                 87.6195
loop_
_atom_site_label
_atom_site_type_symbol
_atom_site_fract_x
_atom_site_fract_y
_atom_site_fract_z
_atom_site_U_iso_or_equiv
_atom_site_adp_type
_atom_site_occupancy
C1     C     0.90017   0.84780   0.22064   0.00000  Uiso   1.00
C2     C     0.86260   0.77681   0.20980   0.00000  Uiso   1.00
C3     C     0.98488   0.72586   0.20391   0.00000  Uiso   1.00
C4     C     0.92441   0.66446   0.19417   0.00000  Uiso   1.00
C5     C     0.89294   0.55575   0.17786   0.00000  Uiso   1.00
C6     C     0.84271   0.85359   0.16186   0.00000  Uiso   1.00
C7     C     0.94826   0.86721   0.11567   0.00000  Uiso   1.00
C8     C     0.87104   0.87045   0.06557   0.00000  Uiso   1.00
C9     C     0.80865   0.88099   0.97486   0.00000  Uiso   1.00
C10    C     0.77260   0.90035   0.28558   0.00000  Uiso   1.00
C11    C     0.81919   0.95329   0.34341   0.00000  Uiso   1.00
C12    C     0.68293   0.99590   0.39748   0.00000  Uiso   1.00
C13    C     0.51168   0.07904   0.49887   0.00000  Uiso   1.00
C14    C     0.57534   0.82936   0.21382   0.00000  Uiso   1.00
C15    C     0.68616   0.76680   0.20609   0.00000  Uiso   1.00
C16    C     0.62549   0.70546   0.19636   0.00000  Uiso   1.00
C17    C     0.74766   0.65442   0.19046   0.00000  Uiso   1.00
C18    C     0.66628   0.84358   0.15815   0.00000  Uiso   1.00
C19    C     0.58888   0.84681   0.10811   0.00000  Uiso   1.00
C20    C     0.69429   0.86042   0.06185   0.00000  Uiso   1.00
C21    C     0.59616   0.89033   0.28188   0.00000  Uiso   1.00
C22    C     0.45981   0.93288   0.33586   0.00000  Uiso   1.00
C23    C     0.50618   0.98587   0.39376   0.00000  Uiso   1.00
H24    H     0.03752   0.85560   0.22353   0.00000  Uiso   1.00
H25    H     0.12141   0.73363   0.20678   0.00000  Uiso   1.00
H26    H     0.08479   0.87496   0.11855   0.00000  Uiso   1.00
H27    H     0.95573   0.96102   0.34626   0.00000  Uiso   1.00
H28    H     0.13661   0.59398   0.18655   0.00000  Uiso   1.00
H29    H     0.05938   0.89201   0.00053   0.00000  Uiso   1.00
H30    H     0.78725   0.07349   0.48071   0.00000  Uiso   1.00
H31    H     0.43797   0.82156   0.21093   0.00000  Uiso   1.00
H32    H     0.48895   0.69772   0.19349   0.00000  Uiso   1.00
H33    H     0.45234   0.83906   0.10526   0.00000  Uiso   1.00
H34    H     0.32329   0.92512   0.33297   0.00000  Uiso   1.00
H35    H     0.62329   0.56483   0.17576   0.00000  Uiso   1.00
H36    H     0.54606   0.86287   0.98975   0.00000  Uiso   1.00
H37    H     0.27393   0.04435   0.46992   0.00000  Uiso   1.00
O38    O     0.92432   0.49855   0.16989   0.00000  Uiso   1.00
O39    O     0.82299   0.88957   0.92585   0.00000  Uiso   1.00
O40    O     0.46596   0.12766   0.55583   0.00000  Uiso   1.00
N41    N     0.00880   0.60412   0.18641   0.00000  Uiso   1.00
N42    N     0.93660   0.88275   0.01249   0.00000  Uiso   1.00
N43    N     0.68218   0.05243   0.46141   0.00000  Uiso   1.00
N44    N     0.73258   0.58844   0.18061   0.00000  Uiso   1.00
N45    N     0.66039   0.86707   0.00669   0.00000  Uiso   1.00
N46    N     0.40597   0.03675   0.45561   0.00000  Uiso   1.00
C47    C     0.12491   0.78162   0.62580   0.00000  Uiso   1.00
C48    C     0.08489   0.79216   0.56727   0.00000  Uiso   1.00
C49    C     0.20750   0.80029   0.52117   0.00000  Uiso   1.00
C50    C     0.14452   0.80931   0.47132   0.00000  Uiso   1.00
C51    C     0.10963   0.82558   0.38100   0.00000  Uiso   1.00
C52    C     0.00826   0.83924   0.69094   0.00000  Uiso   1.00
C53    C     0.06644   0.88695   0.74882   0.00000  Uiso   1.00
C54    C     0.93894   0.93560   0.80307   0.00000  Uiso   1.00
C55    C     0.78507   0.02493   0.90476   0.00000  Uiso   1.00
C56    C     0.05549   0.71454   0.61471   0.00000  Uiso   1.00
C57    C     0.15338   0.65740   0.60852   0.00000  Uiso   1.00
C58    C     0.06562   0.60106   0.59861   0.00000  Uiso   1.00
C59    C     0.98509   0.49678   0.58195   0.00000  Uiso   1.00
C60    C     0.79501   0.78317   0.61925   0.00000  Uiso   1.00
C61    C     0.90570   0.79300   0.56371   0.00000  Uiso   1.00
C62    C     0.84251   0.80201   0.51392   0.00000  Uiso   1.00
C63    C     0.96501   0.81015   0.46775   0.00000  Uiso   1.00
C64    C     0.82908   0.84008   0.68738   0.00000  Uiso   1.00
C65    C     0.70145   0.88867   0.74156   0.00000  Uiso   1.00
C66    C     0.75943   0.93644   0.79950   0.00000  Uiso   1.00
C67    C     0.87630   0.71538   0.61115   0.00000  Uiso   1.00
C68    C     0.78838   0.65912   0.60126   0.00000  Uiso   1.00
C69    C     0.88611   0.60191   0.59505   0.00000  Uiso   1.00
H70    H     0.26440   0.78097   0.62858   0.00000  Uiso   1.00
H71    H     0.34616   0.79965   0.52395   0.00000  Uiso   1.00
H72    H     0.20511   0.88628   0.75156   0.00000  Uiso   1.00
H73    H     0.29203   0.65677   0.61128   0.00000  Uiso   1.00
H74    H     0.35777   0.82075   0.40639   0.00000  Uiso   1.00
H75    H     0.06036   0.00342   0.88632   0.00000  Uiso   1.00
H76    H     0.24365   0.51944   0.59052   0.00000  Uiso   1.00
H77    H     0.65550   0.78383   0.61648   0.00000  Uiso   1.00
H78    H     0.70384   0.80266   0.51117   0.00000  Uiso   1.00
H79    H     0.56280   0.88930   0.73879   0.00000  Uiso   1.00
H80    H     0.64972   0.65979   0.59851   0.00000  Uiso   1.00
H81    H     0.83644   0.82319   0.39602   0.00000  Uiso   1.00
H82    H     0.53903   0.00587   0.87596   0.00000  Uiso   1.00
H83    H     0.72232   0.52189   0.58015   0.00000  Uiso   1.00
O84    O     0.13988   0.83433   0.33217   0.00000  Uiso   1.00
O85    O     0.74970   0.07398   0.96183   0.00000  Uiso   1.00
O86    O     0.99017   0.43902   0.57374   0.00000  Uiso   1.00
N87    N     0.22844   0.81872   0.41839   0.00000  Uiso   1.00
N88    N     0.95039   0.98952   0.86710   0.00000  Uiso   1.00
N89    N     0.12174   0.53705   0.59057   0.00000  Uiso   1.00
N90    N     0.94792   0.82004   0.41281   0.00000  Uiso   1.00
N91    N     0.66987   0.99083   0.86152   0.00000  Uiso   1.00
N92    N     0.84122   0.53837   0.58499   0.00000  Uiso   1.00
C93    C     0.74855   0.37602   0.15371   0.00000  Uiso   1.00
C94    C     0.64906   0.43365   0.22300   0.00000  Uiso   1.00
C95    C     0.72507   0.48158   0.27514   0.00000  Uiso   1.00
C96    C     0.61139   0.53019   0.33463   0.00000  Uiso   1.00
C97    C     0.48476   0.61956   0.44117   0.00000  Uiso   1.00
C98    C     0.68967   0.30890   0.14725   0.00000  Uiso   1.00
C99    C     0.79983   0.25193   0.13570   0.00000  Uiso   1.00
C100   C     0.72032   0.19552   0.13141   0.00000  Uiso   1.00
C101   C     0.65675   0.09119   0.12030   0.00000  Uiso   1.00
C102   C     0.67594   0.38626   0.09974   0.00000  Uiso   1.00
C103   C     0.77455   0.39433   0.04821   0.00000  Uiso   1.00
C104   C     0.68348   0.40303   0.00391   0.00000  Uiso   1.00
C105   C     0.59859   0.41883   0.91902   0.00000  Uiso   1.00
C106   C     0.41149   0.37712   0.16664   0.00000  Uiso   1.00
C107   C     0.46598   0.43425   0.23002   0.00000  Uiso   1.00
C108   C     0.35215   0.48280   0.28945   0.00000  Uiso   1.00
C109   C     0.42797   0.53079   0.34166   0.00000  Uiso   1.00
C110   C     0.50660   0.30949   0.15428   0.00000  Uiso   1.00
C111   C     0.42690   0.25315   0.15000   0.00000  Uiso   1.00
C112   C     0.53691   0.19612   0.13845   0.00000  Uiso   1.00
C113   C     0.49285   0.38686   0.10676   0.00000  Uiso   1.00
C114   C     0.40162   0.39555   0.06252   0.00000  Uiso   1.00
C115   C     0.50007   0.40363   0.01095   0.00000  Uiso   1.00
H116   H     0.89109   0.37555   0.14824   0.00000  Uiso   1.00
H117   H     0.86676   0.48109   0.26969   0.00000  Uiso   1.00
H118   H     0.94150   0.25148   0.13026   0.00000  Uiso   1.00
H119   H     0.91622   0.39386   0.04280   0.00000  Uiso   1.00
H120   H     0.75906   0.59836   0.40744   0.00000  Uiso   1.00
H121   H     0.91666   0.11420   0.11342   0.00000  Uiso   1.00
H122   H     0.86336   0.41443   0.92898   0.00000  Uiso   1.00
H123   H     0.26894   0.37758   0.17211   0.00000  Uiso   1.00
H124   H     0.21047   0.48325   0.29487   0.00000  Uiso   1.00
H125   H     0.28522   0.25363   0.15544   0.00000  Uiso   1.00
H126   H     0.25994   0.39601   0.06797   0.00000  Uiso   1.00
H127   H     0.22639   0.60010   0.42788   0.00000  Uiso   1.00
H128   H     0.38400   0.11594   0.13385   0.00000  Uiso   1.00
H129   H     0.33069   0.41617   0.94942   0.00000  Uiso   1.00
O130   O     0.46549   0.66868   0.49799   0.00000  Uiso   1.00
O131   O     0.67226   0.03348   0.11223   0.00000  Uiso   1.00
O132   O     0.60233   0.42738   0.87027   0.00000  Uiso   1.00
N133   N     0.64172   0.58428   0.39540   0.00000  Uiso   1.00
N134   N     0.78906   0.13162   0.12052   0.00000  Uiso   1.00
N135   N     0.73924   0.41229   0.94808   0.00000  Uiso   1.00
N136   N     0.35509   0.58522   0.40640   0.00000  Uiso   1.00
N137   N     0.50244   0.13256   0.13152   0.00000  Uiso   1.00
N138   N     0.45261   0.41323   0.95907   0.00000  Uiso   1.00
C139   C     0.09983   0.15220   0.77936   0.00000  Uiso   1.00
C140   C     0.13740   0.22319   0.79020   0.00000  Uiso   1.00
C141   C     0.01512   0.27414   0.79609   0.00000  Uiso   1.00
C142   C     0.07559   0.33554   0.80583   0.00000  Uiso   1.00
C143   C     0.10706   0.44425   0.82214   0.00000  Uiso   1.00
C144   C     0.15729   0.14641   0.83814   0.00000  Uiso   1.00
C145   C     0.05174   0.13279   0.88433   0.00000  Uiso   1.00
C146   C     0.12896   0.12955   0.93443   0.00000  Uiso   1.00
C147   C     0.19135   0.11901   0.02514   0.00000  Uiso   1.00
C148   C     0.22740   0.09965   0.71442   0.00000  Uiso   1.00
C149   C     0.18081   0.04671   0.65659   0.00000  Uiso   1.00
C150   C     0.31707   0.00410   0.60252   0.00000  Uiso   1.00
C151   C     0.48832   0.92096   0.50113   0.00000  Uiso   1.00
C152   C     0.42466   0.17064   0.78618   0.00000  Uiso   1.00
C153   C     0.31384   0.23320   0.79391   0.00000  Uiso   1.00
C154   C     0.37451   0.29454   0.80364   0.00000  Uiso   1.00
C155   C     0.25234   0.34558   0.80954   0.00000  Uiso   1.00
C156   C     0.33372   0.15642   0.84185   0.00000  Uiso   1.00
C157   C     0.41112   0.15320   0.89189   0.00000  Uiso   1.00
C158   C     0.30571   0.13958   0.93815   0.00000  Uiso   1.00
C159   C     0.40384   0.10967   0.71812   0.00000  Uiso   1.00
C160   C     0.54019   0.06712   0.66414   0.00000  Uiso   1.00
C161   C     0.49382   0.01413   0.60624   0.00000  Uiso   1.00
H162   H     0.96247   0.14440   0.77647   0.00000  Uiso   1.00
H163   H     0.87859   0.26637   0.79322   0.00000  Uiso   1.00
H164   H     0.91521   0.12504   0.88145   0.00000  Uiso   1.00
H165   H     0.04427   0.03898   0.65374   0.00000  Uiso   1.00
H166   H     0.86339   0.40602   0.81345   0.00000  Uiso   1.00
H167   H     0.94062   0.10799   0.99947   0.00000  Uiso   1.00
H168   H     0.21275   0.92651   0.51929   0.00000  Uiso   1.00
H169   H     0.56203   0.17844   0.78907   0.00000  Uiso   1.00
H170   H     0.51105   0.30228   0.80651   0.00000  Uiso   1.00
H171   H     0.54766   0.16094   0.89474   0.00000  Uiso   1.00
H172   H     0.67671   0.07488   0.66703   0.00000  Uiso   1.00
H173   H     0.37671   0.43517   0.82424   0.00000  Uiso   1.00
H174   H     0.45394   0.13713   0.01025   0.00000  Uiso   1.00
H175   H     0.72607   0.95565   0.53008   0.00000  Uiso   1.00
O176   O     0.07568   0.50145   0.83011   0.00000  Uiso   1.00
O177   O     0.17701   0.11043   0.07415   0.00000  Uiso   1.00
O178   O     0.53404   0.87234   0.44417   0.00000  Uiso   1.00
N179   N     0.99120   0.39588   0.81359   0.00000  Uiso   1.00
N180   N     0.06340   0.11725   0.98750   0.00000  Uiso   1.00
N181   N     0.31782   0.94757   0.53859   0.00000  Uiso   1.00
N182   N     0.26742   0.41156   0.81939   0.00000  Uiso   1.00
N183   N     0.33961   0.13293   0.99331   0.00000  Uiso   1.00
N184   N     0.59403   0.96325   0.54439   0.00000  Uiso   1.00
C185   C     0.87509   0.21838   0.37420   0.00000  Uiso   1.00
C186   C     0.91511   0.20784   0.43273   0.00000  Uiso   1.00
C187   C     0.79250   0.19971   0.47883   0.00000  Uiso   1.00
C188   C     0.85548   0.19069   0.52868   0.00000  Uiso   1.00
C189   C     0.89037   0.17442   0.61900   0.00000  Uiso   1.00
C190   C     0.99174   0.16076   0.30906   0.00000  Uiso   1.00
C191   C     0.93356   0.11305   0.25118   0.00000  Uiso   1.00
C192   C     0.06106   0.06440   0.19693   0.00000  Uiso   1.00
C193   C     0.21494   0.97507   0.09524   0.00000  Uiso   1.00
C194   C     0.94451   0.28546   0.38529   0.00000  Uiso   1.00
C195   C     0.84662   0.34260   0.39148   0.00000  Uiso   1.00
C196   C     0.93438   0.39894   0.40139   0.00000  Uiso   1.00
C197   C     0.01491   0.50322   0.41805   0.00000  Uiso   1.00
C198   C     0.20499   0.21683   0.38075   0.00000  Uiso   1.00
C199   C     0.09430   0.20700   0.43629   0.00000  Uiso   1.00
C200   C     0.15749   0.19799   0.48608   0.00000  Uiso   1.00
C201   C     0.03499   0.18985   0.53225   0.00000  Uiso   1.00
C202   C     0.17092   0.15992   0.31262   0.00000  Uiso   1.00
C203   C     0.29855   0.11133   0.25844   0.00000  Uiso   1.00
C204   C     0.24057   0.06356   0.20050   0.00000  Uiso   1.00
C205   C     0.12370   0.28462   0.38885   0.00000  Uiso   1.00
C206   C     0.21162   0.34088   0.39874   0.00000  Uiso   1.00
C207   C     0.11389   0.39809   0.40495   0.00000  Uiso   1.00
H208   H     0.73559   0.21903   0.37142   0.00000  Uiso   1.00
H209   H     0.65384   0.20035   0.47605   0.00000  Uiso   1.00
H210   H     0.79489   0.11372   0.24844   0.00000  Uiso   1.00
H211   H     0.70797   0.34323   0.38872   0.00000  Uiso   1.00
H212   H     0.64223   0.17925   0.59361   0.00000  Uiso   1.00
H213   H     0.93964   0.99658   0.11368   0.00000  Uiso   1.00
H214   H     0.75635   0.48056   0.40948   0.00000  Uiso   1.00
H215   H     0.34450   0.21617   0.38352   0.00000  Uiso   1.00
H216   H     0.29616   0.19734   0.48883   0.00000  Uiso   1.00
H217   H     0.43720   0.11070   0.26121   0.00000  Uiso   1.00
H218   H     0.35028   0.34021   0.40149   0.00000  Uiso   1.00
H219   H     0.16356   0.17681   0.60398   0.00000  Uiso   1.00
H220   H     0.46096   0.99414   0.12404   0.00000  Uiso   1.00
H221   H     0.27768   0.47811   0.41985   0.00000  Uiso   1.00
O222   O     0.86012   0.16567   0.66783   0.00000  Uiso   1.00
O223   O     0.25030   0.92602   0.03817   0.00000  Uiso   1.00
O224   O     0.00983   0.56098   0.42626   0.00000  Uiso   1.00
N225   N     0.77156   0.18128   0.58161   0.00000  Uiso   1.00
N226   N     0.04961   0.01048   0.13290   0.00000  Uiso   1.00
N227   N     0.87826   0.46295   0.40943   0.00000  Uiso   1.00
N228   N     0.05208   0.17996   0.58719   0.00000  Uiso   1.00
N229   N     0.33013   0.00917   0.13848   0.00000  Uiso   1.00
N230   N     0.15878   0.46163   0.41501   0.00000  Uiso   1.00
C231   C     0.25145   0.62398   0.84629   0.00000  Uiso   1.00
C232   C     0.35094   0.56635   0.77700   0.00000  Uiso   1.00
C233   C     0.27493   0.51842   0.72486   0.00000  Uiso   1.00
C234   C     0.38861   0.46981   0.66537   0.00000  Uiso   1.00
C235   C     0.51524   0.38044   0.55883   0.00000  Uiso   1.00
C236   C     0.31033   0.69110   0.85275   0.00000  Uiso   1.00
C237   C     0.20017   0.74807   0.86430   0.00000  Uiso   1.00
C238   C     0.27968   0.80448   0.86859   0.00000  Uiso   1.00
C239   C     0.34325   0.90881   0.87970   0.00000  Uiso   1.00
C240   C     0.32406   0.61374   0.90026   0.00000  Uiso   1.00
C241   C     0.22545   0.60567   0.95179   0.00000  Uiso   1.00
C242   C     0.31652   0.59697   0.99609   0.00000  Uiso   1.00
C243   C     0.40141   0.58117   0.08098   0.00000  Uiso   1.00
C244   C     0.58851   0.62288   0.83336   0.00000  Uiso   1.00
C245   C     0.53402   0.56575   0.76998   0.00000  Uiso   1.00
C246   C     0.64785   0.51720   0.71055   0.00000  Uiso   1.00
C247   C     0.57203   0.46921   0.65834   0.00000  Uiso   1.00
C248   C     0.49341   0.69051   0.84572   0.00000  Uiso   1.00
C249   C     0.57310   0.74685   0.85000   0.00000  Uiso   1.00
C250   C     0.46309   0.80388   0.86155   0.00000  Uiso   1.00
C251   C     0.50715   0.61314   0.89324   0.00000  Uiso   1.00
C252   C     0.59838   0.60445   0.93748   0.00000  Uiso   1.00
C253   C     0.49993   0.59637   0.98905   0.00000  Uiso   1.00
H254   H     0.10891   0.62445   0.85176   0.00000  Uiso   1.00
H255   H     0.13324   0.51891   0.73031   0.00000  Uiso   1.00
H256   H     0.05850   0.74852   0.86974   0.00000  Uiso   1.00
H257   H     0.08378   0.60614   0.95720   0.00000  Uiso   1.00
H258   H     0.24094   0.40164   0.59256   0.00000  Uiso   1.00
H259   H     0.08334   0.88580   0.88658   0.00000  Uiso   1.00
H260   H     0.13664   0.58557   0.07102   0.00000  Uiso   1.00
H261   H     0.73106   0.62242   0.82789   0.00000  Uiso   1.00
H262   H     0.78953   0.51675   0.70513   0.00000  Uiso   1.00
H263   H     0.71478   0.74637   0.84456   0.00000  Uiso   1.00
H264   H     0.74006   0.60399   0.93203   0.00000  Uiso   1.00
H265   H     0.77361   0.39990   0.57212   0.00000  Uiso   1.00
H266   H     0.61600   0.88406   0.86615   0.00000  Uiso   1.00
H267   H     0.66931   0.58383   0.05058   0.00000  Uiso   1.00
O268   O     0.53451   0.33132   0.50201   0.00000  Uiso   1.00
O269   O     0.32774   0.96652   0.88777   0.00000  Uiso   1.00
O270   O     0.39767   0.57262   0.12973   0.00000  Uiso   1.00
N271   N     0.35828   0.41572   0.60460   0.00000  Uiso   1.00
N272   N     0.21094   0.86838   0.87948   0.00000  Uiso   1.00
N273   N     0.26076   0.58771   0.05192   0.00000  Uiso   1.00
N274   N     0.64491   0.41478   0.59360   0.00000  Uiso   1.00
N275   N     0.49756   0.86744   0.86848   0.00000  Uiso   1.00
N276   N     0.54739   0.58677   0.04093   0.00000  Uiso   1.00
