data_job_03449
_audit_creation_date              2018-12-19
_audit_creation_method            'Materials Studio'
_symmetry_space_group_name_H-M    'P1'
_symmetry_Int_Tables_number       1
_symmetry_cell_setting            triclinic
loop_
_symmetry_equiv_pos_as_xyz
  x,y,z
_cell_length_a                    14.0671
_cell_length_b                    40.5439
_cell_length_c                    11.4156
_cell_angle_alpha                 90.0000
_cell_angle_beta                  90.0000
_cell_angle_gamma                 90.0000
loop_
_atom_site_label
_atom_site_type_symbol
_atom_site_fract_x
_atom_site_fract_y
_atom_site_fract_z
_atom_site_U_iso_or_equiv
_atom_site_adp_type
_atom_site_occupancy
C1     C     0.73078   0.34239   0.13785   0.00000  Uiso   1.00
C2     C     0.66490   0.31644   0.08528   0.00000  Uiso   1.00
C3     C     0.69130   0.29207   0.00637   0.00000  Uiso   1.00
C4     C     0.62050   0.27071   0.96860   0.00000  Uiso   1.00
C5     C     0.53247   0.22999   0.88088   0.00000  Uiso   1.00
C6     C     0.68667   0.37571   0.10808   0.00000  Uiso   1.00
C7     C     0.73138   0.40117   0.04834   0.00000  Uiso   1.00
C8     C     0.67892   0.42970   0.02978   0.00000  Uiso   1.00
C9     C     0.62471   0.48100   0.97752   0.00000  Uiso   1.00
C10    C     0.72242   0.33872   0.27039   0.00000  Uiso   1.00
C11    C     0.79719   0.33309   0.34714   0.00000  Uiso   1.00
C12    C     0.77483   0.33049   0.46524   0.00000  Uiso   1.00
C13    C     0.77613   0.32436   0.66500   0.00000  Uiso   1.00
C14    C     0.55810   0.34780   0.21112   0.00000  Uiso   1.00
C15    C     0.57111   0.31938   0.12508   0.00000  Uiso   1.00
C16    C     0.50026   0.29805   0.08744   0.00000  Uiso   1.00
C17    C     0.52655   0.27365   0.00848   0.00000  Uiso   1.00
C18    C     0.59289   0.37865   0.14787   0.00000  Uiso   1.00
C19    C     0.54034   0.40715   0.12941   0.00000  Uiso   1.00
C20    C     0.58496   0.43264   0.06965   0.00000  Uiso   1.00
C21    C     0.62863   0.34166   0.31019   0.00000  Uiso   1.00
C22    C     0.60615   0.33907   0.42820   0.00000  Uiso   1.00
C23    C     0.68087   0.33343   0.50511   0.00000  Uiso   1.00
H24    H     0.80379   0.34011   0.10686   0.00000  Uiso   1.00
H25    H     0.76389   0.28981   0.97558   0.00000  Uiso   1.00
H26    H     0.80397   0.39889   0.01756   0.00000  Uiso   1.00
H27    H     0.86976   0.33082   0.31630   0.00000  Uiso   1.00
H28    H     0.67827   0.23535   0.84754   0.00000  Uiso   1.00
H29    H     0.76280   0.46536   0.93610   0.00000  Uiso   1.00
H30    H     0.90155   0.32182   0.56607   0.00000  Uiso   1.00
H31    H     0.48508   0.35008   0.24211   0.00000  Uiso   1.00
H32    H     0.42768   0.30033   0.11825   0.00000  Uiso   1.00
H33    H     0.46777   0.40941   0.16023   0.00000  Uiso   1.00
H34    H     0.53356   0.34134   0.45897   0.00000  Uiso   1.00
H35    H     0.40540   0.24389   0.96334   0.00000  Uiso   1.00
H36    H     0.48993   0.47390   0.05189   0.00000  Uiso   1.00
H37    H     0.62867   0.33036   0.68186   0.00000  Uiso   1.00
O38    O     0.50982   0.20672   0.82149   0.00000  Uiso   1.00
O39    O     0.62073   0.50848   0.93769   0.00000  Uiso   1.00
O40    O     0.80276   0.32016   0.76419   0.00000  Uiso   1.00
N41    N     0.62193   0.24418   0.89181   0.00000  Uiso   1.00
N42    N     0.70096   0.45923   0.97459   0.00000  Uiso   1.00
N43    N     0.83067   0.32504   0.56356   0.00000  Uiso   1.00
N44    N     0.47510   0.24878   0.95412   0.00000  Uiso   1.00
N45    N     0.55412   0.46382   0.03689   0.00000  Uiso   1.00
N46    N     0.68384   0.32963   0.62587   0.00000  Uiso   1.00
C47    C     0.76922   0.65761   0.13785   0.00000  Uiso   1.00
C48    C     0.83510   0.68356   0.08528   0.00000  Uiso   1.00
C49    C     0.80870   0.70793   0.00637   0.00000  Uiso   1.00
C50    C     0.87950   0.72929   0.96860   0.00000  Uiso   1.00
C51    C     0.96753   0.77001   0.88088   0.00000  Uiso   1.00
C52    C     0.81333   0.62429   0.10808   0.00000  Uiso   1.00
C53    C     0.76862   0.59883   0.04834   0.00000  Uiso   1.00
C54    C     0.82108   0.57030   0.02978   0.00000  Uiso   1.00
C55    C     0.87529   0.51900   0.97752   0.00000  Uiso   1.00
C56    C     0.77758   0.66128   0.27039   0.00000  Uiso   1.00
C57    C     0.70281   0.66691   0.34714   0.00000  Uiso   1.00
C58    C     0.72517   0.66951   0.46524   0.00000  Uiso   1.00
C59    C     0.72387   0.67564   0.66500   0.00000  Uiso   1.00
C60    C     0.94190   0.65220   0.21112   0.00000  Uiso   1.00
C61    C     0.92889   0.68062   0.12508   0.00000  Uiso   1.00
C62    C     0.99974   0.70195   0.08744   0.00000  Uiso   1.00
C63    C     0.97345   0.72635   0.00848   0.00000  Uiso   1.00
C64    C     0.90711   0.62135   0.14787   0.00000  Uiso   1.00
C65    C     0.95966   0.59285   0.12941   0.00000  Uiso   1.00
C66    C     0.91504   0.56736   0.06965   0.00000  Uiso   1.00
C67    C     0.87137   0.65834   0.31019   0.00000  Uiso   1.00
C68    C     0.89385   0.66093   0.42820   0.00000  Uiso   1.00
C69    C     0.81913   0.66657   0.50511   0.00000  Uiso   1.00
H70    H     0.69621   0.65989   0.10686   0.00000  Uiso   1.00
H71    H     0.73611   0.71019   0.97558   0.00000  Uiso   1.00
H72    H     0.69603   0.60111   0.01756   0.00000  Uiso   1.00
H73    H     0.63024   0.66918   0.31630   0.00000  Uiso   1.00
H74    H     0.82173   0.76465   0.84754   0.00000  Uiso   1.00
H75    H     0.73720   0.53464   0.93610   0.00000  Uiso   1.00
H76    H     0.59845   0.67818   0.56607   0.00000  Uiso   1.00
H77    H     0.01492   0.64992   0.24211   0.00000  Uiso   1.00
H78    H     0.07232   0.69967   0.11825   0.00000  Uiso   1.00
H79    H     0.03223   0.59059   0.16023   0.00000  Uiso   1.00
H80    H     0.96644   0.65866   0.45897   0.00000  Uiso   1.00
H81    H     0.09460   0.75611   0.96334   0.00000  Uiso   1.00
H82    H     0.01007   0.52610   0.05189   0.00000  Uiso   1.00
H83    H     0.87133   0.66964   0.68186   0.00000  Uiso   1.00
O84    O     0.99018   0.79328   0.82149   0.00000  Uiso   1.00
O85    O     0.87927   0.49152   0.93769   0.00000  Uiso   1.00
O86    O     0.69724   0.67984   0.76419   0.00000  Uiso   1.00
N87    N     0.87807   0.75582   0.89181   0.00000  Uiso   1.00
N88    N     0.79904   0.54077   0.97459   0.00000  Uiso   1.00
N89    N     0.66933   0.67496   0.56356   0.00000  Uiso   1.00
N90    N     0.02490   0.75122   0.95412   0.00000  Uiso   1.00
N91    N     0.94588   0.53618   0.03689   0.00000  Uiso   1.00
N92    N     0.81616   0.67037   0.62587   0.00000  Uiso   1.00
C93    C     0.76922   0.84239   0.36215   0.00000  Uiso   1.00
C94    C     0.83510   0.81644   0.41472   0.00000  Uiso   1.00
C95    C     0.80870   0.79207   0.49363   0.00000  Uiso   1.00
C96    C     0.87950   0.77071   0.53140   0.00000  Uiso   1.00
C97    C     0.96753   0.72999   0.61912   0.00000  Uiso   1.00
C98    C     0.81333   0.87571   0.39192   0.00000  Uiso   1.00
C99    C     0.76862   0.90117   0.45166   0.00000  Uiso   1.00
C100   C     0.82108   0.92970   0.47022   0.00000  Uiso   1.00
C101   C     0.87529   0.98100   0.52248   0.00000  Uiso   1.00
C102   C     0.77758   0.83872   0.22961   0.00000  Uiso   1.00
C103   C     0.70281   0.83309   0.15286   0.00000  Uiso   1.00
C104   C     0.72517   0.83049   0.03476   0.00000  Uiso   1.00
C105   C     0.72387   0.82436   0.83500   0.00000  Uiso   1.00
C106   C     0.94190   0.84780   0.28888   0.00000  Uiso   1.00
C107   C     0.92889   0.81938   0.37492   0.00000  Uiso   1.00
C108   C     0.99974   0.79805   0.41256   0.00000  Uiso   1.00
C109   C     0.97345   0.77365   0.49152   0.00000  Uiso   1.00
C110   C     0.90711   0.87865   0.35213   0.00000  Uiso   1.00
C111   C     0.95966   0.90715   0.37059   0.00000  Uiso   1.00
C112   C     0.91504   0.93264   0.43035   0.00000  Uiso   1.00
C113   C     0.87137   0.84166   0.18981   0.00000  Uiso   1.00
C114   C     0.89385   0.83907   0.07180   0.00000  Uiso   1.00
C115   C     0.81913   0.83343   0.99489   0.00000  Uiso   1.00
H116   H     0.69621   0.84011   0.39314   0.00000  Uiso   1.00
H117   H     0.73611   0.78981   0.52442   0.00000  Uiso   1.00
H118   H     0.69603   0.89889   0.48244   0.00000  Uiso   1.00
H119   H     0.63024   0.83082   0.18370   0.00000  Uiso   1.00
H120   H     0.82173   0.73535   0.65246   0.00000  Uiso   1.00
H121   H     0.73720   0.96536   0.56390   0.00000  Uiso   1.00
H122   H     0.59845   0.82182   0.93393   0.00000  Uiso   1.00
H123   H     0.01492   0.85008   0.25789   0.00000  Uiso   1.00
H124   H     0.07232   0.80033   0.38175   0.00000  Uiso   1.00
H125   H     0.03223   0.90941   0.33977   0.00000  Uiso   1.00
H126   H     0.96644   0.84134   0.04103   0.00000  Uiso   1.00
H127   H     0.09460   0.74389   0.53666   0.00000  Uiso   1.00
H128   H     0.01007   0.97390   0.44811   0.00000  Uiso   1.00
H129   H     0.87133   0.83036   0.81814   0.00000  Uiso   1.00
O130   O     0.99018   0.70672   0.67851   0.00000  Uiso   1.00
O131   O     0.87927   0.00848   0.56231   0.00000  Uiso   1.00
O132   O     0.69724   0.82016   0.73581   0.00000  Uiso   1.00
N133   N     0.87807   0.74418   0.60819   0.00000  Uiso   1.00
N134   N     0.79904   0.95923   0.52541   0.00000  Uiso   1.00
N135   N     0.66933   0.82504   0.93644   0.00000  Uiso   1.00
N136   N     0.02490   0.74878   0.54588   0.00000  Uiso   1.00
N137   N     0.94588   0.96382   0.46311   0.00000  Uiso   1.00
N138   N     0.81616   0.82963   0.87413   0.00000  Uiso   1.00
C139   C     0.73078   0.15761   0.36215   0.00000  Uiso   1.00
C140   C     0.66490   0.18356   0.41472   0.00000  Uiso   1.00
C141   C     0.69130   0.20793   0.49363   0.00000  Uiso   1.00
C142   C     0.62050   0.22929   0.53140   0.00000  Uiso   1.00
C143   C     0.53247   0.27001   0.61912   0.00000  Uiso   1.00
C144   C     0.68667   0.12429   0.39192   0.00000  Uiso   1.00
C145   C     0.73138   0.09883   0.45166   0.00000  Uiso   1.00
C146   C     0.67892   0.07030   0.47022   0.00000  Uiso   1.00
C147   C     0.62471   0.01900   0.52248   0.00000  Uiso   1.00
C148   C     0.72242   0.16128   0.22961   0.00000  Uiso   1.00
C149   C     0.79719   0.16691   0.15286   0.00000  Uiso   1.00
C150   C     0.77483   0.16951   0.03476   0.00000  Uiso   1.00
C151   C     0.77613   0.17564   0.83500   0.00000  Uiso   1.00
C152   C     0.55810   0.15220   0.28888   0.00000  Uiso   1.00
C153   C     0.57111   0.18062   0.37492   0.00000  Uiso   1.00
C154   C     0.50026   0.20195   0.41256   0.00000  Uiso   1.00
C155   C     0.52655   0.22635   0.49152   0.00000  Uiso   1.00
C156   C     0.59289   0.12135   0.35213   0.00000  Uiso   1.00
C157   C     0.54034   0.09285   0.37059   0.00000  Uiso   1.00
C158   C     0.58496   0.06736   0.43035   0.00000  Uiso   1.00
C159   C     0.62863   0.15834   0.18981   0.00000  Uiso   1.00
C160   C     0.60615   0.16093   0.07180   0.00000  Uiso   1.00
C161   C     0.68087   0.16657   0.99489   0.00000  Uiso   1.00
H162   H     0.80379   0.15989   0.39314   0.00000  Uiso   1.00
H163   H     0.76389   0.21019   0.52442   0.00000  Uiso   1.00
H164   H     0.80397   0.10111   0.48244   0.00000  Uiso   1.00
H165   H     0.86976   0.16918   0.18370   0.00000  Uiso   1.00
H166   H     0.67827   0.26465   0.65246   0.00000  Uiso   1.00
H167   H     0.76280   0.03464   0.56390   0.00000  Uiso   1.00
H168   H     0.90155   0.17818   0.93393   0.00000  Uiso   1.00
H169   H     0.48508   0.14992   0.25789   0.00000  Uiso   1.00
H170   H     0.42768   0.19967   0.38175   0.00000  Uiso   1.00
H171   H     0.46777   0.09059   0.33977   0.00000  Uiso   1.00
H172   H     0.53356   0.15866   0.04103   0.00000  Uiso   1.00
H173   H     0.40540   0.25611   0.53666   0.00000  Uiso   1.00
H174   H     0.48993   0.02610   0.44811   0.00000  Uiso   1.00
H175   H     0.62867   0.16964   0.81814   0.00000  Uiso   1.00
O176   O     0.50982   0.29328   0.67851   0.00000  Uiso   1.00
O177   O     0.62073   0.99152   0.56231   0.00000  Uiso   1.00
O178   O     0.80276   0.17984   0.73581   0.00000  Uiso   1.00
N179   N     0.62193   0.25582   0.60819   0.00000  Uiso   1.00
N180   N     0.70096   0.04077   0.52541   0.00000  Uiso   1.00
N181   N     0.83067   0.17496   0.93644   0.00000  Uiso   1.00
N182   N     0.47510   0.25122   0.54588   0.00000  Uiso   1.00
N183   N     0.55412   0.03618   0.46311   0.00000  Uiso   1.00
N184   N     0.68384   0.17037   0.87413   0.00000  Uiso   1.00
C185   C     0.26922   0.65761   0.86215   0.00000  Uiso   1.00
C186   C     0.33510   0.68356   0.91472   0.00000  Uiso   1.00
C187   C     0.30870   0.70793   0.99363   0.00000  Uiso   1.00
C188   C     0.37950   0.72929   0.03140   0.00000  Uiso   1.00
C189   C     0.46753   0.77001   0.11912   0.00000  Uiso   1.00
C190   C     0.31333   0.62429   0.89192   0.00000  Uiso   1.00
C191   C     0.26862   0.59883   0.95166   0.00000  Uiso   1.00
C192   C     0.32108   0.57030   0.97022   0.00000  Uiso   1.00
C193   C     0.37529   0.51900   0.02248   0.00000  Uiso   1.00
C194   C     0.27758   0.66128   0.72961   0.00000  Uiso   1.00
C195   C     0.20281   0.66691   0.65286   0.00000  Uiso   1.00
C196   C     0.22517   0.66951   0.53476   0.00000  Uiso   1.00
C197   C     0.22387   0.67564   0.33500   0.00000  Uiso   1.00
C198   C     0.44190   0.65220   0.78888   0.00000  Uiso   1.00
C199   C     0.42889   0.68062   0.87492   0.00000  Uiso   1.00
C200   C     0.49974   0.70195   0.91256   0.00000  Uiso   1.00
C201   C     0.47345   0.72635   0.99152   0.00000  Uiso   1.00
C202   C     0.40711   0.62135   0.85213   0.00000  Uiso   1.00
C203   C     0.45966   0.59285   0.87059   0.00000  Uiso   1.00
C204   C     0.41504   0.56736   0.93035   0.00000  Uiso   1.00
C205   C     0.37137   0.65834   0.68981   0.00000  Uiso   1.00
C206   C     0.39385   0.66093   0.57180   0.00000  Uiso   1.00
C207   C     0.31913   0.66657   0.49489   0.00000  Uiso   1.00
H208   H     0.19621   0.65989   0.89314   0.00000  Uiso   1.00
H209   H     0.23611   0.71019   0.02442   0.00000  Uiso   1.00
H210   H     0.19603   0.60111   0.98244   0.00000  Uiso   1.00
H211   H     0.13024   0.66918   0.68370   0.00000  Uiso   1.00
H212   H     0.32173   0.76465   0.15246   0.00000  Uiso   1.00
H213   H     0.23720   0.53464   0.06390   0.00000  Uiso   1.00
H214   H     0.09845   0.67818   0.43393   0.00000  Uiso   1.00
H215   H     0.51492   0.64992   0.75789   0.00000  Uiso   1.00
H216   H     0.57232   0.69967   0.88175   0.00000  Uiso   1.00
H217   H     0.53223   0.59059   0.83977   0.00000  Uiso   1.00
H218   H     0.46644   0.65866   0.54103   0.00000  Uiso   1.00
H219   H     0.59460   0.75611   0.03666   0.00000  Uiso   1.00
H220   H     0.51007   0.52610   0.94811   0.00000  Uiso   1.00
H221   H     0.37133   0.66964   0.31814   0.00000  Uiso   1.00
O222   O     0.49018   0.79328   0.17851   0.00000  Uiso   1.00
O223   O     0.37927   0.49152   0.06231   0.00000  Uiso   1.00
O224   O     0.19724   0.67984   0.23581   0.00000  Uiso   1.00
N225   N     0.37807   0.75582   0.10819   0.00000  Uiso   1.00
N226   N     0.29904   0.54077   0.02541   0.00000  Uiso   1.00
N227   N     0.16933   0.67496   0.43644   0.00000  Uiso   1.00
N228   N     0.52490   0.75122   0.04588   0.00000  Uiso   1.00
N229   N     0.44588   0.53618   0.96311   0.00000  Uiso   1.00
N230   N     0.31616   0.67037   0.37413   0.00000  Uiso   1.00
C231   C     0.23078   0.34239   0.86215   0.00000  Uiso   1.00
C232   C     0.16490   0.31644   0.91472   0.00000  Uiso   1.00
C233   C     0.19130   0.29207   0.99363   0.00000  Uiso   1.00
C234   C     0.12050   0.27071   0.03140   0.00000  Uiso   1.00
C235   C     0.03247   0.22999   0.11912   0.00000  Uiso   1.00
C236   C     0.18667   0.37571   0.89192   0.00000  Uiso   1.00
C237   C     0.23138   0.40117   0.95166   0.00000  Uiso   1.00
C238   C     0.17892   0.42970   0.97022   0.00000  Uiso   1.00
C239   C     0.12471   0.48100   0.02248   0.00000  Uiso   1.00
C240   C     0.22242   0.33872   0.72961   0.00000  Uiso   1.00
C241   C     0.29719   0.33309   0.65286   0.00000  Uiso   1.00
C242   C     0.27483   0.33049   0.53476   0.00000  Uiso   1.00
C243   C     0.27613   0.32436   0.33500   0.00000  Uiso   1.00
C244   C     0.05810   0.34780   0.78888   0.00000  Uiso   1.00
C245   C     0.07111   0.31938   0.87492   0.00000  Uiso   1.00
C246   C     0.00026   0.29805   0.91256   0.00000  Uiso   1.00
C247   C     0.02655   0.27365   0.99152   0.00000  Uiso   1.00
C248   C     0.09289   0.37865   0.85213   0.00000  Uiso   1.00
C249   C     0.04034   0.40715   0.87059   0.00000  Uiso   1.00
C250   C     0.08496   0.43264   0.93035   0.00000  Uiso   1.00
C251   C     0.12863   0.34166   0.68981   0.00000  Uiso   1.00
C252   C     0.10615   0.33907   0.57180   0.00000  Uiso   1.00
C253   C     0.18087   0.33343   0.49489   0.00000  Uiso   1.00
H254   H     0.30379   0.34011   0.89314   0.00000  Uiso   1.00
H255   H     0.26389   0.28981   0.02442   0.00000  Uiso   1.00
H256   H     0.30397   0.39889   0.98244   0.00000  Uiso   1.00
H257   H     0.36976   0.33082   0.68370   0.00000  Uiso   1.00
H258   H     0.17827   0.23535   0.15246   0.00000  Uiso   1.00
H259   H     0.26280   0.46536   0.06390   0.00000  Uiso   1.00
H260   H     0.40155   0.32182   0.43393   0.00000  Uiso   1.00
H261   H     0.98508   0.35008   0.75789   0.00000  Uiso   1.00
H262   H     0.92768   0.30033   0.88175   0.00000  Uiso   1.00
H263   H     0.96777   0.40941   0.83977   0.00000  Uiso   1.00
H264   H     0.03356   0.34134   0.54103   0.00000  Uiso   1.00
H265   H     0.90540   0.24389   0.03666   0.00000  Uiso   1.00
H266   H     0.98993   0.47390   0.94811   0.00000  Uiso   1.00
H267   H     0.12867   0.33036   0.31814   0.00000  Uiso   1.00
O268   O     0.00982   0.20672   0.17851   0.00000  Uiso   1.00
O269   O     0.12073   0.50848   0.06231   0.00000  Uiso   1.00
O270   O     0.30276   0.32016   0.23581   0.00000  Uiso   1.00
N271   N     0.12193   0.24418   0.10819   0.00000  Uiso   1.00
N272   N     0.20096   0.45923   0.02541   0.00000  Uiso   1.00
N273   N     0.33067   0.32504   0.43644   0.00000  Uiso   1.00
N274   N     0.97510   0.24878   0.04588   0.00000  Uiso   1.00
N275   N     0.05412   0.46382   0.96311   0.00000  Uiso   1.00
N276   N     0.18384   0.32963   0.37413   0.00000  Uiso   1.00
C277   C     0.23078   0.15761   0.63785   0.00000  Uiso   1.00
C278   C     0.16490   0.18356   0.58528   0.00000  Uiso   1.00
C279   C     0.19130   0.20793   0.50637   0.00000  Uiso   1.00
C280   C     0.12050   0.22929   0.46860   0.00000  Uiso   1.00
C281   C     0.03247   0.27001   0.38088   0.00000  Uiso   1.00
C282   C     0.18667   0.12429   0.60808   0.00000  Uiso   1.00
C283   C     0.23138   0.09883   0.54834   0.00000  Uiso   1.00
C284   C     0.17892   0.07030   0.52978   0.00000  Uiso   1.00
C285   C     0.12471   0.01900   0.47752   0.00000  Uiso   1.00
C286   C     0.22242   0.16128   0.77039   0.00000  Uiso   1.00
C287   C     0.29719   0.16691   0.84714   0.00000  Uiso   1.00
C288   C     0.27483   0.16951   0.96524   0.00000  Uiso   1.00
C289   C     0.27613   0.17564   0.16500   0.00000  Uiso   1.00
C290   C     0.05810   0.15220   0.71112   0.00000  Uiso   1.00
C291   C     0.07111   0.18062   0.62508   0.00000  Uiso   1.00
C292   C     0.00026   0.20195   0.58744   0.00000  Uiso   1.00
C293   C     0.02655   0.22635   0.50848   0.00000  Uiso   1.00
C294   C     0.09289   0.12135   0.64787   0.00000  Uiso   1.00
C295   C     0.04034   0.09285   0.62941   0.00000  Uiso   1.00
C296   C     0.08496   0.06736   0.56965   0.00000  Uiso   1.00
C297   C     0.12863   0.15834   0.81019   0.00000  Uiso   1.00
C298   C     0.10615   0.16093   0.92820   0.00000  Uiso   1.00
C299   C     0.18087   0.16657   0.00511   0.00000  Uiso   1.00
H300   H     0.30379   0.15989   0.60686   0.00000  Uiso   1.00
H301   H     0.26389   0.21019   0.47558   0.00000  Uiso   1.00
H302   H     0.30397   0.10111   0.51756   0.00000  Uiso   1.00
H303   H     0.36976   0.16918   0.81630   0.00000  Uiso   1.00
H304   H     0.17827   0.26465   0.34754   0.00000  Uiso   1.00
H305   H     0.26280   0.03464   0.43610   0.00000  Uiso   1.00
H306   H     0.40155   0.17818   0.06607   0.00000  Uiso   1.00
H307   H     0.98508   0.14992   0.74211   0.00000  Uiso   1.00
H308   H     0.92768   0.19967   0.61825   0.00000  Uiso   1.00
H309   H     0.96777   0.09059   0.66023   0.00000  Uiso   1.00
H310   H     0.03356   0.15866   0.95897   0.00000  Uiso   1.00
H311   H     0.90540   0.25611   0.46334   0.00000  Uiso   1.00
H312   H     0.98993   0.02610   0.55189   0.00000  Uiso   1.00
H313   H     0.12867   0.16964   0.18186   0.00000  Uiso   1.00
O314   O     0.00982   0.29328   0.32149   0.00000  Uiso   1.00
O315   O     0.12073   0.99152   0.43769   0.00000  Uiso   1.00
O316   O     0.30276   0.17984   0.26419   0.00000  Uiso   1.00
N317   N     0.12193   0.25582   0.39181   0.00000  Uiso   1.00
N318   N     0.20096   0.04077   0.47459   0.00000  Uiso   1.00
N319   N     0.33067   0.17496   0.06356   0.00000  Uiso   1.00
N320   N     0.97510   0.25122   0.45412   0.00000  Uiso   1.00
N321   N     0.05412   0.03618   0.53689   0.00000  Uiso   1.00
N322   N     0.18384   0.17037   0.12587   0.00000  Uiso   1.00
C323   C     0.26922   0.84239   0.63785   0.00000  Uiso   1.00
C324   C     0.33510   0.81644   0.58528   0.00000  Uiso   1.00
C325   C     0.30870   0.79207   0.50637   0.00000  Uiso   1.00
C326   C     0.37950   0.77071   0.46860   0.00000  Uiso   1.00
C327   C     0.46753   0.72999   0.38088   0.00000  Uiso   1.00
C328   C     0.31333   0.87571   0.60808   0.00000  Uiso   1.00
C329   C     0.26862   0.90117   0.54834   0.00000  Uiso   1.00
C330   C     0.32108   0.92970   0.52978   0.00000  Uiso   1.00
C331   C     0.37529   0.98100   0.47752   0.00000  Uiso   1.00
C332   C     0.27758   0.83872   0.77039   0.00000  Uiso   1.00
C333   C     0.20281   0.83309   0.84714   0.00000  Uiso   1.00
C334   C     0.22517   0.83049   0.96524   0.00000  Uiso   1.00
C335   C     0.22387   0.82436   0.16500   0.00000  Uiso   1.00
C336   C     0.44190   0.84780   0.71112   0.00000  Uiso   1.00
C337   C     0.42889   0.81938   0.62508   0.00000  Uiso   1.00
C338   C     0.49974   0.79805   0.58744   0.00000  Uiso   1.00
C339   C     0.47345   0.77365   0.50848   0.00000  Uiso   1.00
C340   C     0.40711   0.87865   0.64787   0.00000  Uiso   1.00
C341   C     0.45966   0.90715   0.62941   0.00000  Uiso   1.00
C342   C     0.41504   0.93264   0.56965   0.00000  Uiso   1.00
C343   C     0.37137   0.84166   0.81019   0.00000  Uiso   1.00
C344   C     0.39385   0.83907   0.92820   0.00000  Uiso   1.00
C345   C     0.31913   0.83343   0.00511   0.00000  Uiso   1.00
H346   H     0.19621   0.84011   0.60686   0.00000  Uiso   1.00
H347   H     0.23611   0.78981   0.47558   0.00000  Uiso   1.00
H348   H     0.19603   0.89889   0.51756   0.00000  Uiso   1.00
H349   H     0.13024   0.83082   0.81630   0.00000  Uiso   1.00
H350   H     0.32173   0.73535   0.34754   0.00000  Uiso   1.00
H351   H     0.23720   0.96536   0.43610   0.00000  Uiso   1.00
H352   H     0.09845   0.82182   0.06607   0.00000  Uiso   1.00
H353   H     0.51492   0.85008   0.74211   0.00000  Uiso   1.00
H354   H     0.57232   0.80033   0.61825   0.00000  Uiso   1.00
H355   H     0.53223   0.90941   0.66023   0.00000  Uiso   1.00
H356   H     0.46644   0.84134   0.95897   0.00000  Uiso   1.00
H357   H     0.59460   0.74389   0.46334   0.00000  Uiso   1.00
H358   H     0.51007   0.97390   0.55189   0.00000  Uiso   1.00
H359   H     0.37133   0.83036   0.18186   0.00000  Uiso   1.00
O360   O     0.49018   0.70672   0.32149   0.00000  Uiso   1.00
O361   O     0.37927   0.00848   0.43769   0.00000  Uiso   1.00
O362   O     0.19724   0.82016   0.26419   0.00000  Uiso   1.00
N363   N     0.37807   0.74418   0.39181   0.00000  Uiso   1.00
N364   N     0.29904   0.95923   0.47459   0.00000  Uiso   1.00
N365   N     0.16933   0.82504   0.06356   0.00000  Uiso   1.00
N366   N     0.52490   0.74878   0.45412   0.00000  Uiso   1.00
N367   N     0.44588   0.96382   0.53689   0.00000  Uiso   1.00
N368   N     0.31616   0.82963   0.12587   0.00000  Uiso   1.00
