data_job_05905
_audit_creation_date              2018-12-19
_audit_creation_method            'Materials Studio'
_symmetry_space_group_name_H-M    'P1'
_symmetry_Int_Tables_number       1
_symmetry_cell_setting            triclinic
loop_
_symmetry_equiv_pos_as_xyz
  x,y,z
_cell_length_a                    25.7946
_cell_length_b                    7.2492
_cell_length_c                    22.9137
_cell_angle_alpha                 90.0000
_cell_angle_beta                  143.0043
_cell_angle_gamma                 90.0000
loop_
_atom_site_label
_atom_site_type_symbol
_atom_site_fract_x
_atom_site_fract_y
_atom_site_fract_z
_atom_site_U_iso_or_equiv
_atom_site_adp_type
_atom_site_occupancy
C1     C     0.93118   0.39561   0.78038   0.00000  Uiso   1.00
C2     C     0.89864   0.52920   0.79756   0.00000  Uiso   1.00
C3     C     0.84553   0.48413   0.79640   0.00000  Uiso   1.00
C4     C     0.82295   0.62612   0.81377   0.00000  Uiso   1.00
C5     C     0.76789   0.80612   0.83768   0.00000  Uiso   1.00
C6     C     0.90295   0.47571   0.69651   0.00000  Uiso   1.00
C7     C     0.85347   0.38565   0.61039   0.00000  Uiso   1.00
C8     C     0.83452   0.48260   0.54270   0.00000  Uiso   1.00
C9     C     0.78620   0.57951   0.40974   0.00000  Uiso   1.00
C10    C     0.02919   0.40963   0.86962   0.00000  Uiso   1.00
C11    C     0.08587   0.26401   0.92905   0.00000  Uiso   1.00
C12    C     0.17321   0.30532   0.00710   0.00000  Uiso   1.00
C13    C     0.32090   0.29963   0.14294   0.00000  Uiso   1.00
C14    C     0.98551   0.72791   0.81330   0.00000  Uiso   1.00
C15    C     0.92815   0.70970   0.81544   0.00000  Uiso   1.00
C16    C     0.90564   0.85179   0.83282   0.00000  Uiso   1.00
C17    C     0.85251   0.80694   0.83169   0.00000  Uiso   1.00
C18    C     0.93245   0.65620   0.71438   0.00000  Uiso   1.00
C19    C     0.91358   0.75330   0.64680   0.00000  Uiso   1.00
C20    C     0.86408   0.66342   0.56060   0.00000  Uiso   1.00
C21    C     0.05870   0.59013   0.88750   0.00000  Uiso   1.00
C22    C     0.14597   0.63167   0.96547   0.00000  Uiso   1.00
C23    C     0.20277   0.48614   0.02501   0.00000  Uiso   1.00
H24    H     0.90821   0.25508   0.76646   0.00000  Uiso   1.00
H25    H     0.82270   0.34444   0.78256   0.00000  Uiso   1.00
H26    H     0.83065   0.24597   0.59658   0.00000  Uiso   1.00
H27    H     0.06301   0.12435   0.91520   0.00000  Uiso   1.00
H28    H     0.74089   0.52311   0.80825   0.00000  Uiso   1.00
H29    H     0.75767   0.31546   0.41612   0.00000  Uiso   1.00
H30    H     0.24764   0.05900   0.08799   0.00000  Uiso   1.00
H31    H     0.00849   0.86844   0.82721   0.00000  Uiso   1.00
H32    H     0.92849   0.99145   0.84665   0.00000  Uiso   1.00
H33    H     0.93643   0.89298   0.66067   0.00000  Uiso   1.00
H34    H     0.16879   0.77136   0.97928   0.00000  Uiso   1.00
H35    H     0.82675   0.04826   0.86026   0.00000  Uiso   1.00
H36    H     0.84353   0.84059   0.46813   0.00000  Uiso   1.00
H37    H     0.33350   0.58415   0.14000   0.00000  Uiso   1.00
O38    O     0.72936   0.85555   0.84591   0.00000  Uiso   1.00
O39    O     0.75139   0.58309   0.33146   0.00000  Uiso   1.00
O40    O     0.39422   0.24664   0.21293   0.00000  Uiso   1.00
N41    N     0.77209   0.62982   0.81785   0.00000  Uiso   1.00
N42    N     0.78777   0.43568   0.45122   0.00000  Uiso   1.00
N43    N     0.24585   0.19591   0.07934   0.00000  Uiso   1.00
N44    N     0.81829   0.91239   0.84584   0.00000  Uiso   1.00
N45    N     0.83397   0.71825   0.47921   0.00000  Uiso   1.00
N46    N     0.29205   0.47848   0.10733   0.00000  Uiso   1.00
C47    C     0.43118   0.89561   0.78038   0.00000  Uiso   1.00
C48    C     0.39864   0.02920   0.79756   0.00000  Uiso   1.00
C49    C     0.34553   0.98413   0.79640   0.00000  Uiso   1.00
C50    C     0.32295   0.12612   0.81377   0.00000  Uiso   1.00
C51    C     0.26789   0.30612   0.83768   0.00000  Uiso   1.00
C52    C     0.40295   0.97571   0.69651   0.00000  Uiso   1.00
C53    C     0.35347   0.88565   0.61039   0.00000  Uiso   1.00
C54    C     0.33452   0.98260   0.54270   0.00000  Uiso   1.00
C55    C     0.28620   0.07951   0.40974   0.00000  Uiso   1.00
C56    C     0.52919   0.90963   0.86962   0.00000  Uiso   1.00
C57    C     0.58587   0.76401   0.92905   0.00000  Uiso   1.00
C58    C     0.67321   0.80532   0.00710   0.00000  Uiso   1.00
C59    C     0.82090   0.79963   0.14294   0.00000  Uiso   1.00
C60    C     0.48551   0.22791   0.81330   0.00000  Uiso   1.00
C61    C     0.42815   0.20970   0.81544   0.00000  Uiso   1.00
C62    C     0.40564   0.35179   0.83282   0.00000  Uiso   1.00
C63    C     0.35251   0.30694   0.83169   0.00000  Uiso   1.00
C64    C     0.43245   0.15620   0.71438   0.00000  Uiso   1.00
C65    C     0.41358   0.25330   0.64680   0.00000  Uiso   1.00
C66    C     0.36408   0.16342   0.56060   0.00000  Uiso   1.00
C67    C     0.55870   0.09013   0.88750   0.00000  Uiso   1.00
C68    C     0.64597   0.13167   0.96547   0.00000  Uiso   1.00
C69    C     0.70277   0.98614   0.02501   0.00000  Uiso   1.00
H70    H     0.40821   0.75508   0.76646   0.00000  Uiso   1.00
H71    H     0.32270   0.84444   0.78256   0.00000  Uiso   1.00
H72    H     0.33065   0.74597   0.59658   0.00000  Uiso   1.00
H73    H     0.56301   0.62435   0.91520   0.00000  Uiso   1.00
H74    H     0.24089   0.02311   0.80825   0.00000  Uiso   1.00
H75    H     0.25767   0.81546   0.41612   0.00000  Uiso   1.00
H76    H     0.74764   0.55900   0.08799   0.00000  Uiso   1.00
H77    H     0.50849   0.36844   0.82721   0.00000  Uiso   1.00
H78    H     0.42849   0.49145   0.84665   0.00000  Uiso   1.00
H79    H     0.43643   0.39298   0.66067   0.00000  Uiso   1.00
H80    H     0.66879   0.27136   0.97928   0.00000  Uiso   1.00
H81    H     0.32675   0.54826   0.86026   0.00000  Uiso   1.00
H82    H     0.34353   0.34059   0.46813   0.00000  Uiso   1.00
H83    H     0.83350   0.08415   0.14000   0.00000  Uiso   1.00
O84    O     0.22936   0.35555   0.84591   0.00000  Uiso   1.00
O85    O     0.25139   0.08309   0.33146   0.00000  Uiso   1.00
O86    O     0.89422   0.74664   0.21293   0.00000  Uiso   1.00
N87    N     0.27209   0.12982   0.81785   0.00000  Uiso   1.00
N88    N     0.28777   0.93568   0.45122   0.00000  Uiso   1.00
N89    N     0.74585   0.69591   0.07934   0.00000  Uiso   1.00
N90    N     0.31829   0.41239   0.84584   0.00000  Uiso   1.00
N91    N     0.33397   0.21825   0.47921   0.00000  Uiso   1.00
N92    N     0.79205   0.97848   0.10733   0.00000  Uiso   1.00
C93    C     0.06882   0.39561   0.21962   0.00000  Uiso   1.00
C94    C     0.10136   0.52920   0.20244   0.00000  Uiso   1.00
C95    C     0.15447   0.48413   0.20360   0.00000  Uiso   1.00
C96    C     0.17705   0.62612   0.18623   0.00000  Uiso   1.00
C97    C     0.23211   0.80612   0.16232   0.00000  Uiso   1.00
C98    C     0.09705   0.47571   0.30349   0.00000  Uiso   1.00
C99    C     0.14653   0.38565   0.38961   0.00000  Uiso   1.00
C100   C     0.16548   0.48260   0.45730   0.00000  Uiso   1.00
C101   C     0.21380   0.57951   0.59026   0.00000  Uiso   1.00
C102   C     0.97081   0.40963   0.13038   0.00000  Uiso   1.00
C103   C     0.91413   0.26401   0.07095   0.00000  Uiso   1.00
C104   C     0.82679   0.30532   0.99290   0.00000  Uiso   1.00
C105   C     0.67910   0.29963   0.85706   0.00000  Uiso   1.00
C106   C     0.01449   0.72791   0.18670   0.00000  Uiso   1.00
C107   C     0.07185   0.70970   0.18456   0.00000  Uiso   1.00
C108   C     0.09436   0.85179   0.16718   0.00000  Uiso   1.00
C109   C     0.14749   0.80694   0.16831   0.00000  Uiso   1.00
C110   C     0.06755   0.65620   0.28562   0.00000  Uiso   1.00
C111   C     0.08642   0.75330   0.35320   0.00000  Uiso   1.00
C112   C     0.13592   0.66342   0.43940   0.00000  Uiso   1.00
C113   C     0.94130   0.59013   0.11250   0.00000  Uiso   1.00
C114   C     0.85403   0.63167   0.03453   0.00000  Uiso   1.00
C115   C     0.79723   0.48614   0.97499   0.00000  Uiso   1.00
H116   H     0.09179   0.25508   0.23354   0.00000  Uiso   1.00
H117   H     0.17730   0.34444   0.21744   0.00000  Uiso   1.00
H118   H     0.16935   0.24597   0.40342   0.00000  Uiso   1.00
H119   H     0.93699   0.12435   0.08480   0.00000  Uiso   1.00
H120   H     0.25911   0.52311   0.19175   0.00000  Uiso   1.00
H121   H     0.24233   0.31546   0.58388   0.00000  Uiso   1.00
H122   H     0.75236   0.05900   0.91201   0.00000  Uiso   1.00
H123   H     0.99151   0.86844   0.17279   0.00000  Uiso   1.00
H124   H     0.07151   0.99145   0.15335   0.00000  Uiso   1.00
H125   H     0.06357   0.89298   0.33933   0.00000  Uiso   1.00
H126   H     0.83121   0.77136   0.02072   0.00000  Uiso   1.00
H127   H     0.17325   0.04826   0.13974   0.00000  Uiso   1.00
H128   H     0.15647   0.84059   0.53187   0.00000  Uiso   1.00
H129   H     0.66650   0.58415   0.86000   0.00000  Uiso   1.00
O130   O     0.27064   0.85555   0.15409   0.00000  Uiso   1.00
O131   O     0.24861   0.58309   0.66854   0.00000  Uiso   1.00
O132   O     0.60578   0.24664   0.78707   0.00000  Uiso   1.00
N133   N     0.22791   0.62982   0.18215   0.00000  Uiso   1.00
N134   N     0.21223   0.43568   0.54878   0.00000  Uiso   1.00
N135   N     0.75415   0.19591   0.92066   0.00000  Uiso   1.00
N136   N     0.18171   0.91239   0.15416   0.00000  Uiso   1.00
N137   N     0.16603   0.71825   0.52079   0.00000  Uiso   1.00
N138   N     0.70795   0.47848   0.89267   0.00000  Uiso   1.00
C139   C     0.56882   0.89561   0.21962   0.00000  Uiso   1.00
C140   C     0.60136   0.02920   0.20244   0.00000  Uiso   1.00
C141   C     0.65447   0.98413   0.20360   0.00000  Uiso   1.00
C142   C     0.67705   0.12612   0.18623   0.00000  Uiso   1.00
C143   C     0.73211   0.30612   0.16232   0.00000  Uiso   1.00
C144   C     0.59705   0.97571   0.30349   0.00000  Uiso   1.00
C145   C     0.64653   0.88565   0.38961   0.00000  Uiso   1.00
C146   C     0.66548   0.98260   0.45730   0.00000  Uiso   1.00
C147   C     0.71380   0.07951   0.59026   0.00000  Uiso   1.00
C148   C     0.47081   0.90963   0.13038   0.00000  Uiso   1.00
C149   C     0.41413   0.76401   0.07095   0.00000  Uiso   1.00
C150   C     0.32679   0.80532   0.99290   0.00000  Uiso   1.00
C151   C     0.17910   0.79963   0.85706   0.00000  Uiso   1.00
C152   C     0.51449   0.22791   0.18670   0.00000  Uiso   1.00
C153   C     0.57185   0.20970   0.18456   0.00000  Uiso   1.00
C154   C     0.59436   0.35179   0.16718   0.00000  Uiso   1.00
C155   C     0.64749   0.30694   0.16831   0.00000  Uiso   1.00
C156   C     0.56755   0.15620   0.28562   0.00000  Uiso   1.00
C157   C     0.58642   0.25330   0.35320   0.00000  Uiso   1.00
C158   C     0.63592   0.16342   0.43940   0.00000  Uiso   1.00
C159   C     0.44130   0.09013   0.11250   0.00000  Uiso   1.00
C160   C     0.35403   0.13167   0.03453   0.00000  Uiso   1.00
C161   C     0.29723   0.98614   0.97499   0.00000  Uiso   1.00
H162   H     0.59179   0.75508   0.23354   0.00000  Uiso   1.00
H163   H     0.67730   0.84444   0.21744   0.00000  Uiso   1.00
H164   H     0.66935   0.74597   0.40342   0.00000  Uiso   1.00
H165   H     0.43699   0.62435   0.08480   0.00000  Uiso   1.00
H166   H     0.75911   0.02311   0.19175   0.00000  Uiso   1.00
H167   H     0.74233   0.81546   0.58388   0.00000  Uiso   1.00
H168   H     0.25236   0.55900   0.91201   0.00000  Uiso   1.00
H169   H     0.49151   0.36844   0.17279   0.00000  Uiso   1.00
H170   H     0.57151   0.49145   0.15335   0.00000  Uiso   1.00
H171   H     0.56357   0.39298   0.33933   0.00000  Uiso   1.00
H172   H     0.33121   0.27136   0.02072   0.00000  Uiso   1.00
H173   H     0.67325   0.54826   0.13974   0.00000  Uiso   1.00
H174   H     0.65647   0.34059   0.53187   0.00000  Uiso   1.00
H175   H     0.16650   0.08415   0.86000   0.00000  Uiso   1.00
O176   O     0.77064   0.35555   0.15409   0.00000  Uiso   1.00
O177   O     0.74861   0.08309   0.66854   0.00000  Uiso   1.00
O178   O     0.10578   0.74664   0.78707   0.00000  Uiso   1.00
N179   N     0.72791   0.12982   0.18215   0.00000  Uiso   1.00
N180   N     0.71223   0.93568   0.54878   0.00000  Uiso   1.00
N181   N     0.25415   0.69591   0.92066   0.00000  Uiso   1.00
N182   N     0.68171   0.41239   0.15416   0.00000  Uiso   1.00
N183   N     0.66603   0.21825   0.52079   0.00000  Uiso   1.00
N184   N     0.20795   0.97848   0.89267   0.00000  Uiso   1.00
