data_job_03941
_audit_creation_date              2018-12-19
_audit_creation_method            'Materials Studio'
_symmetry_space_group_name_H-M    'P1'
_symmetry_Int_Tables_number       1
_symmetry_cell_setting            triclinic
loop_
_symmetry_equiv_pos_as_xyz
  x,y,z
_cell_length_a                    13.3349
_cell_length_b                    37.9918
_cell_length_c                    10.2156
_cell_angle_alpha                 90.0000
_cell_angle_beta                  90.0000
_cell_angle_gamma                 90.0000
loop_
_atom_site_label
_atom_site_type_symbol
_atom_site_fract_x
_atom_site_fract_y
_atom_site_fract_z
_atom_site_U_iso_or_equiv
_atom_site_adp_type
_atom_site_occupancy
C1     C     0.18180   0.63216   0.44017   0.00000  Uiso   1.00
C2     C     0.19209   0.66759   0.50904   0.00000  Uiso   1.00
C3     C     0.27670   0.68885   0.50816   0.00000  Uiso   1.00
C4     C     0.27114   0.72027   0.57718   0.00000  Uiso   1.00
C5     C     0.30038   0.77379   0.67392   0.00000  Uiso   1.00
C6     C     0.15261   0.60577   0.54599   0.00000  Uiso   1.00
C7     C     0.20402   0.57506   0.57615   0.00000  Uiso   1.00
C8     C     0.16520   0.55444   0.67627   0.00000  Uiso   1.00
C9     C     0.13310   0.51197   0.83031   0.00000  Uiso   1.00
C10    C     0.09082   0.63544   0.35057   0.00000  Uiso   1.00
C11    C     0.09027   0.62967   0.21642   0.00000  Uiso   1.00
C12    C     0.99942   0.63403   0.15201   0.00000  Uiso   1.00
C13    C     0.87140   0.63763   0.00263   0.00000  Uiso   1.00
C14    C     0.02145   0.65014   0.56432   0.00000  Uiso   1.00
C15    C     0.10500   0.67735   0.57648   0.00000  Uiso   1.00
C16    C     0.09929   0.70875   0.64552   0.00000  Uiso   1.00
C17    C     0.18388   0.73006   0.64474   0.00000  Uiso   1.00
C18    C     0.06552   0.61554   0.61343   0.00000  Uiso   1.00
C19    C     0.02661   0.59495   0.71352   0.00000  Uiso   1.00
C20    C     0.07794   0.56422   0.74383   0.00000  Uiso   1.00
C21    C     0.00373   0.64521   0.41800   0.00000  Uiso   1.00
C22    C     0.91286   0.64957   0.35379   0.00000  Uiso   1.00
C23    C     0.91217   0.64381   0.21957   0.00000  Uiso   1.00
H24    H     0.24961   0.62455   0.38767   0.00000  Uiso   1.00
H25    H     0.34410   0.68129   0.45597   0.00000  Uiso   1.00
H26    H     0.27141   0.56751   0.52394   0.00000  Uiso   1.00
H27    H     0.15768   0.62212   0.16427   0.00000  Uiso   1.00
H28    H     0.41045   0.74848   0.56146   0.00000  Uiso   1.00
H29    H     0.25717   0.50857   0.70476   0.00000  Uiso   1.00
H30    H     0.01736   0.62372   0.94632   0.00000  Uiso   1.00
H31    H     0.95364   0.65775   0.61683   0.00000  Uiso   1.00
H32    H     0.03188   0.71630   0.69770   0.00000  Uiso   1.00
H33    H     0.95920   0.60252   0.76568   0.00000  Uiso   1.00
H34    H     0.84548   0.65713   0.40601   0.00000  Uiso   1.00
H35    H     0.15705   0.77690   0.75767   0.00000  Uiso   1.00
H36    H     0.00377   0.53699   0.90096   0.00000  Uiso   1.00
H37    H     0.76396   0.65214   0.14253   0.00000  Uiso   1.00
O38    O     0.34058   0.80061   0.70867   0.00000  Uiso   1.00
O39    O     0.13947   0.48585   0.89665   0.00000  Uiso   1.00
O40    O     0.82484   0.63693   0.90160   0.00000  Uiso   1.00
N41    N     0.34007   0.74714   0.59652   0.00000  Uiso   1.00
N42    N     0.19677   0.52284   0.73051   0.00000  Uiso   1.00
N43    N     0.97256   0.63049   0.02144   0.00000  Uiso   1.00
N44    N     0.20372   0.76243   0.70210   0.00000  Uiso   1.00
N45    N     0.06042   0.53813   0.83609   0.00000  Uiso   1.00
N46    N     0.83621   0.64578   0.12701   0.00000  Uiso   1.00
C47    C     0.18180   0.13216   0.94017   0.00000  Uiso   1.00
C48    C     0.19209   0.16759   0.00904   0.00000  Uiso   1.00
C49    C     0.27670   0.18885   0.00816   0.00000  Uiso   1.00
C50    C     0.27114   0.22027   0.07718   0.00000  Uiso   1.00
C51    C     0.30038   0.27379   0.17392   0.00000  Uiso   1.00
C52    C     0.15261   0.10577   0.04599   0.00000  Uiso   1.00
C53    C     0.20402   0.07506   0.07615   0.00000  Uiso   1.00
C54    C     0.16520   0.05444   0.17627   0.00000  Uiso   1.00
C55    C     0.13310   0.01197   0.33031   0.00000  Uiso   1.00
C56    C     0.09082   0.13544   0.85057   0.00000  Uiso   1.00
C57    C     0.09027   0.12967   0.71642   0.00000  Uiso   1.00
C58    C     0.99942   0.13403   0.65201   0.00000  Uiso   1.00
C59    C     0.87140   0.13763   0.50263   0.00000  Uiso   1.00
C60    C     0.02145   0.15014   0.06432   0.00000  Uiso   1.00
C61    C     0.10500   0.17735   0.07648   0.00000  Uiso   1.00
C62    C     0.09929   0.20875   0.14552   0.00000  Uiso   1.00
C63    C     0.18388   0.23006   0.14474   0.00000  Uiso   1.00
C64    C     0.06552   0.11554   0.11343   0.00000  Uiso   1.00
C65    C     0.02661   0.09495   0.21352   0.00000  Uiso   1.00
C66    C     0.07794   0.06422   0.24383   0.00000  Uiso   1.00
C67    C     0.00373   0.14521   0.91800   0.00000  Uiso   1.00
C68    C     0.91286   0.14957   0.85379   0.00000  Uiso   1.00
C69    C     0.91217   0.14381   0.71957   0.00000  Uiso   1.00
H70    H     0.24961   0.12455   0.88767   0.00000  Uiso   1.00
H71    H     0.34410   0.18129   0.95597   0.00000  Uiso   1.00
H72    H     0.27141   0.06751   0.02394   0.00000  Uiso   1.00
H73    H     0.15768   0.12212   0.66427   0.00000  Uiso   1.00
H74    H     0.41045   0.24848   0.06146   0.00000  Uiso   1.00
H75    H     0.25717   0.00857   0.20476   0.00000  Uiso   1.00
H76    H     0.01736   0.12372   0.44632   0.00000  Uiso   1.00
H77    H     0.95364   0.15775   0.11683   0.00000  Uiso   1.00
H78    H     0.03188   0.21630   0.19770   0.00000  Uiso   1.00
H79    H     0.95920   0.10252   0.26568   0.00000  Uiso   1.00
H80    H     0.84548   0.15713   0.90601   0.00000  Uiso   1.00
H81    H     0.15705   0.27690   0.25767   0.00000  Uiso   1.00
H82    H     0.00377   0.03699   0.40096   0.00000  Uiso   1.00
H83    H     0.76396   0.15214   0.64253   0.00000  Uiso   1.00
O84    O     0.34058   0.30061   0.20867   0.00000  Uiso   1.00
O85    O     0.13947   0.98585   0.39665   0.00000  Uiso   1.00
O86    O     0.82484   0.13693   0.40160   0.00000  Uiso   1.00
N87    N     0.34007   0.24714   0.09652   0.00000  Uiso   1.00
N88    N     0.19677   0.02284   0.23051   0.00000  Uiso   1.00
N89    N     0.97256   0.13049   0.52144   0.00000  Uiso   1.00
N90    N     0.20372   0.26243   0.20210   0.00000  Uiso   1.00
N91    N     0.06042   0.03813   0.33609   0.00000  Uiso   1.00
N92    N     0.83621   0.14578   0.62701   0.00000  Uiso   1.00
C93    C     0.81820   0.36784   0.44017   0.00000  Uiso   1.00
C94    C     0.80791   0.33241   0.50904   0.00000  Uiso   1.00
C95    C     0.72330   0.31115   0.50816   0.00000  Uiso   1.00
C96    C     0.72886   0.27973   0.57718   0.00000  Uiso   1.00
C97    C     0.69962   0.22621   0.67392   0.00000  Uiso   1.00
C98    C     0.84739   0.39423   0.54599   0.00000  Uiso   1.00
C99    C     0.79598   0.42494   0.57615   0.00000  Uiso   1.00
C100   C     0.83480   0.44556   0.67627   0.00000  Uiso   1.00
C101   C     0.86690   0.48803   0.83031   0.00000  Uiso   1.00
C102   C     0.90918   0.36456   0.35057   0.00000  Uiso   1.00
C103   C     0.90973   0.37033   0.21642   0.00000  Uiso   1.00
C104   C     0.00058   0.36597   0.15201   0.00000  Uiso   1.00
C105   C     0.12860   0.36237   0.00263   0.00000  Uiso   1.00
C106   C     0.97855   0.34986   0.56432   0.00000  Uiso   1.00
C107   C     0.89500   0.32265   0.57648   0.00000  Uiso   1.00
C108   C     0.90071   0.29125   0.64552   0.00000  Uiso   1.00
C109   C     0.81612   0.26994   0.64474   0.00000  Uiso   1.00
C110   C     0.93448   0.38446   0.61343   0.00000  Uiso   1.00
C111   C     0.97339   0.40505   0.71352   0.00000  Uiso   1.00
C112   C     0.92206   0.43578   0.74383   0.00000  Uiso   1.00
C113   C     0.99627   0.35479   0.41800   0.00000  Uiso   1.00
C114   C     0.08714   0.35043   0.35379   0.00000  Uiso   1.00
C115   C     0.08783   0.35619   0.21957   0.00000  Uiso   1.00
H116   H     0.75039   0.37545   0.38767   0.00000  Uiso   1.00
H117   H     0.65590   0.31871   0.45597   0.00000  Uiso   1.00
H118   H     0.72859   0.43249   0.52394   0.00000  Uiso   1.00
H119   H     0.84232   0.37788   0.16427   0.00000  Uiso   1.00
H120   H     0.58955   0.25152   0.56146   0.00000  Uiso   1.00
H121   H     0.74283   0.49143   0.70476   0.00000  Uiso   1.00
H122   H     0.98264   0.37628   0.94632   0.00000  Uiso   1.00
H123   H     0.04636   0.34225   0.61683   0.00000  Uiso   1.00
H124   H     0.96812   0.28370   0.69770   0.00000  Uiso   1.00
H125   H     0.04080   0.39748   0.76568   0.00000  Uiso   1.00
H126   H     0.15452   0.34287   0.40601   0.00000  Uiso   1.00
H127   H     0.84295   0.22310   0.75767   0.00000  Uiso   1.00
H128   H     0.99623   0.46301   0.90096   0.00000  Uiso   1.00
H129   H     0.23604   0.34786   0.14253   0.00000  Uiso   1.00
O130   O     0.65942   0.19939   0.70867   0.00000  Uiso   1.00
O131   O     0.86053   0.51415   0.89665   0.00000  Uiso   1.00
O132   O     0.17516   0.36307   0.90160   0.00000  Uiso   1.00
N133   N     0.65993   0.25286   0.59652   0.00000  Uiso   1.00
N134   N     0.80323   0.47716   0.73051   0.00000  Uiso   1.00
N135   N     0.02744   0.36951   0.02144   0.00000  Uiso   1.00
N136   N     0.79628   0.23757   0.70210   0.00000  Uiso   1.00
N137   N     0.93958   0.46187   0.83609   0.00000  Uiso   1.00
N138   N     0.16379   0.35422   0.12701   0.00000  Uiso   1.00
C139   C     0.81820   0.86784   0.94017   0.00000  Uiso   1.00
C140   C     0.80791   0.83241   0.00904   0.00000  Uiso   1.00
C141   C     0.72330   0.81115   0.00816   0.00000  Uiso   1.00
C142   C     0.72886   0.77973   0.07718   0.00000  Uiso   1.00
C143   C     0.69962   0.72621   0.17392   0.00000  Uiso   1.00
C144   C     0.84739   0.89423   0.04599   0.00000  Uiso   1.00
C145   C     0.79598   0.92494   0.07615   0.00000  Uiso   1.00
C146   C     0.83480   0.94556   0.17627   0.00000  Uiso   1.00
C147   C     0.86690   0.98803   0.33031   0.00000  Uiso   1.00
C148   C     0.90918   0.86456   0.85057   0.00000  Uiso   1.00
C149   C     0.90973   0.87033   0.71642   0.00000  Uiso   1.00
C150   C     0.00058   0.86597   0.65201   0.00000  Uiso   1.00
C151   C     0.12860   0.86237   0.50263   0.00000  Uiso   1.00
C152   C     0.97855   0.84986   0.06432   0.00000  Uiso   1.00
C153   C     0.89500   0.82265   0.07648   0.00000  Uiso   1.00
C154   C     0.90071   0.79125   0.14552   0.00000  Uiso   1.00
C155   C     0.81612   0.76994   0.14474   0.00000  Uiso   1.00
C156   C     0.93448   0.88446   0.11343   0.00000  Uiso   1.00
C157   C     0.97339   0.90505   0.21352   0.00000  Uiso   1.00
C158   C     0.92206   0.93578   0.24383   0.00000  Uiso   1.00
C159   C     0.99627   0.85479   0.91800   0.00000  Uiso   1.00
C160   C     0.08714   0.85043   0.85379   0.00000  Uiso   1.00
C161   C     0.08783   0.85619   0.71957   0.00000  Uiso   1.00
H162   H     0.75039   0.87545   0.88767   0.00000  Uiso   1.00
H163   H     0.65590   0.81871   0.95597   0.00000  Uiso   1.00
H164   H     0.72859   0.93249   0.02394   0.00000  Uiso   1.00
H165   H     0.84232   0.87788   0.66427   0.00000  Uiso   1.00
H166   H     0.58955   0.75152   0.06146   0.00000  Uiso   1.00
H167   H     0.74283   0.99143   0.20476   0.00000  Uiso   1.00
H168   H     0.98264   0.87628   0.44632   0.00000  Uiso   1.00
H169   H     0.04636   0.84225   0.11683   0.00000  Uiso   1.00
H170   H     0.96812   0.78370   0.19770   0.00000  Uiso   1.00
H171   H     0.04080   0.89748   0.26568   0.00000  Uiso   1.00
H172   H     0.15452   0.84287   0.90601   0.00000  Uiso   1.00
H173   H     0.84295   0.72310   0.25767   0.00000  Uiso   1.00
H174   H     0.99623   0.96301   0.40096   0.00000  Uiso   1.00
H175   H     0.23604   0.84786   0.64253   0.00000  Uiso   1.00
O176   O     0.65942   0.69939   0.20867   0.00000  Uiso   1.00
O177   O     0.86053   0.01415   0.39665   0.00000  Uiso   1.00
O178   O     0.17516   0.86307   0.40160   0.00000  Uiso   1.00
N179   N     0.65993   0.75286   0.09652   0.00000  Uiso   1.00
N180   N     0.80323   0.97716   0.23051   0.00000  Uiso   1.00
N181   N     0.02744   0.86951   0.52144   0.00000  Uiso   1.00
N182   N     0.79628   0.73757   0.20210   0.00000  Uiso   1.00
N183   N     0.93958   0.96187   0.33609   0.00000  Uiso   1.00
N184   N     0.16379   0.85422   0.62701   0.00000  Uiso   1.00
C185   C     0.68180   0.86784   0.44017   0.00000  Uiso   1.00
C186   C     0.69209   0.83241   0.50904   0.00000  Uiso   1.00
C187   C     0.77670   0.81115   0.50816   0.00000  Uiso   1.00
C188   C     0.77114   0.77973   0.57718   0.00000  Uiso   1.00
C189   C     0.80038   0.72621   0.67392   0.00000  Uiso   1.00
C190   C     0.65261   0.89423   0.54599   0.00000  Uiso   1.00
C191   C     0.70402   0.92494   0.57615   0.00000  Uiso   1.00
C192   C     0.66520   0.94556   0.67627   0.00000  Uiso   1.00
C193   C     0.63310   0.98803   0.83031   0.00000  Uiso   1.00
C194   C     0.59082   0.86456   0.35057   0.00000  Uiso   1.00
C195   C     0.59027   0.87033   0.21642   0.00000  Uiso   1.00
C196   C     0.49942   0.86597   0.15201   0.00000  Uiso   1.00
C197   C     0.37140   0.86237   0.00263   0.00000  Uiso   1.00
C198   C     0.52145   0.84986   0.56432   0.00000  Uiso   1.00
C199   C     0.60500   0.82265   0.57648   0.00000  Uiso   1.00
C200   C     0.59929   0.79125   0.64552   0.00000  Uiso   1.00
C201   C     0.68388   0.76994   0.64474   0.00000  Uiso   1.00
C202   C     0.56552   0.88446   0.61343   0.00000  Uiso   1.00
C203   C     0.52661   0.90505   0.71352   0.00000  Uiso   1.00
C204   C     0.57794   0.93578   0.74383   0.00000  Uiso   1.00
C205   C     0.50373   0.85479   0.41800   0.00000  Uiso   1.00
C206   C     0.41286   0.85043   0.35379   0.00000  Uiso   1.00
C207   C     0.41217   0.85619   0.21957   0.00000  Uiso   1.00
H208   H     0.74961   0.87545   0.38767   0.00000  Uiso   1.00
H209   H     0.84410   0.81871   0.45597   0.00000  Uiso   1.00
H210   H     0.77141   0.93249   0.52394   0.00000  Uiso   1.00
H211   H     0.65768   0.87788   0.16427   0.00000  Uiso   1.00
H212   H     0.91045   0.75152   0.56146   0.00000  Uiso   1.00
H213   H     0.75717   0.99143   0.70476   0.00000  Uiso   1.00
H214   H     0.51736   0.87628   0.94632   0.00000  Uiso   1.00
H215   H     0.45364   0.84225   0.61683   0.00000  Uiso   1.00
H216   H     0.53188   0.78370   0.69770   0.00000  Uiso   1.00
H217   H     0.45920   0.89748   0.76568   0.00000  Uiso   1.00
H218   H     0.34548   0.84287   0.40601   0.00000  Uiso   1.00
H219   H     0.65705   0.72310   0.75767   0.00000  Uiso   1.00
H220   H     0.50377   0.96301   0.90096   0.00000  Uiso   1.00
H221   H     0.26396   0.84786   0.14253   0.00000  Uiso   1.00
O222   O     0.84058   0.69939   0.70867   0.00000  Uiso   1.00
O223   O     0.63947   0.01415   0.89665   0.00000  Uiso   1.00
O224   O     0.32484   0.86307   0.90160   0.00000  Uiso   1.00
N225   N     0.84007   0.75286   0.59652   0.00000  Uiso   1.00
N226   N     0.69677   0.97716   0.73051   0.00000  Uiso   1.00
N227   N     0.47256   0.86951   0.02144   0.00000  Uiso   1.00
N228   N     0.70372   0.73757   0.70210   0.00000  Uiso   1.00
N229   N     0.56042   0.96187   0.83609   0.00000  Uiso   1.00
N230   N     0.33621   0.85422   0.12701   0.00000  Uiso   1.00
C231   C     0.68180   0.36784   0.94017   0.00000  Uiso   1.00
C232   C     0.69209   0.33241   0.00904   0.00000  Uiso   1.00
C233   C     0.77670   0.31115   0.00816   0.00000  Uiso   1.00
C234   C     0.77114   0.27973   0.07718   0.00000  Uiso   1.00
C235   C     0.80038   0.22621   0.17392   0.00000  Uiso   1.00
C236   C     0.65261   0.39423   0.04599   0.00000  Uiso   1.00
C237   C     0.70402   0.42494   0.07615   0.00000  Uiso   1.00
C238   C     0.66520   0.44556   0.17627   0.00000  Uiso   1.00
C239   C     0.63310   0.48803   0.33031   0.00000  Uiso   1.00
C240   C     0.59082   0.36456   0.85057   0.00000  Uiso   1.00
C241   C     0.59027   0.37033   0.71642   0.00000  Uiso   1.00
C242   C     0.49942   0.36597   0.65201   0.00000  Uiso   1.00
C243   C     0.37140   0.36237   0.50263   0.00000  Uiso   1.00
C244   C     0.52145   0.34986   0.06432   0.00000  Uiso   1.00
C245   C     0.60500   0.32265   0.07648   0.00000  Uiso   1.00
C246   C     0.59929   0.29125   0.14552   0.00000  Uiso   1.00
C247   C     0.68388   0.26994   0.14474   0.00000  Uiso   1.00
C248   C     0.56552   0.38446   0.11343   0.00000  Uiso   1.00
C249   C     0.52661   0.40505   0.21352   0.00000  Uiso   1.00
C250   C     0.57794   0.43578   0.24383   0.00000  Uiso   1.00
C251   C     0.50373   0.35479   0.91800   0.00000  Uiso   1.00
C252   C     0.41286   0.35043   0.85379   0.00000  Uiso   1.00
C253   C     0.41217   0.35619   0.71957   0.00000  Uiso   1.00
H254   H     0.74961   0.37545   0.88767   0.00000  Uiso   1.00
H255   H     0.84410   0.31871   0.95597   0.00000  Uiso   1.00
H256   H     0.77141   0.43249   0.02394   0.00000  Uiso   1.00
H257   H     0.65768   0.37788   0.66427   0.00000  Uiso   1.00
H258   H     0.91045   0.25152   0.06146   0.00000  Uiso   1.00
H259   H     0.75717   0.49143   0.20476   0.00000  Uiso   1.00
H260   H     0.51736   0.37628   0.44632   0.00000  Uiso   1.00
H261   H     0.45364   0.34225   0.11683   0.00000  Uiso   1.00
H262   H     0.53188   0.28370   0.19770   0.00000  Uiso   1.00
H263   H     0.45920   0.39748   0.26568   0.00000  Uiso   1.00
H264   H     0.34548   0.34287   0.90601   0.00000  Uiso   1.00
H265   H     0.65705   0.22310   0.25767   0.00000  Uiso   1.00
H266   H     0.50377   0.46301   0.40096   0.00000  Uiso   1.00
H267   H     0.26396   0.34786   0.64253   0.00000  Uiso   1.00
O268   O     0.84058   0.19939   0.20867   0.00000  Uiso   1.00
O269   O     0.63947   0.51415   0.39665   0.00000  Uiso   1.00
O270   O     0.32484   0.36307   0.40160   0.00000  Uiso   1.00
N271   N     0.84007   0.25286   0.09652   0.00000  Uiso   1.00
N272   N     0.69677   0.47716   0.23051   0.00000  Uiso   1.00
N273   N     0.47256   0.36951   0.52144   0.00000  Uiso   1.00
N274   N     0.70372   0.23757   0.20210   0.00000  Uiso   1.00
N275   N     0.56042   0.46187   0.33609   0.00000  Uiso   1.00
N276   N     0.33621   0.35422   0.62701   0.00000  Uiso   1.00
C277   C     0.31820   0.13216   0.44017   0.00000  Uiso   1.00
C278   C     0.30791   0.16759   0.50904   0.00000  Uiso   1.00
C279   C     0.22330   0.18885   0.50816   0.00000  Uiso   1.00
C280   C     0.22886   0.22027   0.57718   0.00000  Uiso   1.00
C281   C     0.19962   0.27379   0.67392   0.00000  Uiso   1.00
C282   C     0.34739   0.10577   0.54599   0.00000  Uiso   1.00
C283   C     0.29598   0.07506   0.57615   0.00000  Uiso   1.00
C284   C     0.33480   0.05444   0.67627   0.00000  Uiso   1.00
C285   C     0.36690   0.01197   0.83031   0.00000  Uiso   1.00
C286   C     0.40918   0.13544   0.35057   0.00000  Uiso   1.00
C287   C     0.40973   0.12967   0.21642   0.00000  Uiso   1.00
C288   C     0.50058   0.13403   0.15201   0.00000  Uiso   1.00
C289   C     0.62860   0.13763   0.00263   0.00000  Uiso   1.00
C290   C     0.47855   0.15014   0.56432   0.00000  Uiso   1.00
C291   C     0.39500   0.17735   0.57648   0.00000  Uiso   1.00
C292   C     0.40071   0.20875   0.64552   0.00000  Uiso   1.00
C293   C     0.31612   0.23006   0.64474   0.00000  Uiso   1.00
C294   C     0.43448   0.11554   0.61343   0.00000  Uiso   1.00
C295   C     0.47339   0.09495   0.71352   0.00000  Uiso   1.00
C296   C     0.42206   0.06422   0.74383   0.00000  Uiso   1.00
C297   C     0.49627   0.14521   0.41800   0.00000  Uiso   1.00
C298   C     0.58714   0.14957   0.35379   0.00000  Uiso   1.00
C299   C     0.58783   0.14381   0.21957   0.00000  Uiso   1.00
H300   H     0.25039   0.12455   0.38767   0.00000  Uiso   1.00
H301   H     0.15590   0.18129   0.45597   0.00000  Uiso   1.00
H302   H     0.22859   0.06751   0.52394   0.00000  Uiso   1.00
H303   H     0.34232   0.12212   0.16427   0.00000  Uiso   1.00
H304   H     0.08955   0.24848   0.56146   0.00000  Uiso   1.00
H305   H     0.24283   0.00857   0.70476   0.00000  Uiso   1.00
H306   H     0.48264   0.12372   0.94632   0.00000  Uiso   1.00
H307   H     0.54636   0.15775   0.61683   0.00000  Uiso   1.00
H308   H     0.46812   0.21630   0.69770   0.00000  Uiso   1.00
H309   H     0.54080   0.10252   0.76568   0.00000  Uiso   1.00
H310   H     0.65452   0.15713   0.40601   0.00000  Uiso   1.00
H311   H     0.34295   0.27690   0.75767   0.00000  Uiso   1.00
H312   H     0.49623   0.03699   0.90096   0.00000  Uiso   1.00
H313   H     0.73604   0.15214   0.14253   0.00000  Uiso   1.00
O314   O     0.15942   0.30061   0.70867   0.00000  Uiso   1.00
O315   O     0.36053   0.98585   0.89665   0.00000  Uiso   1.00
O316   O     0.67516   0.13693   0.90160   0.00000  Uiso   1.00
N317   N     0.15993   0.24714   0.59652   0.00000  Uiso   1.00
N318   N     0.30323   0.02284   0.73051   0.00000  Uiso   1.00
N319   N     0.52744   0.13049   0.02144   0.00000  Uiso   1.00
N320   N     0.29628   0.26243   0.70210   0.00000  Uiso   1.00
N321   N     0.43958   0.03813   0.83609   0.00000  Uiso   1.00
N322   N     0.66379   0.14578   0.12701   0.00000  Uiso   1.00
C323   C     0.31820   0.63216   0.94017   0.00000  Uiso   1.00
C324   C     0.30791   0.66759   0.00904   0.00000  Uiso   1.00
C325   C     0.22330   0.68885   0.00816   0.00000  Uiso   1.00
C326   C     0.22886   0.72027   0.07718   0.00000  Uiso   1.00
C327   C     0.19962   0.77379   0.17392   0.00000  Uiso   1.00
C328   C     0.34739   0.60577   0.04599   0.00000  Uiso   1.00
C329   C     0.29598   0.57506   0.07615   0.00000  Uiso   1.00
C330   C     0.33480   0.55444   0.17627   0.00000  Uiso   1.00
C331   C     0.36690   0.51197   0.33031   0.00000  Uiso   1.00
C332   C     0.40918   0.63544   0.85057   0.00000  Uiso   1.00
C333   C     0.40973   0.62967   0.71642   0.00000  Uiso   1.00
C334   C     0.50058   0.63403   0.65201   0.00000  Uiso   1.00
C335   C     0.62860   0.63763   0.50263   0.00000  Uiso   1.00
C336   C     0.47855   0.65014   0.06432   0.00000  Uiso   1.00
C337   C     0.39500   0.67735   0.07648   0.00000  Uiso   1.00
C338   C     0.40071   0.70875   0.14552   0.00000  Uiso   1.00
C339   C     0.31612   0.73006   0.14474   0.00000  Uiso   1.00
C340   C     0.43448   0.61554   0.11343   0.00000  Uiso   1.00
C341   C     0.47339   0.59495   0.21352   0.00000  Uiso   1.00
C342   C     0.42206   0.56422   0.24383   0.00000  Uiso   1.00
C343   C     0.49627   0.64521   0.91800   0.00000  Uiso   1.00
C344   C     0.58714   0.64957   0.85379   0.00000  Uiso   1.00
C345   C     0.58783   0.64381   0.71957   0.00000  Uiso   1.00
H346   H     0.25039   0.62455   0.88767   0.00000  Uiso   1.00
H347   H     0.15590   0.68129   0.95597   0.00000  Uiso   1.00
H348   H     0.22859   0.56751   0.02394   0.00000  Uiso   1.00
H349   H     0.34232   0.62212   0.66427   0.00000  Uiso   1.00
H350   H     0.08955   0.74848   0.06146   0.00000  Uiso   1.00
H351   H     0.24283   0.50857   0.20476   0.00000  Uiso   1.00
H352   H     0.48264   0.62372   0.44632   0.00000  Uiso   1.00
H353   H     0.54636   0.65775   0.11683   0.00000  Uiso   1.00
H354   H     0.46812   0.71630   0.19770   0.00000  Uiso   1.00
H355   H     0.54080   0.60252   0.26568   0.00000  Uiso   1.00
H356   H     0.65452   0.65713   0.90601   0.00000  Uiso   1.00
H357   H     0.34295   0.77690   0.25767   0.00000  Uiso   1.00
H358   H     0.49623   0.53699   0.40096   0.00000  Uiso   1.00
H359   H     0.73604   0.65214   0.64253   0.00000  Uiso   1.00
O360   O     0.15942   0.80061   0.20867   0.00000  Uiso   1.00
O361   O     0.36053   0.48585   0.39665   0.00000  Uiso   1.00
O362   O     0.67516   0.63693   0.40160   0.00000  Uiso   1.00
N363   N     0.15993   0.74714   0.09652   0.00000  Uiso   1.00
N364   N     0.30323   0.52284   0.23051   0.00000  Uiso   1.00
N365   N     0.52744   0.63049   0.52144   0.00000  Uiso   1.00
N366   N     0.29628   0.76243   0.20210   0.00000  Uiso   1.00
N367   N     0.43958   0.53813   0.33609   0.00000  Uiso   1.00
N368   N     0.66379   0.64578   0.62701   0.00000  Uiso   1.00
