data_job_04921
_audit_creation_date              2018-12-19
_audit_creation_method            'Materials Studio'
_symmetry_space_group_name_H-M    'P1'
_symmetry_Int_Tables_number       1
_symmetry_cell_setting            triclinic
loop_
_symmetry_equiv_pos_as_xyz
  x,y,z
_cell_length_a                    12.4369
_cell_length_b                    12.4369
_cell_length_c                    29.4195
_cell_angle_alpha                 90.0000
_cell_angle_beta                  90.0000
_cell_angle_gamma                 120.0000
loop_
_atom_site_label
_atom_site_type_symbol
_atom_site_fract_x
_atom_site_fract_y
_atom_site_fract_z
_atom_site_U_iso_or_equiv
_atom_site_adp_type
_atom_site_occupancy
C1     C     0.21418   0.20500   0.40299   0.00000  Uiso   1.00
C2     C     0.34408   0.26796   0.42359   0.00000  Uiso   1.00
C3     C     0.37677   0.23625   0.46445   0.00000  Uiso   1.00
C4     C     0.50047   0.30514   0.47738   0.00000  Uiso   1.00
C5     C     0.68881   0.38817   0.51349   0.00000  Uiso   1.00
C6     C     0.18270   0.30753   0.39562   0.00000  Uiso   1.00
C7     C     0.07969   0.30907   0.41295   0.00000  Uiso   1.00
C8     C     0.06754   0.41127   0.40233   0.00000  Uiso   1.00
C9     C     0.00528   0.55568   0.39498   0.00000  Uiso   1.00
C10    C     0.22647   0.16201   0.35572   0.00000  Uiso   1.00
C11    C     0.16024   0.04120   0.33949   0.00000  Uiso   1.00
C12    C     0.18492   0.02087   0.29527   0.00000  Uiso   1.00
C13    C     0.19063   0.93934   0.22597   0.00000  Uiso   1.00
C14    C     0.37573   0.38372   0.35331   0.00000  Uiso   1.00
C15    C     0.43183   0.36504   0.39660   0.00000  Uiso   1.00
C16    C     0.55551   0.43399   0.40948   0.00000  Uiso   1.00
C17    C     0.58838   0.40238   0.45035   0.00000  Uiso   1.00
C18    C     0.27044   0.40460   0.36863   0.00000  Uiso   1.00
C19    C     0.25843   0.50681   0.35798   0.00000  Uiso   1.00
C20    C     0.15544   0.50852   0.37530   0.00000  Uiso   1.00
C21    C     0.31422   0.25908   0.32873   0.00000  Uiso   1.00
C22    C     0.33899   0.23894   0.28453   0.00000  Uiso   1.00
C23    C     0.27283   0.11812   0.26824   0.00000  Uiso   1.00
H24    H     0.14586   0.12943   0.42400   0.00000  Uiso   1.00
H25    H     0.30883   0.16113   0.48532   0.00000  Uiso   1.00
H26    H     0.01180   0.23393   0.43383   0.00000  Uiso   1.00
H27    H     0.09235   0.96610   0.36038   0.00000  Uiso   1.00
H28    H     0.52821   0.23911   0.54142   0.00000  Uiso   1.00
H29    H     0.90187   0.39261   0.43283   0.00000  Uiso   1.00
H30    H     0.07172   0.82783   0.27796   0.00000  Uiso   1.00
H31    H     0.44405   0.45931   0.33230   0.00000  Uiso   1.00
H32    H     0.62340   0.50910   0.38859   0.00000  Uiso   1.00
H33    H     0.32635   0.58191   0.33710   0.00000  Uiso   1.00
H34    H     0.40690   0.31408   0.26366   0.00000  Uiso   1.00
H35    H     0.78352   0.52154   0.46291   0.00000  Uiso   1.00
H36    H     0.15717   0.67504   0.35432   0.00000  Uiso   1.00
H37    H     0.32703   0.11026   0.19945   0.00000  Uiso   1.00
O38    O     0.76845   0.40716   0.54086   0.00000  Uiso   1.00
O39    O     0.94671   0.60852   0.39839   0.00000  Uiso   1.00
O40    O     0.16955   0.86755   0.19520   0.00000  Uiso   1.00
N41    N     0.56369   0.29873   0.51521   0.00000  Uiso   1.00
N42    N     0.97811   0.44225   0.41369   0.00000  Uiso   1.00
N43    N     0.13688   0.91424   0.26890   0.00000  Uiso   1.00
N44    N     0.70107   0.45070   0.47297   0.00000  Uiso   1.00
N45    N     0.11549   0.59422   0.37145   0.00000  Uiso   1.00
N46    N     0.27426   0.06621   0.22665   0.00000  Uiso   1.00
C47    C     0.79500   0.00918   0.06965   0.00000  Uiso   1.00
C48    C     0.73204   0.07612   0.09026   0.00000  Uiso   1.00
C49    C     0.76375   0.14052   0.13111   0.00000  Uiso   1.00
C50    C     0.69486   0.19534   0.14405   0.00000  Uiso   1.00
C51    C     0.61183   0.30065   0.18015   0.00000  Uiso   1.00
C52    C     0.69247   0.87517   0.06228   0.00000  Uiso   1.00
C53    C     0.69093   0.77062   0.07962   0.00000  Uiso   1.00
C54    C     0.58873   0.65627   0.06900   0.00000  Uiso   1.00
C55    C     0.44432   0.44960   0.06165   0.00000  Uiso   1.00
C56    C     0.83799   0.06446   0.02238   0.00000  Uiso   1.00
C57    C     0.95880   0.11904   0.00616   0.00000  Uiso   1.00
C58    C     0.97913   0.16405   0.96194   0.00000  Uiso   1.00
C59    C     0.06066   0.25128   0.89264   0.00000  Uiso   1.00
C60    C     0.61628   0.99201   0.01997   0.00000  Uiso   1.00
C61    C     0.63496   0.06679   0.06327   0.00000  Uiso   1.00
C62    C     0.56601   0.12153   0.07615   0.00000  Uiso   1.00
C63    C     0.59762   0.18600   0.11702   0.00000  Uiso   1.00
C64    C     0.59540   0.86584   0.03530   0.00000  Uiso   1.00
C65    C     0.49319   0.75162   0.02465   0.00000  Uiso   1.00
C66    C     0.49148   0.64693   0.04197   0.00000  Uiso   1.00
C67    C     0.74092   0.05514   0.99540   0.00000  Uiso   1.00
C68    C     0.76106   0.10006   0.95119   0.00000  Uiso   1.00
C69    C     0.88188   0.15470   0.93491   0.00000  Uiso   1.00
H70    H     0.87057   0.01643   0.09066   0.00000  Uiso   1.00
H71    H     0.83887   0.14771   0.15199   0.00000  Uiso   1.00
H72    H     0.76607   0.77786   0.10049   0.00000  Uiso   1.00
H73    H     0.03390   0.12624   0.02705   0.00000  Uiso   1.00
H74    H     0.76089   0.28910   0.20809   0.00000  Uiso   1.00
H75    H     0.60739   0.50927   0.09950   0.00000  Uiso   1.00
H76    H     0.17217   0.24389   0.94462   0.00000  Uiso   1.00
H77    H     0.54069   0.98475   0.99897   0.00000  Uiso   1.00
H78    H     0.49090   0.11430   0.05526   0.00000  Uiso   1.00
H79    H     0.41809   0.74445   0.00377   0.00000  Uiso   1.00
H80    H     0.68592   0.09283   0.93032   0.00000  Uiso   1.00
H81    H     0.47846   0.26198   0.12958   0.00000  Uiso   1.00
H82    H     0.32496   0.48214   0.02099   0.00000  Uiso   1.00
H83    H     0.88974   0.21676   0.86612   0.00000  Uiso   1.00
O84    O     0.59284   0.36130   0.20753   0.00000  Uiso   1.00
O85    O     0.39148   0.33818   0.06505   0.00000  Uiso   1.00
O86    O     0.13245   0.30199   0.86187   0.00000  Uiso   1.00
N87    N     0.70127   0.26496   0.18188   0.00000  Uiso   1.00
N88    N     0.55775   0.53586   0.08036   0.00000  Uiso   1.00
N89    N     0.08576   0.22264   0.93556   0.00000  Uiso   1.00
N90    N     0.54930   0.25037   0.13963   0.00000  Uiso   1.00
N91    N     0.40578   0.52127   0.03812   0.00000  Uiso   1.00
N92    N     0.93379   0.20805   0.89332   0.00000  Uiso   1.00
C93    C     0.99082   0.78582   0.73632   0.00000  Uiso   1.00
C94    C     0.92388   0.65592   0.75692   0.00000  Uiso   1.00
C95    C     0.85948   0.62323   0.79778   0.00000  Uiso   1.00
C96    C     0.80466   0.49953   0.81072   0.00000  Uiso   1.00
C97    C     0.69935   0.31119   0.84682   0.00000  Uiso   1.00
C98    C     0.12483   0.81730   0.72895   0.00000  Uiso   1.00
C99    C     0.22938   0.92031   0.74628   0.00000  Uiso   1.00
C100   C     0.34373   0.93246   0.73567   0.00000  Uiso   1.00
C101   C     0.55040   0.99472   0.72831   0.00000  Uiso   1.00
C102   C     0.93554   0.77353   0.68905   0.00000  Uiso   1.00
C103   C     0.88096   0.83976   0.67282   0.00000  Uiso   1.00
C104   C     0.83595   0.81508   0.62861   0.00000  Uiso   1.00
C105   C     0.74872   0.80937   0.55930   0.00000  Uiso   1.00
C106   C     0.00799   0.62427   0.68664   0.00000  Uiso   1.00
C107   C     0.93321   0.56817   0.72994   0.00000  Uiso   1.00
C108   C     0.87847   0.44449   0.74281   0.00000  Uiso   1.00
C109   C     0.81400   0.41162   0.78368   0.00000  Uiso   1.00
C110   C     0.13416   0.72956   0.70197   0.00000  Uiso   1.00
C111   C     0.24838   0.74157   0.69132   0.00000  Uiso   1.00
C112   C     0.35307   0.84456   0.70863   0.00000  Uiso   1.00
C113   C     0.94486   0.68578   0.66206   0.00000  Uiso   1.00
C114   C     0.89994   0.66101   0.61786   0.00000  Uiso   1.00
C115   C     0.84530   0.72717   0.60157   0.00000  Uiso   1.00
H116   H     0.98357   0.85414   0.75733   0.00000  Uiso   1.00
H117   H     0.85229   0.69117   0.81865   0.00000  Uiso   1.00
H118   H     0.22214   0.98820   0.76716   0.00000  Uiso   1.00
H119   H     0.87376   0.90765   0.69372   0.00000  Uiso   1.00
H120   H     0.71090   0.47179   0.87475   0.00000  Uiso   1.00
H121   H     0.49073   0.09813   0.76616   0.00000  Uiso   1.00
H122   H     0.75611   0.92828   0.61129   0.00000  Uiso   1.00
H123   H     0.01525   0.55595   0.66563   0.00000  Uiso   1.00
H124   H     0.88570   0.37660   0.72193   0.00000  Uiso   1.00
H125   H     0.25555   0.67365   0.67043   0.00000  Uiso   1.00
H126   H     0.90717   0.59310   0.59699   0.00000  Uiso   1.00
H127   H     0.73802   0.21648   0.79625   0.00000  Uiso   1.00
H128   H     0.51786   0.84283   0.68765   0.00000  Uiso   1.00
H129   H     0.78324   0.67297   0.53278   0.00000  Uiso   1.00
O130   O     0.63870   0.23155   0.87419   0.00000  Uiso   1.00
O131   O     0.66182   0.05329   0.73172   0.00000  Uiso   1.00
O132   O     0.69801   0.83045   0.52853   0.00000  Uiso   1.00
N133   N     0.73504   0.43631   0.84855   0.00000  Uiso   1.00
N134   N     0.46414   0.02189   0.74703   0.00000  Uiso   1.00
N135   N     0.77736   0.86312   0.60223   0.00000  Uiso   1.00
N136   N     0.74963   0.29893   0.80630   0.00000  Uiso   1.00
N137   N     0.47873   0.88451   0.70478   0.00000  Uiso   1.00
N138   N     0.79195   0.72574   0.55999   0.00000  Uiso   1.00
C139   C     0.20500   0.21418   0.59701   0.00000  Uiso   1.00
C140   C     0.26796   0.34408   0.57641   0.00000  Uiso   1.00
C141   C     0.23625   0.37677   0.53555   0.00000  Uiso   1.00
C142   C     0.30514   0.50047   0.52262   0.00000  Uiso   1.00
C143   C     0.38817   0.68881   0.48651   0.00000  Uiso   1.00
C144   C     0.30753   0.18270   0.60438   0.00000  Uiso   1.00
C145   C     0.30907   0.07969   0.58705   0.00000  Uiso   1.00
C146   C     0.41127   0.06754   0.59767   0.00000  Uiso   1.00
C147   C     0.55568   0.00528   0.60502   0.00000  Uiso   1.00
C148   C     0.16201   0.22647   0.64428   0.00000  Uiso   1.00
C149   C     0.04120   0.16024   0.66051   0.00000  Uiso   1.00
C150   C     0.02087   0.18492   0.70473   0.00000  Uiso   1.00
C151   C     0.93934   0.19063   0.77403   0.00000  Uiso   1.00
C152   C     0.38372   0.37573   0.64669   0.00000  Uiso   1.00
C153   C     0.36504   0.43183   0.60340   0.00000  Uiso   1.00
C154   C     0.43399   0.55551   0.59052   0.00000  Uiso   1.00
C155   C     0.40238   0.58838   0.54965   0.00000  Uiso   1.00
C156   C     0.40460   0.27044   0.63137   0.00000  Uiso   1.00
C157   C     0.50681   0.25843   0.64202   0.00000  Uiso   1.00
C158   C     0.50852   0.15544   0.62470   0.00000  Uiso   1.00
C159   C     0.25908   0.31422   0.67127   0.00000  Uiso   1.00
C160   C     0.23894   0.33899   0.71547   0.00000  Uiso   1.00
C161   C     0.11812   0.27283   0.73176   0.00000  Uiso   1.00
H162   H     0.12943   0.14586   0.57600   0.00000  Uiso   1.00
H163   H     0.16113   0.30883   0.51468   0.00000  Uiso   1.00
H164   H     0.23393   0.01180   0.56617   0.00000  Uiso   1.00
H165   H     0.96610   0.09235   0.63962   0.00000  Uiso   1.00
H166   H     0.23911   0.52821   0.45858   0.00000  Uiso   1.00
H167   H     0.39261   0.90187   0.56717   0.00000  Uiso   1.00
H168   H     0.82783   0.07172   0.72204   0.00000  Uiso   1.00
H169   H     0.45931   0.44405   0.66770   0.00000  Uiso   1.00
H170   H     0.50910   0.62340   0.61141   0.00000  Uiso   1.00
H171   H     0.58191   0.32635   0.66290   0.00000  Uiso   1.00
H172   H     0.31408   0.40690   0.73634   0.00000  Uiso   1.00
H173   H     0.52154   0.78352   0.53709   0.00000  Uiso   1.00
H174   H     0.67504   0.15717   0.64568   0.00000  Uiso   1.00
H175   H     0.11026   0.32703   0.80055   0.00000  Uiso   1.00
O176   O     0.40716   0.76845   0.45914   0.00000  Uiso   1.00
O177   O     0.60852   0.94671   0.60161   0.00000  Uiso   1.00
O178   O     0.86755   0.16955   0.80480   0.00000  Uiso   1.00
N179   N     0.29873   0.56369   0.48479   0.00000  Uiso   1.00
N180   N     0.44225   0.97811   0.58631   0.00000  Uiso   1.00
N181   N     0.91424   0.13688   0.73110   0.00000  Uiso   1.00
N182   N     0.45070   0.70107   0.52703   0.00000  Uiso   1.00
N183   N     0.59422   0.11549   0.62855   0.00000  Uiso   1.00
N184   N     0.06621   0.27426   0.77335   0.00000  Uiso   1.00
C185   C     0.00918   0.79500   0.93035   0.00000  Uiso   1.00
C186   C     0.07612   0.73204   0.90974   0.00000  Uiso   1.00
C187   C     0.14052   0.76375   0.86889   0.00000  Uiso   1.00
C188   C     0.19534   0.69486   0.85595   0.00000  Uiso   1.00
C189   C     0.30065   0.61183   0.81985   0.00000  Uiso   1.00
C190   C     0.87517   0.69247   0.93772   0.00000  Uiso   1.00
C191   C     0.77062   0.69093   0.92038   0.00000  Uiso   1.00
C192   C     0.65627   0.58873   0.93100   0.00000  Uiso   1.00
C193   C     0.44960   0.44432   0.93835   0.00000  Uiso   1.00
C194   C     0.06446   0.83799   0.97762   0.00000  Uiso   1.00
C195   C     0.11904   0.95880   0.99384   0.00000  Uiso   1.00
C196   C     0.16405   0.97913   0.03806   0.00000  Uiso   1.00
C197   C     0.25128   0.06066   0.10736   0.00000  Uiso   1.00
C198   C     0.99201   0.61628   0.98003   0.00000  Uiso   1.00
C199   C     0.06679   0.63496   0.93673   0.00000  Uiso   1.00
C200   C     0.12153   0.56601   0.92385   0.00000  Uiso   1.00
C201   C     0.18600   0.59762   0.88298   0.00000  Uiso   1.00
C202   C     0.86584   0.59540   0.96470   0.00000  Uiso   1.00
C203   C     0.75162   0.49319   0.97535   0.00000  Uiso   1.00
C204   C     0.64693   0.49148   0.95803   0.00000  Uiso   1.00
C205   C     0.05514   0.74092   0.00460   0.00000  Uiso   1.00
C206   C     0.10006   0.76106   0.04881   0.00000  Uiso   1.00
C207   C     0.15470   0.88188   0.06509   0.00000  Uiso   1.00
H208   H     0.01643   0.87057   0.90934   0.00000  Uiso   1.00
H209   H     0.14771   0.83887   0.84801   0.00000  Uiso   1.00
H210   H     0.77786   0.76607   0.89951   0.00000  Uiso   1.00
H211   H     0.12624   0.03390   0.97295   0.00000  Uiso   1.00
H212   H     0.28910   0.76089   0.79191   0.00000  Uiso   1.00
H213   H     0.50927   0.60739   0.90050   0.00000  Uiso   1.00
H214   H     0.24389   0.17217   0.05538   0.00000  Uiso   1.00
H215   H     0.98475   0.54069   0.00103   0.00000  Uiso   1.00
H216   H     0.11430   0.49090   0.94474   0.00000  Uiso   1.00
H217   H     0.74445   0.41809   0.99623   0.00000  Uiso   1.00
H218   H     0.09283   0.68592   0.06968   0.00000  Uiso   1.00
H219   H     0.26198   0.47846   0.87042   0.00000  Uiso   1.00
H220   H     0.48214   0.32496   0.97901   0.00000  Uiso   1.00
H221   H     0.21676   0.88974   0.13388   0.00000  Uiso   1.00
O222   O     0.36130   0.59284   0.79247   0.00000  Uiso   1.00
O223   O     0.33818   0.39148   0.93495   0.00000  Uiso   1.00
O224   O     0.30199   0.13245   0.13813   0.00000  Uiso   1.00
N225   N     0.26496   0.70127   0.81812   0.00000  Uiso   1.00
N226   N     0.53586   0.55775   0.91964   0.00000  Uiso   1.00
N227   N     0.22264   0.08576   0.06444   0.00000  Uiso   1.00
N228   N     0.25037   0.54930   0.86037   0.00000  Uiso   1.00
N229   N     0.52127   0.40578   0.96188   0.00000  Uiso   1.00
N230   N     0.20805   0.93379   0.10668   0.00000  Uiso   1.00
C231   C     0.78582   0.99082   0.26368   0.00000  Uiso   1.00
C232   C     0.65592   0.92388   0.24308   0.00000  Uiso   1.00
C233   C     0.62323   0.85948   0.20222   0.00000  Uiso   1.00
C234   C     0.49953   0.80466   0.18928   0.00000  Uiso   1.00
C235   C     0.31119   0.69935   0.15318   0.00000  Uiso   1.00
C236   C     0.81730   0.12483   0.27105   0.00000  Uiso   1.00
C237   C     0.92031   0.22938   0.25372   0.00000  Uiso   1.00
C238   C     0.93246   0.34373   0.26433   0.00000  Uiso   1.00
C239   C     0.99472   0.55040   0.27169   0.00000  Uiso   1.00
C240   C     0.77353   0.93554   0.31095   0.00000  Uiso   1.00
C241   C     0.83976   0.88096   0.32718   0.00000  Uiso   1.00
C242   C     0.81508   0.83595   0.37139   0.00000  Uiso   1.00
C243   C     0.80937   0.74872   0.44070   0.00000  Uiso   1.00
C244   C     0.62427   0.00799   0.31336   0.00000  Uiso   1.00
C245   C     0.56817   0.93321   0.27006   0.00000  Uiso   1.00
C246   C     0.44449   0.87847   0.25719   0.00000  Uiso   1.00
C247   C     0.41162   0.81400   0.21632   0.00000  Uiso   1.00
C248   C     0.72956   0.13416   0.29803   0.00000  Uiso   1.00
C249   C     0.74157   0.24838   0.30868   0.00000  Uiso   1.00
C250   C     0.84456   0.35307   0.29137   0.00000  Uiso   1.00
C251   C     0.68578   0.94486   0.33794   0.00000  Uiso   1.00
C252   C     0.66101   0.89994   0.38214   0.00000  Uiso   1.00
C253   C     0.72717   0.84530   0.39843   0.00000  Uiso   1.00
H254   H     0.85414   0.98357   0.24267   0.00000  Uiso   1.00
H255   H     0.69117   0.85229   0.18135   0.00000  Uiso   1.00
H256   H     0.98820   0.22214   0.23284   0.00000  Uiso   1.00
H257   H     0.90765   0.87376   0.30628   0.00000  Uiso   1.00
H258   H     0.47179   0.71090   0.12525   0.00000  Uiso   1.00
H259   H     0.09813   0.49073   0.23384   0.00000  Uiso   1.00
H260   H     0.92828   0.75611   0.38871   0.00000  Uiso   1.00
H261   H     0.55595   0.01525   0.33437   0.00000  Uiso   1.00
H262   H     0.37660   0.88570   0.27807   0.00000  Uiso   1.00
H263   H     0.67365   0.25555   0.32957   0.00000  Uiso   1.00
H264   H     0.59310   0.90717   0.40301   0.00000  Uiso   1.00
H265   H     0.21648   0.73802   0.20375   0.00000  Uiso   1.00
H266   H     0.84283   0.51786   0.31235   0.00000  Uiso   1.00
H267   H     0.67297   0.78324   0.46722   0.00000  Uiso   1.00
O268   O     0.23155   0.63870   0.12581   0.00000  Uiso   1.00
O269   O     0.05329   0.66182   0.26828   0.00000  Uiso   1.00
O270   O     0.83045   0.69801   0.47147   0.00000  Uiso   1.00
N271   N     0.43631   0.73504   0.15145   0.00000  Uiso   1.00
N272   N     0.02189   0.46414   0.25297   0.00000  Uiso   1.00
N273   N     0.86312   0.77736   0.39777   0.00000  Uiso   1.00
N274   N     0.29893   0.74963   0.19370   0.00000  Uiso   1.00
N275   N     0.88451   0.47873   0.29522   0.00000  Uiso   1.00
N276   N     0.72574   0.79195   0.44001   0.00000  Uiso   1.00
