data_job_01272
_audit_creation_date              2018-12-19
_audit_creation_method            'Materials Studio'
_symmetry_space_group_name_H-M    'P1'
_symmetry_Int_Tables_number       1
_symmetry_cell_setting            triclinic
loop_
_symmetry_equiv_pos_as_xyz
  x,y,z
_cell_length_a                    12.4348
_cell_length_b                    25.9151
_cell_length_c                    9.9085
_cell_angle_alpha                 90.0000
_cell_angle_beta                  131.5484
_cell_angle_gamma                 90.0000
loop_
_atom_site_label
_atom_site_type_symbol
_atom_site_fract_x
_atom_site_fract_y
_atom_site_fract_z
_atom_site_U_iso_or_equiv
_atom_site_adp_type
_atom_site_occupancy
C1     C     0.25223   0.65264   0.07211   0.00000  Uiso   1.00
C2     C     0.40201   0.66944   0.15247   0.00000  Uiso   1.00
C3     C     0.43295   0.71017   0.09206   0.00000  Uiso   1.00
C4     C     0.57686   0.71933   0.18367   0.00000  Uiso   1.00
C5     C     0.79286   0.75004   0.28607   0.00000  Uiso   1.00
C6     C     0.23907   0.59589   0.02234   0.00000  Uiso   1.00
C7     C     0.13299   0.57478   0.85253   0.00000  Uiso   1.00
C8     C     0.13972   0.52202   0.83462   0.00000  Uiso   1.00
C9     C     0.10268   0.43855   0.73503   0.00000  Uiso   1.00
C10    C     0.25304   0.65409   0.22663   0.00000  Uiso   1.00
C11    C     0.15869   0.68189   0.22857   0.00000  Uiso   1.00
C12    C     0.17717   0.67811   0.38265   0.00000  Uiso   1.00
C13    C     0.16183   0.68499   0.60025   0.00000  Uiso   1.00
C14    C     0.45278   0.59647   0.34225   0.00000  Uiso   1.00
C15    C     0.51094   0.63893   0.29919   0.00000  Uiso   1.00
C16    C     0.65484   0.64803   0.39094   0.00000  Uiso   1.00
C17    C     0.68598   0.68877   0.33068   0.00000  Uiso   1.00
C18    C     0.34799   0.56539   0.16906   0.00000  Uiso   1.00
C19    C     0.35487   0.51264   0.15141   0.00000  Uiso   1.00
C20    C     0.24884   0.49146   0.98162   0.00000  Uiso   1.00
C21    C     0.36197   0.62358   0.37337   0.00000  Uiso   1.00
C22    C     0.38059   0.61975   0.52746   0.00000  Uiso   1.00
C23    C     0.28629   0.64755   0.52965   0.00000  Uiso   1.00
H24    H     0.16742   0.67639   0.95787   0.00000  Uiso   1.00
H25    H     0.34862   0.73377   0.97849   0.00000  Uiso   1.00
H26    H     0.04870   0.59840   0.73901   0.00000  Uiso   1.00
H27    H     0.07441   0.70550   0.11500   0.00000  Uiso   1.00
H28    H     0.59755   0.78392   0.06601   0.00000  Uiso   1.00
H29    H     0.96513   0.49849   0.56108   0.00000  Uiso   1.00
H30    H     0.01934   0.72432   0.35392   0.00000  Uiso   1.00
H31    H     0.53758   0.57272   0.45649   0.00000  Uiso   1.00
H32    H     0.73911   0.62441   0.50448   0.00000  Uiso   1.00
H33    H     0.43918   0.48905   0.26499   0.00000  Uiso   1.00
H34    H     0.46489   0.59614   0.64098   0.00000  Uiso   1.00
H35    H     0.91448   0.69516   0.49292   0.00000  Uiso   1.00
H36    H     0.28205   0.40973   0.98798   0.00000  Uiso   1.00
H37    H     0.33627   0.63556   0.78083   0.00000  Uiso   1.00
O38    O     0.88190   0.77541   0.30200   0.00000  Uiso   1.00
O39    O     0.05216   0.40093   0.63955   0.00000  Uiso   1.00
O40    O     0.12330   0.69722   0.67975   0.00000  Uiso   1.00
N41    N     0.64449   0.75595   0.15993   0.00000  Uiso   1.00
N42    N     0.05322   0.48908   0.68783   0.00000  Uiso   1.00
N43    N     0.10388   0.70020   0.42906   0.00000  Uiso   1.00
N44    N     0.81503   0.70819   0.38964   0.00000  Uiso   1.00
N45    N     0.22376   0.44132   0.91755   0.00000  Uiso   1.00
N46    N     0.27442   0.65244   0.65877   0.00000  Uiso   1.00
C47    C     0.74777   0.15264   0.42789   0.00000  Uiso   1.00
C48    C     0.59799   0.16944   0.34753   0.00000  Uiso   1.00
C49    C     0.56705   0.21017   0.40794   0.00000  Uiso   1.00
C50    C     0.42314   0.21933   0.31633   0.00000  Uiso   1.00
C51    C     0.20714   0.25004   0.21393   0.00000  Uiso   1.00
C52    C     0.76093   0.09589   0.47766   0.00000  Uiso   1.00
C53    C     0.86701   0.07478   0.64747   0.00000  Uiso   1.00
C54    C     0.86028   0.02202   0.66538   0.00000  Uiso   1.00
C55    C     0.89732   0.93855   0.76497   0.00000  Uiso   1.00
C56    C     0.74696   0.15409   0.27337   0.00000  Uiso   1.00
C57    C     0.84131   0.18189   0.27143   0.00000  Uiso   1.00
C58    C     0.82283   0.17811   0.11735   0.00000  Uiso   1.00
C59    C     0.83817   0.18499   0.89975   0.00000  Uiso   1.00
C60    C     0.54722   0.09647   0.15775   0.00000  Uiso   1.00
C61    C     0.48906   0.13893   0.20081   0.00000  Uiso   1.00
C62    C     0.34516   0.14803   0.10906   0.00000  Uiso   1.00
C63    C     0.31402   0.18877   0.16932   0.00000  Uiso   1.00
C64    C     0.65201   0.06539   0.33094   0.00000  Uiso   1.00
C65    C     0.64513   0.01264   0.34859   0.00000  Uiso   1.00
C66    C     0.75116   0.99146   0.51838   0.00000  Uiso   1.00
C67    C     0.63803   0.12358   0.12663   0.00000  Uiso   1.00
C68    C     0.61941   0.11975   0.97254   0.00000  Uiso   1.00
C69    C     0.71371   0.14755   0.97035   0.00000  Uiso   1.00
H70    H     0.83258   0.17639   0.54213   0.00000  Uiso   1.00
H71    H     0.65138   0.23377   0.52151   0.00000  Uiso   1.00
H72    H     0.95130   0.09840   0.76099   0.00000  Uiso   1.00
H73    H     0.92559   0.20550   0.38500   0.00000  Uiso   1.00
H74    H     0.40245   0.28392   0.43399   0.00000  Uiso   1.00
H75    H     0.03487   0.99849   0.93892   0.00000  Uiso   1.00
H76    H     0.98066   0.22432   0.14608   0.00000  Uiso   1.00
H77    H     0.46242   0.07272   0.04351   0.00000  Uiso   1.00
H78    H     0.26089   0.12441   0.99552   0.00000  Uiso   1.00
H79    H     0.56082   0.98905   0.23501   0.00000  Uiso   1.00
H80    H     0.53511   0.09614   0.85902   0.00000  Uiso   1.00
H81    H     0.08552   0.19516   0.00708   0.00000  Uiso   1.00
H82    H     0.71795   0.90973   0.51202   0.00000  Uiso   1.00
H83    H     0.66373   0.13556   0.71917   0.00000  Uiso   1.00
O84    O     0.11810   0.27541   0.19800   0.00000  Uiso   1.00
O85    O     0.94784   0.90093   0.86045   0.00000  Uiso   1.00
O86    O     0.87670   0.19722   0.82025   0.00000  Uiso   1.00
N87    N     0.35551   0.25595   0.34007   0.00000  Uiso   1.00
N88    N     0.94678   0.98908   0.81217   0.00000  Uiso   1.00
N89    N     0.89612   0.20020   0.07094   0.00000  Uiso   1.00
N90    N     0.18497   0.20819   0.11036   0.00000  Uiso   1.00
N91    N     0.77624   0.94132   0.58245   0.00000  Uiso   1.00
N92    N     0.72558   0.15244   0.84123   0.00000  Uiso   1.00
C93    C     0.74777   0.34736   0.92789   0.00000  Uiso   1.00
C94    C     0.59799   0.33056   0.84753   0.00000  Uiso   1.00
C95    C     0.56705   0.28983   0.90794   0.00000  Uiso   1.00
C96    C     0.42314   0.28067   0.81633   0.00000  Uiso   1.00
C97    C     0.20714   0.24996   0.71393   0.00000  Uiso   1.00
C98    C     0.76093   0.40411   0.97766   0.00000  Uiso   1.00
C99    C     0.86701   0.42522   0.14747   0.00000  Uiso   1.00
C100   C     0.86028   0.47798   0.16538   0.00000  Uiso   1.00
C101   C     0.89732   0.56145   0.26497   0.00000  Uiso   1.00
C102   C     0.74696   0.34591   0.77337   0.00000  Uiso   1.00
C103   C     0.84131   0.31811   0.77143   0.00000  Uiso   1.00
C104   C     0.82283   0.32189   0.61735   0.00000  Uiso   1.00
C105   C     0.83817   0.31501   0.39975   0.00000  Uiso   1.00
C106   C     0.54722   0.40353   0.65775   0.00000  Uiso   1.00
C107   C     0.48906   0.36107   0.70081   0.00000  Uiso   1.00
C108   C     0.34516   0.35197   0.60906   0.00000  Uiso   1.00
C109   C     0.31402   0.31123   0.66932   0.00000  Uiso   1.00
C110   C     0.65201   0.43461   0.83094   0.00000  Uiso   1.00
C111   C     0.64513   0.48736   0.84859   0.00000  Uiso   1.00
C112   C     0.75116   0.50854   0.01838   0.00000  Uiso   1.00
C113   C     0.63803   0.37642   0.62663   0.00000  Uiso   1.00
C114   C     0.61941   0.38025   0.47254   0.00000  Uiso   1.00
C115   C     0.71371   0.35245   0.47035   0.00000  Uiso   1.00
H116   H     0.83258   0.32361   0.04213   0.00000  Uiso   1.00
H117   H     0.65138   0.26623   0.02151   0.00000  Uiso   1.00
H118   H     0.95130   0.40160   0.26099   0.00000  Uiso   1.00
H119   H     0.92559   0.29450   0.88500   0.00000  Uiso   1.00
H120   H     0.40245   0.21608   0.93399   0.00000  Uiso   1.00
H121   H     0.03487   0.50151   0.43892   0.00000  Uiso   1.00
H122   H     0.98066   0.27568   0.64608   0.00000  Uiso   1.00
H123   H     0.46242   0.42728   0.54351   0.00000  Uiso   1.00
H124   H     0.26089   0.37559   0.49552   0.00000  Uiso   1.00
H125   H     0.56082   0.51095   0.73501   0.00000  Uiso   1.00
H126   H     0.53511   0.40386   0.35902   0.00000  Uiso   1.00
H127   H     0.08552   0.30484   0.50708   0.00000  Uiso   1.00
H128   H     0.71795   0.59027   0.01202   0.00000  Uiso   1.00
H129   H     0.66373   0.36444   0.21917   0.00000  Uiso   1.00
O130   O     0.11810   0.22459   0.69800   0.00000  Uiso   1.00
O131   O     0.94784   0.59907   0.36045   0.00000  Uiso   1.00
O132   O     0.87670   0.30278   0.32025   0.00000  Uiso   1.00
N133   N     0.35551   0.24405   0.84007   0.00000  Uiso   1.00
N134   N     0.94678   0.51092   0.31217   0.00000  Uiso   1.00
N135   N     0.89612   0.29980   0.57094   0.00000  Uiso   1.00
N136   N     0.18497   0.29181   0.61036   0.00000  Uiso   1.00
N137   N     0.77624   0.55868   0.08245   0.00000  Uiso   1.00
N138   N     0.72558   0.34756   0.34123   0.00000  Uiso   1.00
C139   C     0.25223   0.84736   0.57211   0.00000  Uiso   1.00
C140   C     0.40201   0.83056   0.65247   0.00000  Uiso   1.00
C141   C     0.43295   0.78983   0.59206   0.00000  Uiso   1.00
C142   C     0.57686   0.78067   0.68367   0.00000  Uiso   1.00
C143   C     0.79286   0.74996   0.78607   0.00000  Uiso   1.00
C144   C     0.23907   0.90411   0.52234   0.00000  Uiso   1.00
C145   C     0.13299   0.92522   0.35253   0.00000  Uiso   1.00
C146   C     0.13972   0.97798   0.33462   0.00000  Uiso   1.00
C147   C     0.10268   0.06145   0.23503   0.00000  Uiso   1.00
C148   C     0.25304   0.84591   0.72663   0.00000  Uiso   1.00
C149   C     0.15869   0.81811   0.72857   0.00000  Uiso   1.00
C150   C     0.17717   0.82189   0.88265   0.00000  Uiso   1.00
C151   C     0.16183   0.81501   0.10025   0.00000  Uiso   1.00
C152   C     0.45278   0.90353   0.84225   0.00000  Uiso   1.00
C153   C     0.51094   0.86107   0.79919   0.00000  Uiso   1.00
C154   C     0.65484   0.85197   0.89094   0.00000  Uiso   1.00
C155   C     0.68598   0.81123   0.83068   0.00000  Uiso   1.00
C156   C     0.34799   0.93461   0.66906   0.00000  Uiso   1.00
C157   C     0.35487   0.98736   0.65141   0.00000  Uiso   1.00
C158   C     0.24884   0.00854   0.48162   0.00000  Uiso   1.00
C159   C     0.36197   0.87642   0.87337   0.00000  Uiso   1.00
C160   C     0.38059   0.88025   0.02746   0.00000  Uiso   1.00
C161   C     0.28629   0.85245   0.02965   0.00000  Uiso   1.00
H162   H     0.16742   0.82361   0.45787   0.00000  Uiso   1.00
H163   H     0.34862   0.76623   0.47849   0.00000  Uiso   1.00
H164   H     0.04870   0.90160   0.23901   0.00000  Uiso   1.00
H165   H     0.07441   0.79450   0.61500   0.00000  Uiso   1.00
H166   H     0.59755   0.71608   0.56601   0.00000  Uiso   1.00
H167   H     0.96513   0.00151   0.06108   0.00000  Uiso   1.00
H168   H     0.01934   0.77568   0.85392   0.00000  Uiso   1.00
H169   H     0.53758   0.92728   0.95649   0.00000  Uiso   1.00
H170   H     0.73911   0.87559   0.00448   0.00000  Uiso   1.00
H171   H     0.43918   0.01095   0.76499   0.00000  Uiso   1.00
H172   H     0.46489   0.90386   0.14098   0.00000  Uiso   1.00
H173   H     0.91448   0.80484   0.99292   0.00000  Uiso   1.00
H174   H     0.28205   0.09027   0.48798   0.00000  Uiso   1.00
H175   H     0.33627   0.86444   0.28083   0.00000  Uiso   1.00
O176   O     0.88190   0.72459   0.80200   0.00000  Uiso   1.00
O177   O     0.05216   0.09907   0.13955   0.00000  Uiso   1.00
O178   O     0.12330   0.80278   0.17975   0.00000  Uiso   1.00
N179   N     0.64449   0.74405   0.65993   0.00000  Uiso   1.00
N180   N     0.05322   0.01092   0.18783   0.00000  Uiso   1.00
N181   N     0.10388   0.79980   0.92906   0.00000  Uiso   1.00
N182   N     0.81503   0.79181   0.88964   0.00000  Uiso   1.00
N183   N     0.22376   0.05868   0.41755   0.00000  Uiso   1.00
N184   N     0.27442   0.84756   0.15877   0.00000  Uiso   1.00
