data_job_05566
_audit_creation_date              2018-12-19
_audit_creation_method            'Materials Studio'
_symmetry_space_group_name_H-M    'P1'
_symmetry_Int_Tables_number       1
_symmetry_cell_setting            triclinic
loop_
_symmetry_equiv_pos_as_xyz
  x,y,z
_cell_length_a                    12.3817
_cell_length_b                    12.3811
_cell_length_c                    46.6988
_cell_angle_alpha                 90.0081
_cell_angle_beta                  89.9960
_cell_angle_gamma                 119.9980
loop_
_atom_site_label
_atom_site_type_symbol
_atom_site_fract_x
_atom_site_fract_y
_atom_site_fract_z
_atom_site_U_iso_or_equiv
_atom_site_adp_type
_atom_site_occupancy
C1     C     0.43920   0.65220   0.41385   0.00000  Uiso   1.00
C2     C     0.53060   0.78360   0.42432   0.00000  Uiso   1.00
C3     C     0.55133   0.89361   0.41157   0.00000  Uiso   1.00
C4     C     0.63882   0.00433   0.42442   0.00000  Uiso   1.00
C5     C     0.77100   0.20829   0.43691   0.00000  Uiso   1.00
C6     C     0.51576   0.58803   0.40942   0.00000  Uiso   1.00
C7     C     0.52399   0.53359   0.38414   0.00000  Uiso   1.00
C8     C     0.59897   0.47967   0.38445   0.00000  Uiso   1.00
C9     C     0.70803   0.37992   0.37381   0.00000  Uiso   1.00
C10    C     0.35246   0.58564   0.43898   0.00000  Uiso   1.00
C11    C     0.22338   0.52916   0.43857   0.00000  Uiso   1.00
C12    C     0.16087   0.47319   0.46377   0.00000  Uiso   1.00
C13    C     0.01639   0.36974   0.49903   0.00000  Uiso   1.00
C14    C     0.55771   0.65320   0.45934   0.00000  Uiso   1.00
C15    C     0.59497   0.78415   0.44902   0.00000  Uiso   1.00
C16    C     0.68245   0.89473   0.46190   0.00000  Uiso   1.00
C17    C     0.70330   0.00488   0.44917   0.00000  Uiso   1.00
C18    C     0.58013   0.58858   0.43412   0.00000  Uiso   1.00
C19    C     0.65511   0.53471   0.43447   0.00000  Uiso   1.00
C20    C     0.66346   0.48021   0.40920   0.00000  Uiso   1.00
C21    C     0.41683   0.58619   0.46369   0.00000  Uiso   1.00
C22    C     0.35450   0.53029   0.48889   0.00000  Uiso   1.00
C23    C     0.22536   0.47374   0.48852   0.00000  Uiso   1.00
H24    H     0.38909   0.65176   0.39461   0.00000  Uiso   1.00
H25    H     0.50151   0.89315   0.39245   0.00000  Uiso   1.00
H26    H     0.47416   0.53318   0.36503   0.00000  Uiso   1.00
H27    H     0.17360   0.52876   0.41944   0.00000  Uiso   1.00
H28    H     0.65456   0.16101   0.40094   0.00000  Uiso   1.00
H29    H     0.59686   0.40195   0.34312   0.00000  Uiso   1.00
H30    H     0.96308   0.39262   0.45787   0.00000  Uiso   1.00
H31    H     0.60782   0.65363   0.47857   0.00000  Uiso   1.00
H32    H     0.73225   0.89512   0.48102   0.00000  Uiso   1.00
H33    H     0.70490   0.53515   0.45359   0.00000  Uiso   1.00
H34    H     0.40434   0.53073   0.50801   0.00000  Uiso   1.00
H35    H     0.84185   0.16261   0.47282   0.00000  Uiso   1.00
H36    H     0.78414   0.40355   0.41501   0.00000  Uiso   1.00
H37    H     0.15036   0.39423   0.52975   0.00000  Uiso   1.00
O38    O     0.82614   0.32063   0.43697   0.00000  Uiso   1.00
O39    O     0.75041   0.32476   0.36112   0.00000  Uiso   1.00
O40    O     0.91891   0.31253   0.51166   0.00000  Uiso   1.00
N41    N     0.68155   0.12824   0.41752   0.00000  Uiso   1.00
N42    N     0.62762   0.41859   0.36347   0.00000  Uiso   1.00
N43    N     0.03508   0.40984   0.47074   0.00000  Uiso   1.00
N44    N     0.78232   0.12910   0.45620   0.00000  Uiso   1.00
N45    N     0.72839   0.41945   0.40215   0.00000  Uiso   1.00
N46    N     0.13585   0.41070   0.50943   0.00000  Uiso   1.00
C47    C     0.32852   0.79355   0.08052   0.00000  Uiso   1.00
C48    C     0.19713   0.75355   0.09099   0.00000  Uiso   1.00
C49    C     0.08712   0.66428   0.07824   0.00000  Uiso   1.00
C50    C     0.97641   0.64105   0.09109   0.00000  Uiso   1.00
C51    C     0.77247   0.56927   0.10358   0.00000  Uiso   1.00
C52    C     0.39267   0.93428   0.07609   0.00000  Uiso   1.00
C53    C     0.44710   0.99694   0.05082   0.00000  Uiso   1.00
C54    C     0.50101   0.12585   0.05114   0.00000  Uiso   1.00
C55    C     0.60074   0.33466   0.04051   0.00000  Uiso   1.00
C56    C     0.39509   0.77337   0.10565   0.00000  Uiso   1.00
C57    C     0.45158   0.70077   0.10523   0.00000  Uiso   1.00
C58    C     0.50756   0.69423   0.13043   0.00000  Uiso   1.00
C59    C     0.61103   0.65321   0.16569   0.00000  Uiso   1.00
C60    C     0.32752   0.91106   0.12601   0.00000  Uiso   1.00
C61    C     0.19659   0.81738   0.11570   0.00000  Uiso   1.00
C62    C     0.08601   0.79428   0.12857   0.00000  Uiso   1.00
C63    C     0.97586   0.70498   0.11585   0.00000  Uiso   1.00
C64    C     0.39213   0.99810   0.10080   0.00000  Uiso   1.00
C65    C     0.44599   0.12695   0.10116   0.00000  Uiso   1.00
C66    C     0.50047   0.18980   0.07589   0.00000  Uiso   1.00
C67    C     0.39454   0.83719   0.13036   0.00000  Uiso   1.00
C68    C     0.45046   0.83078   0.15556   0.00000  Uiso   1.00
C69    C     0.50701   0.75818   0.15518   0.00000  Uiso   1.00
H70    H     0.32895   0.74387   0.06128   0.00000  Uiso   1.00
H71    H     0.08758   0.61491   0.05911   0.00000  Uiso   1.00
H72    H     0.44751   0.94753   0.03171   0.00000  Uiso   1.00
H73    H     0.45198   0.65140   0.08610   0.00000  Uiso   1.00
H74    H     0.81974   0.50011   0.06760   0.00000  Uiso   1.00
H75    H     0.57870   0.20146   0.00981   0.00000  Uiso   1.00
H76    H     0.58814   0.57701   0.12452   0.00000  Uiso   1.00
H77    H     0.32710   0.96076   0.14525   0.00000  Uiso   1.00
H78    H     0.08562   0.84369   0.14770   0.00000  Uiso   1.00
H79    H     0.44555   0.17631   0.12029   0.00000  Uiso   1.00
H80    H     0.45002   0.88018   0.17468   0.00000  Uiso   1.00
H81    H     0.81815   0.68580   0.13950   0.00000  Uiso   1.00
H82    H     0.57712   0.38715   0.08171   0.00000  Uiso   1.00
H83    H     0.58654   0.76270   0.19642   0.00000  Uiso   1.00
O84    O     0.66012   0.51206   0.10364   0.00000  Uiso   1.00
O85    O     0.65588   0.43220   0.02782   0.00000  Uiso   1.00
O86    O     0.66824   0.61294   0.17831   0.00000  Uiso   1.00
N87    N     0.85250   0.55986   0.08419   0.00000  Uiso   1.00
N88    N     0.56207   0.21558   0.03016   0.00000  Uiso   1.00
N89    N     0.57092   0.63180   0.13740   0.00000  Uiso   1.00
N90    N     0.85165   0.65978   0.12288   0.00000  Uiso   1.00
N91    N     0.56122   0.31549   0.06885   0.00000  Uiso   1.00
N92    N     0.57006   0.73171   0.17609   0.00000  Uiso   1.00
C93    C     0.18714   0.54127   0.74717   0.00000  Uiso   1.00
C94    C     0.22715   0.44988   0.75763   0.00000  Uiso   1.00
C95    C     0.31643   0.42915   0.74489   0.00000  Uiso   1.00
C96    C     0.33967   0.34167   0.75773   0.00000  Uiso   1.00
C97    C     0.41145   0.20951   0.77022   0.00000  Uiso   1.00
C98    C     0.04643   0.46470   0.74274   0.00000  Uiso   1.00
C99    C     0.98377   0.45645   0.71746   0.00000  Uiso   1.00
C100   C     0.85486   0.38145   0.71777   0.00000  Uiso   1.00
C101   C     0.64607   0.27237   0.70714   0.00000  Uiso   1.00
C102   C     0.20731   0.62803   0.77230   0.00000  Uiso   1.00
C103   C     0.27989   0.75711   0.77189   0.00000  Uiso   1.00
C104   C     0.28641   0.81963   0.79709   0.00000  Uiso   1.00
C105   C     0.32741   0.96414   0.83236   0.00000  Uiso   1.00
C106   C     0.06963   0.42277   0.79266   0.00000  Uiso   1.00
C107   C     0.16332   0.38551   0.78234   0.00000  Uiso   1.00
C108   C     0.18643   0.29804   0.79521   0.00000  Uiso   1.00
C109   C     0.27573   0.27719   0.78249   0.00000  Uiso   1.00
C110   C     0.98260   0.40033   0.76744   0.00000  Uiso   1.00
C111   C     0.85376   0.32534   0.76779   0.00000  Uiso   1.00
C112   C     0.79092   0.31697   0.74252   0.00000  Uiso   1.00
C113   C     0.14348   0.56366   0.79701   0.00000  Uiso   1.00
C114   C     0.14989   0.62600   0.82222   0.00000  Uiso   1.00
C115   C     0.22247   0.75515   0.82184   0.00000  Uiso   1.00
H116   H     0.23682   0.59138   0.72793   0.00000  Uiso   1.00
H117   H     0.36580   0.47898   0.72576   0.00000  Uiso   1.00
H118   H     0.03318   0.50628   0.69835   0.00000  Uiso   1.00
H119   H     0.32926   0.80689   0.75276   0.00000  Uiso   1.00
H120   H     0.48061   0.32593   0.73425   0.00000  Uiso   1.00
H121   H     0.77927   0.38353   0.67645   0.00000  Uiso   1.00
H122   H     0.40362   0.01743   0.79119   0.00000  Uiso   1.00
H123   H     0.01994   0.37266   0.81189   0.00000  Uiso   1.00
H124   H     0.13702   0.24825   0.81433   0.00000  Uiso   1.00
H125   H     0.80440   0.27555   0.78691   0.00000  Uiso   1.00
H126   H     0.10048   0.57616   0.84133   0.00000  Uiso   1.00
H127   H     0.29492   0.13866   0.80614   0.00000  Uiso   1.00
H128   H     0.59358   0.19627   0.74833   0.00000  Uiso   1.00
H129   H     0.21793   0.83016   0.86308   0.00000  Uiso   1.00
O130   O     0.46867   0.15437   0.77028   0.00000  Uiso   1.00
O131   O     0.54854   0.22997   0.69444   0.00000  Uiso   1.00
O132   O     0.36767   0.06162   0.84498   0.00000  Uiso   1.00
N133   N     0.42086   0.29895   0.75084   0.00000  Uiso   1.00
N134   N     0.76515   0.35279   0.69679   0.00000  Uiso   1.00
N135   N     0.34883   0.94543   0.80407   0.00000  Uiso   1.00
N136   N     0.32094   0.19818   0.78952   0.00000  Uiso   1.00
N137   N     0.66523   0.25202   0.73547   0.00000  Uiso   1.00
N138   N     0.24892   0.84467   0.84275   0.00000  Uiso   1.00
C139   C     0.32898   0.56730   0.92025   0.00000  Uiso   1.00
C140   C     0.19758   0.47598   0.90977   0.00000  Uiso   1.00
C141   C     0.08758   0.45530   0.92251   0.00000  Uiso   1.00
C142   C     0.97687   0.36788   0.90965   0.00000  Uiso   1.00
C143   C     0.77293   0.23582   0.89714   0.00000  Uiso   1.00
C144   C     0.39305   0.49065   0.92468   0.00000  Uiso   1.00
C145   C     0.44740   0.48233   0.94995   0.00000  Uiso   1.00
C146   C     0.50125   0.40728   0.94963   0.00000  Uiso   1.00
C147   C     0.60085   0.29807   0.96026   0.00000  Uiso   1.00
C148   C     0.39562   0.65408   0.89513   0.00000  Uiso   1.00
C149   C     0.45218   0.78317   0.89556   0.00000  Uiso   1.00
C150   C     0.50822   0.84571   0.87037   0.00000  Uiso   1.00
C151   C     0.61182   0.99025   0.83512   0.00000  Uiso   1.00
C152   C     0.32798   0.44883   0.87475   0.00000  Uiso   1.00
C153   C     0.19705   0.41163   0.88505   0.00000  Uiso   1.00
C154   C     0.08647   0.32422   0.87217   0.00000  Uiso   1.00
C155   C     0.97632   0.30342   0.88489   0.00000  Uiso   1.00
C156   C     0.39251   0.42631   0.89996   0.00000  Uiso   1.00
C157   C     0.44630   0.35126   0.89961   0.00000  Uiso   1.00
C158   C     0.50071   0.34281   0.92488   0.00000  Uiso   1.00
C159   C     0.39508   0.58973   0.87041   0.00000  Uiso   1.00
C160   C     0.45106   0.65209   0.84522   0.00000  Uiso   1.00
C161   C     0.50768   0.78125   0.84561   0.00000  Uiso   1.00
H162   H     0.32941   0.61740   0.93949   0.00000  Uiso   1.00
H163   H     0.08804   0.50511   0.94164   0.00000  Uiso   1.00
H164   H     0.44782   0.53214   0.96907   0.00000  Uiso   1.00
H165   H     0.45258   0.83293   0.91469   0.00000  Uiso   1.00
H166   H     0.82019   0.35220   0.93312   0.00000  Uiso   1.00
H167   H     0.57885   0.40924   0.99097   0.00000  Uiso   1.00
H168   H     0.58889   0.04352   0.87629   0.00000  Uiso   1.00
H169   H     0.32756   0.39873   0.85551   0.00000  Uiso   1.00
H170   H     0.08608   0.27444   0.85304   0.00000  Uiso   1.00
H171   H     0.44587   0.30148   0.88048   0.00000  Uiso   1.00
H172   H     0.45063   0.60227   0.82610   0.00000  Uiso   1.00
H173   H     0.81861   0.16498   0.86122   0.00000  Uiso   1.00
H174   H     0.57727   0.22203   0.91906   0.00000  Uiso   1.00
H175   H     0.58731   0.85630   0.80439   0.00000  Uiso   1.00
O176   O     0.66058   0.18074   0.89707   0.00000  Uiso   1.00
O177   O     0.65593   0.25561   0.97296   0.00000  Uiso   1.00
O178   O     0.66910   0.08775   0.82251   0.00000  Uiso   1.00
N179   N     0.85296   0.32521   0.91653   0.00000  Uiso   1.00
N180   N     0.56224   0.37853   0.97062   0.00000  Uiso   1.00
N181   N     0.57166   0.97152   0.86341   0.00000  Uiso   1.00
N182   N     0.85211   0.22447   0.87784   0.00000  Uiso   1.00
N183   N     0.56139   0.27779   0.93192   0.00000  Uiso   1.00
N184   N     0.57081   0.87078   0.82472   0.00000  Uiso   1.00
C185   C     0.21259   0.65183   0.25360   0.00000  Uiso   1.00
C186   C     0.25267   0.78323   0.24312   0.00000  Uiso   1.00
C187   C     0.34200   0.89324   0.25586   0.00000  Uiso   1.00
C188   C     0.36530   0.00396   0.24300   0.00000  Uiso   1.00
C189   C     0.43719   0.20791   0.23049   0.00000  Uiso   1.00
C190   C     0.07188   0.58777   0.25803   0.00000  Uiso   1.00
C191   C     0.00921   0.53343   0.28331   0.00000  Uiso   1.00
C192   C     0.88032   0.47959   0.28300   0.00000  Uiso   1.00
C193   C     0.67153   0.38001   0.29364   0.00000  Uiso   1.00
C194   C     0.23271   0.58517   0.22848   0.00000  Uiso   1.00
C195   C     0.30523   0.52860   0.22890   0.00000  Uiso   1.00
C196   C     0.31171   0.47254   0.20371   0.00000  Uiso   1.00
C197   C     0.35263   0.36891   0.16846   0.00000  Uiso   1.00
C198   C     0.09512   0.65282   0.20811   0.00000  Uiso   1.00
C199   C     0.18886   0.78377   0.21841   0.00000  Uiso   1.00
C200   C     0.21203   0.89434   0.20553   0.00000  Uiso   1.00
C201   C     0.30138   0.00450   0.21825   0.00000  Uiso   1.00
C202   C     0.00808   0.58831   0.23332   0.00000  Uiso   1.00
C203   C     0.87924   0.53453   0.23298   0.00000  Uiso   1.00
C204   C     0.81639   0.48013   0.25824   0.00000  Uiso   1.00
C205   C     0.16890   0.58571   0.20377   0.00000  Uiso   1.00
C206   C     0.17527   0.52971   0.17857   0.00000  Uiso   1.00
C207   C     0.24779   0.47307   0.17895   0.00000  Uiso   1.00
H208   H     0.26226   0.65141   0.27284   0.00000  Uiso   1.00
H209   H     0.39135   0.89279   0.27499   0.00000  Uiso   1.00
H210   H     0.05862   0.53302   0.30243   0.00000  Uiso   1.00
H211   H     0.35459   0.52820   0.24803   0.00000  Uiso   1.00
H212   H     0.50630   0.16064   0.26647   0.00000  Uiso   1.00
H213   H     0.80470   0.40202   0.32433   0.00000  Uiso   1.00
H214   H     0.42883   0.39185   0.20962   0.00000  Uiso   1.00
H215   H     0.04544   0.65324   0.18887   0.00000  Uiso   1.00
H216   H     0.16264   0.89473   0.18640   0.00000  Uiso   1.00
H217   H     0.82990   0.53496   0.21385   0.00000  Uiso   1.00
H218   H     0.12588   0.53014   0.15945   0.00000  Uiso   1.00
H219   H     0.32067   0.16222   0.19458   0.00000  Uiso   1.00
H220   H     0.61906   0.40358   0.25244   0.00000  Uiso   1.00
H221   H     0.24319   0.39342   0.13773   0.00000  Uiso   1.00
O222   O     0.49446   0.32025   0.23042   0.00000  Uiso   1.00
O223   O     0.57400   0.32494   0.30633   0.00000  Uiso   1.00
O224   O     0.39283   0.31161   0.15584   0.00000  Uiso   1.00
N225   N     0.44655   0.12787   0.24989   0.00000  Uiso   1.00
N226   N     0.79060   0.41862   0.30398   0.00000  Uiso   1.00
N227   N     0.37407   0.40908   0.19674   0.00000  Uiso   1.00
N228   N     0.34666   0.12872   0.21120   0.00000  Uiso   1.00
N229   N     0.69071   0.41946   0.26530   0.00000  Uiso   1.00
N230   N     0.27418   0.40993   0.15806   0.00000  Uiso   1.00
C231   C     0.41329   0.76797   0.58692   0.00000  Uiso   1.00
C232   C     0.50462   0.72789   0.57644   0.00000  Uiso   1.00
C233   C     0.52531   0.63857   0.58918   0.00000  Uiso   1.00
C234   C     0.61273   0.61528   0.57632   0.00000  Uiso   1.00
C235   C     0.74480   0.54339   0.56381   0.00000  Uiso   1.00
C236   C     0.48992   0.90869   0.59135   0.00000  Uiso   1.00
C237   C     0.49824   0.97137   0.61663   0.00000  Uiso   1.00
C238   C     0.57328   0.10027   0.61632   0.00000  Uiso   1.00
C239   C     0.68246   0.30907   0.62696   0.00000  Uiso   1.00
C240   C     0.32652   0.74783   0.56180   0.00000  Uiso   1.00
C241   C     0.19744   0.67530   0.56222   0.00000  Uiso   1.00
C242   C     0.13490   0.66880   0.53703   0.00000  Uiso   1.00
C243   C     0.99038   0.62785   0.50178   0.00000  Uiso   1.00
C244   C     0.53176   0.88543   0.54143   0.00000  Uiso   1.00
C245   C     0.56897   0.79170   0.55173   0.00000  Uiso   1.00
C246   C     0.65638   0.76853   0.53884   0.00000  Uiso   1.00
C247   C     0.67719   0.67919   0.55156   0.00000  Uiso   1.00
C248   C     0.55427   0.97249   0.56664   0.00000  Uiso   1.00
C249   C     0.62931   0.10133   0.56630   0.00000  Uiso   1.00
C250   C     0.63774   0.16419   0.59157   0.00000  Uiso   1.00
C251   C     0.39087   0.81163   0.53709   0.00000  Uiso   1.00
C252   C     0.32852   0.80526   0.51189   0.00000  Uiso   1.00
C253   C     0.19937   0.73272   0.51228   0.00000  Uiso   1.00
H254   H     0.36319   0.71830   0.60616   0.00000  Uiso   1.00
H255   H     0.47550   0.58922   0.60830   0.00000  Uiso   1.00
H256   H     0.44842   0.92197   0.63575   0.00000  Uiso   1.00
H257   H     0.14768   0.62594   0.58135   0.00000  Uiso   1.00
H258   H     0.62842   0.47429   0.59979   0.00000  Uiso   1.00
H259   H     0.57129   0.17590   0.65766   0.00000  Uiso   1.00
H260   H     0.93711   0.55167   0.54294   0.00000  Uiso   1.00
H261   H     0.58186   0.93511   0.52219   0.00000  Uiso   1.00
H262   H     0.70616   0.81792   0.51972   0.00000  Uiso   1.00
H263   H     0.67909   0.15067   0.54717   0.00000  Uiso   1.00
H264   H     0.37834   0.85464   0.49277   0.00000  Uiso   1.00
H265   H     0.81564   0.65991   0.52789   0.00000  Uiso   1.00
H266   H     0.75851   0.36153   0.58576   0.00000  Uiso   1.00
H267   H     0.12433   0.73729   0.47105   0.00000  Uiso   1.00
O268   O     0.79988   0.48613   0.56374   0.00000  Uiso   1.00
O269   O     0.72491   0.40662   0.63966   0.00000  Uiso   1.00
O270   O     0.89289   0.58763   0.48916   0.00000  Uiso   1.00
N271   N     0.65540   0.53404   0.58320   0.00000  Uiso   1.00
N272   N     0.60201   0.19000   0.63731   0.00000  Uiso   1.00
N273   N     0.00910   0.60642   0.53006   0.00000  Uiso   1.00
N274   N     0.75614   0.63392   0.54451   0.00000  Uiso   1.00
N275   N     0.70275   0.28989   0.59862   0.00000  Uiso   1.00
N276   N     0.10984   0.70631   0.49138   0.00000  Uiso   1.00
