data_job_05216
_audit_creation_date              2018-12-19
_audit_creation_method            'Materials Studio'
_symmetry_space_group_name_H-M    'P1'
_symmetry_Int_Tables_number       1
_symmetry_cell_setting            triclinic
loop_
_symmetry_equiv_pos_as_xyz
  x,y,z
_cell_length_a                    30.6621
_cell_length_b                    13.0720
_cell_length_c                    13.3400
_cell_angle_alpha                 90.0000
_cell_angle_beta                  90.0000
_cell_angle_gamma                 90.0000
loop_
_atom_site_label
_atom_site_type_symbol
_atom_site_fract_x
_atom_site_fract_y
_atom_site_fract_z
_atom_site_U_iso_or_equiv
_atom_site_adp_type
_atom_site_occupancy
C1     C     0.88331   0.98024   0.11728   0.00000  Uiso   1.00
C2     C     0.89676   0.96164   0.22581   0.00000  Uiso   1.00
C3     C     0.93443   0.99802   0.27113   0.00000  Uiso   1.00
C4     C     0.94081   0.97259   0.37111   0.00000  Uiso   1.00
C5     C     0.96631   0.95274   0.53161   0.00000  Uiso   1.00
C6     C     0.87685   0.87470   0.07088   0.00000  Uiso   1.00
C7     C     0.89777   0.83800   0.98593   0.00000  Uiso   1.00
C8     C     0.88739   0.73940   0.95549   0.00000  Uiso   1.00
C9     C     0.88195   0.58461   0.87542   0.00000  Uiso   1.00
C10    C     0.83818   0.02908   0.12159   0.00000  Uiso   1.00
C11    C     0.82660   0.12217   0.07924   0.00000  Uiso   1.00
C12    C     0.78366   0.15352   0.09147   0.00000  Uiso   1.00
C13    C     0.71819   0.23843   0.09012   0.00000  Uiso   1.00
C14    C     0.82766   0.87038   0.21425   0.00000  Uiso   1.00
C15    C     0.86653   0.90196   0.27848   0.00000  Uiso   1.00
C16    C     0.87286   0.87647   0.37842   0.00000  Uiso   1.00
C17    C     0.91053   0.91282   0.42388   0.00000  Uiso   1.00
C18    C     0.84662   0.81503   0.12355   0.00000  Uiso   1.00
C19    C     0.83620   0.71646   0.09322   0.00000  Uiso   1.00
C20    C     0.85711   0.67962   0.00825   0.00000  Uiso   1.00
C21    C     0.80796   0.96941   0.17426   0.00000  Uiso   1.00
C22    C     0.76503   0.00062   0.18654   0.00000  Uiso   1.00
C23    C     0.75338   0.09374   0.14423   0.00000  Uiso   1.00
H24    H     0.90684   0.02669   0.07627   0.00000  Uiso   1.00
H25    H     0.95782   0.04419   0.23034   0.00000  Uiso   1.00
H26    H     0.92116   0.88420   0.94518   0.00000  Uiso   1.00
H27    H     0.85000   0.16832   0.03849   0.00000  Uiso   1.00
H28    H     0.00101   0.03725   0.42437   0.00000  Uiso   1.00
H29    H     0.92371   0.69992   0.82309   0.00000  Uiso   1.00
H30    H     0.77365   0.29904   0.01984   0.00000  Uiso   1.00
H31    H     0.80412   0.82392   0.25526   0.00000  Uiso   1.00
H32    H     0.84946   0.83029   0.41916   0.00000  Uiso   1.00
H33    H     0.81281   0.67030   0.13400   0.00000  Uiso   1.00
H34    H     0.74164   0.95442   0.22731   0.00000  Uiso   1.00
H35    H     0.91306   0.86363   0.57763   0.00000  Uiso   1.00
H36    H     0.83576   0.52631   0.97633   0.00000  Uiso   1.00
H37    H     0.68570   0.12543   0.17309   0.00000  Uiso   1.00
O38    O     0.98872   0.95826   0.60558   0.00000  Uiso   1.00
O39    O     0.88730   0.51572   0.81670   0.00000  Uiso   1.00
O40    O     0.69043   0.30175   0.07484   0.00000  Uiso   1.00
N41    N     0.97408   0.99553   0.43796   0.00000  Uiso   1.00
N42    N     0.90182   0.68014   0.87580   0.00000  Uiso   1.00
N43    N     0.76152   0.24026   0.05972   0.00000  Uiso   1.00
N44    N     0.92676   0.90211   0.52042   0.00000  Uiso   1.00
N45    N     0.85450   0.58672   0.95826   0.00000  Uiso   1.00
N46    N     0.71420   0.14684   0.14218   0.00000  Uiso   1.00
C47    C     0.09376   0.72314   0.88323   0.00000  Uiso   1.00
C48    C     0.08723   0.70343   0.77156   0.00000  Uiso   1.00
C49    C     0.05261   0.73855   0.71410   0.00000  Uiso   1.00
C50    C     0.05257   0.71225   0.61326   0.00000  Uiso   1.00
C51    C     0.03735   0.69061   0.44624   0.00000  Uiso   1.00
C52    C     0.09771   0.61811   0.93214   0.00000  Uiso   1.00
C53    C     0.07188   0.58151   0.00969   0.00000  Uiso   1.00
C54    C     0.08067   0.48338   0.04404   0.00000  Uiso   1.00
C55    C     0.08173   0.32932   0.12636   0.00000  Uiso   1.00
C56    C     0.13849   0.77306   0.89330   0.00000  Uiso   1.00
C57    C     0.14697   0.86673   0.93822   0.00000  Uiso   1.00
C58    C     0.19010   0.89906   0.93989   0.00000  Uiso   1.00
C59    C     0.25447   0.98558   0.96190   0.00000  Uiso   1.00
C60    C     0.15528   0.61396   0.80634   0.00000  Uiso   1.00
C61    C     0.12065   0.64412   0.72980   0.00000  Uiso   1.00
C62    C     0.12067   0.61776   0.62902   0.00000  Uiso   1.00
C63    C     0.08605   0.65284   0.57142   0.00000  Uiso   1.00
C64    C     0.13112   0.55881   0.89038   0.00000  Uiso   1.00
C65    C     0.13995   0.46072   0.92462   0.00000  Uiso   1.00
C66    C     0.11415   0.42397   0.00220   0.00000  Uiso   1.00
C67    C     0.17191   0.71376   0.85153   0.00000  Uiso   1.00
C68    C     0.21503   0.74594   0.85314   0.00000  Uiso   1.00
C69    C     0.22357   0.83965   0.89805   0.00000  Uiso   1.00
H70    H     0.06774   0.76930   0.91575   0.00000  Uiso   1.00
H71    H     0.02675   0.78443   0.74645   0.00000  Uiso   1.00
H72    H     0.04603   0.62742   0.04200   0.00000  Uiso   1.00
H73    H     0.12110   0.91260   0.97053   0.00000  Uiso   1.00
H74    H     0.99603   0.77503   0.54034   0.00000  Uiso   1.00
H75    H     0.03669   0.44396   0.16355   0.00000  Uiso   1.00
H76    H     0.19499   0.04533   0.01285   0.00000  Uiso   1.00
H77    H     0.18130   0.56779   0.77382   0.00000  Uiso   1.00
H78    H     0.14654   0.57187   0.59673   0.00000  Uiso   1.00
H79    H     0.16582   0.41485   0.89228   0.00000  Uiso   1.00
H80    H     0.24089   0.70003   0.82081   0.00000  Uiso   1.00
H81    H     0.09325   0.60250   0.41882   0.00000  Uiso   1.00
H82    H     0.13392   0.27144   0.04204   0.00000  Uiso   1.00
H83    H     0.29222   0.87280   0.89133   0.00000  Uiso   1.00
O84    O     0.01972   0.69505   0.36565   0.00000  Uiso   1.00
O85    O     0.07307   0.26072   0.18330   0.00000  Uiso   1.00
O86    O     0.28075   0.04969   0.98557   0.00000  Uiso   1.00
N87    N     0.02369   0.73388   0.53604   0.00000  Uiso   1.00
N88    N     0.06170   0.42435   0.11870   0.00000  Uiso   1.00
N89    N     0.20970   0.98656   0.97783   0.00000  Uiso   1.00
N90    N     0.07600   0.64105   0.47065   0.00000  Uiso   1.00
N91    N     0.11402   0.33151   0.05331   0.00000  Uiso   1.00
N92    N     0.26201   0.89373   0.91244   0.00000  Uiso   1.00
C93    C     0.11669   0.01976   0.61728   0.00000  Uiso   1.00
C94    C     0.10324   0.03836   0.72581   0.00000  Uiso   1.00
C95    C     0.06557   0.00198   0.77113   0.00000  Uiso   1.00
C96    C     0.05919   0.02741   0.87111   0.00000  Uiso   1.00
C97    C     0.03369   0.04726   0.03161   0.00000  Uiso   1.00
C98    C     0.12315   0.12530   0.57088   0.00000  Uiso   1.00
C99    C     0.10223   0.16200   0.48593   0.00000  Uiso   1.00
C100   C     0.11261   0.26060   0.45549   0.00000  Uiso   1.00
C101   C     0.11805   0.41539   0.37542   0.00000  Uiso   1.00
C102   C     0.16182   0.97092   0.62159   0.00000  Uiso   1.00
C103   C     0.17340   0.87783   0.57924   0.00000  Uiso   1.00
C104   C     0.21634   0.84648   0.59147   0.00000  Uiso   1.00
C105   C     0.28181   0.76157   0.59012   0.00000  Uiso   1.00
C106   C     0.17234   0.12962   0.71425   0.00000  Uiso   1.00
C107   C     0.13347   0.09804   0.77848   0.00000  Uiso   1.00
C108   C     0.12714   0.12353   0.87842   0.00000  Uiso   1.00
C109   C     0.08947   0.08718   0.92388   0.00000  Uiso   1.00
C110   C     0.15338   0.18497   0.62355   0.00000  Uiso   1.00
C111   C     0.16380   0.28354   0.59322   0.00000  Uiso   1.00
C112   C     0.14289   0.32038   0.50825   0.00000  Uiso   1.00
C113   C     0.19204   0.03059   0.67426   0.00000  Uiso   1.00
C114   C     0.23497   0.99938   0.68654   0.00000  Uiso   1.00
C115   C     0.24662   0.90626   0.64423   0.00000  Uiso   1.00
H116   H     0.09316   0.97331   0.57627   0.00000  Uiso   1.00
H117   H     0.04218   0.95581   0.73034   0.00000  Uiso   1.00
H118   H     0.07884   0.11580   0.44518   0.00000  Uiso   1.00
H119   H     0.15000   0.83168   0.53849   0.00000  Uiso   1.00
H120   H     0.99899   0.96275   0.92437   0.00000  Uiso   1.00
H121   H     0.07629   0.30008   0.32309   0.00000  Uiso   1.00
H122   H     0.22635   0.70096   0.51984   0.00000  Uiso   1.00
H123   H     0.19588   0.17608   0.75526   0.00000  Uiso   1.00
H124   H     0.15054   0.16971   0.91916   0.00000  Uiso   1.00
H125   H     0.18719   0.32970   0.63400   0.00000  Uiso   1.00
H126   H     0.25836   0.04558   0.72731   0.00000  Uiso   1.00
H127   H     0.08694   0.13637   0.07763   0.00000  Uiso   1.00
H128   H     0.16424   0.47369   0.47633   0.00000  Uiso   1.00
H129   H     0.31430   0.87457   0.67309   0.00000  Uiso   1.00
O130   O     0.01128   0.04174   0.10558   0.00000  Uiso   1.00
O131   O     0.11270   0.48428   0.31670   0.00000  Uiso   1.00
O132   O     0.30957   0.69825   0.57484   0.00000  Uiso   1.00
N133   N     0.02592   0.00447   0.93796   0.00000  Uiso   1.00
N134   N     0.09818   0.31986   0.37580   0.00000  Uiso   1.00
N135   N     0.23848   0.75974   0.55972   0.00000  Uiso   1.00
N136   N     0.07324   0.09789   0.02042   0.00000  Uiso   1.00
N137   N     0.14550   0.41328   0.45826   0.00000  Uiso   1.00
N138   N     0.28580   0.85316   0.64218   0.00000  Uiso   1.00
C139   C     0.90624   0.27686   0.38323   0.00000  Uiso   1.00
C140   C     0.91277   0.29657   0.27156   0.00000  Uiso   1.00
C141   C     0.94739   0.26145   0.21410   0.00000  Uiso   1.00
C142   C     0.94743   0.28775   0.11326   0.00000  Uiso   1.00
C143   C     0.96265   0.30939   0.94624   0.00000  Uiso   1.00
C144   C     0.90229   0.38189   0.43214   0.00000  Uiso   1.00
C145   C     0.92812   0.41849   0.50969   0.00000  Uiso   1.00
C146   C     0.91933   0.51662   0.54404   0.00000  Uiso   1.00
C147   C     0.91827   0.67068   0.62636   0.00000  Uiso   1.00
C148   C     0.86151   0.22694   0.39330   0.00000  Uiso   1.00
C149   C     0.85303   0.13327   0.43822   0.00000  Uiso   1.00
C150   C     0.80990   0.10094   0.43989   0.00000  Uiso   1.00
C151   C     0.74553   0.01442   0.46190   0.00000  Uiso   1.00
C152   C     0.84472   0.38604   0.30634   0.00000  Uiso   1.00
C153   C     0.87935   0.35588   0.22980   0.00000  Uiso   1.00
C154   C     0.87933   0.38224   0.12902   0.00000  Uiso   1.00
C155   C     0.91395   0.34716   0.07142   0.00000  Uiso   1.00
C156   C     0.86888   0.44119   0.39038   0.00000  Uiso   1.00
C157   C     0.86005   0.53928   0.42462   0.00000  Uiso   1.00
C158   C     0.88585   0.57603   0.50220   0.00000  Uiso   1.00
C159   C     0.82809   0.28624   0.35153   0.00000  Uiso   1.00
C160   C     0.78497   0.25406   0.35314   0.00000  Uiso   1.00
C161   C     0.77643   0.16035   0.39805   0.00000  Uiso   1.00
H162   H     0.93226   0.23070   0.41575   0.00000  Uiso   1.00
H163   H     0.97325   0.21557   0.24645   0.00000  Uiso   1.00
H164   H     0.95397   0.37258   0.54200   0.00000  Uiso   1.00
H165   H     0.87890   0.08740   0.47053   0.00000  Uiso   1.00
H166   H     0.00397   0.22497   0.04034   0.00000  Uiso   1.00
H167   H     0.96331   0.55604   0.66355   0.00000  Uiso   1.00
H168   H     0.80501   0.95467   0.51285   0.00000  Uiso   1.00
H169   H     0.81870   0.43221   0.27382   0.00000  Uiso   1.00
H170   H     0.85346   0.42813   0.09673   0.00000  Uiso   1.00
H171   H     0.83418   0.58515   0.39228   0.00000  Uiso   1.00
H172   H     0.75911   0.29997   0.32081   0.00000  Uiso   1.00
H173   H     0.90675   0.39750   0.91882   0.00000  Uiso   1.00
H174   H     0.86608   0.72856   0.54204   0.00000  Uiso   1.00
H175   H     0.70778   0.12720   0.39133   0.00000  Uiso   1.00
O176   O     0.98028   0.30495   0.86565   0.00000  Uiso   1.00
O177   O     0.92693   0.73928   0.68330   0.00000  Uiso   1.00
O178   O     0.71925   0.95031   0.48557   0.00000  Uiso   1.00
N179   N     0.97631   0.26612   0.03604   0.00000  Uiso   1.00
N180   N     0.93830   0.57565   0.61870   0.00000  Uiso   1.00
N181   N     0.79030   0.01344   0.47783   0.00000  Uiso   1.00
N182   N     0.92400   0.35895   0.97065   0.00000  Uiso   1.00
N183   N     0.88598   0.66849   0.55331   0.00000  Uiso   1.00
N184   N     0.73799   0.10627   0.41244   0.00000  Uiso   1.00
C185   C     0.38331   0.51976   0.11728   0.00000  Uiso   1.00
C186   C     0.39676   0.53836   0.22581   0.00000  Uiso   1.00
C187   C     0.43443   0.50198   0.27113   0.00000  Uiso   1.00
C188   C     0.44081   0.52741   0.37111   0.00000  Uiso   1.00
C189   C     0.46631   0.54726   0.53161   0.00000  Uiso   1.00
C190   C     0.37685   0.62530   0.07088   0.00000  Uiso   1.00
C191   C     0.39777   0.66200   0.98593   0.00000  Uiso   1.00
C192   C     0.38739   0.76060   0.95549   0.00000  Uiso   1.00
C193   C     0.38195   0.91539   0.87542   0.00000  Uiso   1.00
C194   C     0.33818   0.47092   0.12159   0.00000  Uiso   1.00
C195   C     0.32660   0.37783   0.07924   0.00000  Uiso   1.00
C196   C     0.28366   0.34648   0.09147   0.00000  Uiso   1.00
C197   C     0.21819   0.26157   0.09012   0.00000  Uiso   1.00
C198   C     0.32766   0.62962   0.21425   0.00000  Uiso   1.00
C199   C     0.36653   0.59804   0.27848   0.00000  Uiso   1.00
C200   C     0.37286   0.62353   0.37842   0.00000  Uiso   1.00
C201   C     0.41053   0.58718   0.42388   0.00000  Uiso   1.00
C202   C     0.34662   0.68497   0.12355   0.00000  Uiso   1.00
C203   C     0.33620   0.78354   0.09322   0.00000  Uiso   1.00
C204   C     0.35711   0.82038   0.00825   0.00000  Uiso   1.00
C205   C     0.30796   0.53059   0.17426   0.00000  Uiso   1.00
C206   C     0.26503   0.49938   0.18654   0.00000  Uiso   1.00
C207   C     0.25338   0.40626   0.14423   0.00000  Uiso   1.00
H208   H     0.40684   0.47331   0.07627   0.00000  Uiso   1.00
H209   H     0.45782   0.45581   0.23034   0.00000  Uiso   1.00
H210   H     0.42116   0.61580   0.94518   0.00000  Uiso   1.00
H211   H     0.35000   0.33168   0.03849   0.00000  Uiso   1.00
H212   H     0.50101   0.46275   0.42437   0.00000  Uiso   1.00
H213   H     0.42371   0.80008   0.82309   0.00000  Uiso   1.00
H214   H     0.27365   0.20096   0.01984   0.00000  Uiso   1.00
H215   H     0.30412   0.67608   0.25526   0.00000  Uiso   1.00
H216   H     0.34946   0.66971   0.41916   0.00000  Uiso   1.00
H217   H     0.31281   0.82970   0.13400   0.00000  Uiso   1.00
H218   H     0.24164   0.54558   0.22731   0.00000  Uiso   1.00
H219   H     0.41306   0.63637   0.57763   0.00000  Uiso   1.00
H220   H     0.33576   0.97369   0.97633   0.00000  Uiso   1.00
H221   H     0.18570   0.37457   0.17309   0.00000  Uiso   1.00
O222   O     0.48872   0.54174   0.60558   0.00000  Uiso   1.00
O223   O     0.38730   0.98428   0.81670   0.00000  Uiso   1.00
O224   O     0.19043   0.19825   0.07484   0.00000  Uiso   1.00
N225   N     0.47408   0.50447   0.43796   0.00000  Uiso   1.00
N226   N     0.40182   0.81986   0.87580   0.00000  Uiso   1.00
N227   N     0.26152   0.25974   0.05972   0.00000  Uiso   1.00
N228   N     0.42676   0.59789   0.52042   0.00000  Uiso   1.00
N229   N     0.35450   0.91328   0.95826   0.00000  Uiso   1.00
N230   N     0.21420   0.35316   0.14218   0.00000  Uiso   1.00
C231   C     0.59376   0.77686   0.88323   0.00000  Uiso   1.00
C232   C     0.58723   0.79657   0.77156   0.00000  Uiso   1.00
C233   C     0.55261   0.76145   0.71410   0.00000  Uiso   1.00
C234   C     0.55257   0.78775   0.61326   0.00000  Uiso   1.00
C235   C     0.53735   0.80939   0.44624   0.00000  Uiso   1.00
C236   C     0.59771   0.88189   0.93214   0.00000  Uiso   1.00
C237   C     0.57188   0.91849   0.00969   0.00000  Uiso   1.00
C238   C     0.58067   0.01662   0.04404   0.00000  Uiso   1.00
C239   C     0.58173   0.17068   0.12636   0.00000  Uiso   1.00
C240   C     0.63849   0.72694   0.89330   0.00000  Uiso   1.00
C241   C     0.64697   0.63327   0.93822   0.00000  Uiso   1.00
C242   C     0.69010   0.60094   0.93989   0.00000  Uiso   1.00
C243   C     0.75447   0.51442   0.96190   0.00000  Uiso   1.00
C244   C     0.65528   0.88604   0.80634   0.00000  Uiso   1.00
C245   C     0.62065   0.85588   0.72980   0.00000  Uiso   1.00
C246   C     0.62067   0.88224   0.62902   0.00000  Uiso   1.00
C247   C     0.58605   0.84716   0.57142   0.00000  Uiso   1.00
C248   C     0.63112   0.94119   0.89038   0.00000  Uiso   1.00
C249   C     0.63995   0.03928   0.92462   0.00000  Uiso   1.00
C250   C     0.61415   0.07603   0.00220   0.00000  Uiso   1.00
C251   C     0.67191   0.78624   0.85153   0.00000  Uiso   1.00
C252   C     0.71503   0.75406   0.85314   0.00000  Uiso   1.00
C253   C     0.72357   0.66035   0.89805   0.00000  Uiso   1.00
H254   H     0.56774   0.73070   0.91575   0.00000  Uiso   1.00
H255   H     0.52675   0.71557   0.74645   0.00000  Uiso   1.00
H256   H     0.54603   0.87258   0.04200   0.00000  Uiso   1.00
H257   H     0.62110   0.58740   0.97053   0.00000  Uiso   1.00
H258   H     0.49603   0.72497   0.54034   0.00000  Uiso   1.00
H259   H     0.53669   0.05604   0.16355   0.00000  Uiso   1.00
H260   H     0.69499   0.45467   0.01285   0.00000  Uiso   1.00
H261   H     0.68130   0.93221   0.77382   0.00000  Uiso   1.00
H262   H     0.64654   0.92813   0.59673   0.00000  Uiso   1.00
H263   H     0.66582   0.08515   0.89228   0.00000  Uiso   1.00
H264   H     0.74089   0.79997   0.82081   0.00000  Uiso   1.00
H265   H     0.59325   0.89750   0.41882   0.00000  Uiso   1.00
H266   H     0.63392   0.22856   0.04204   0.00000  Uiso   1.00
H267   H     0.79222   0.62720   0.89133   0.00000  Uiso   1.00
O268   O     0.51972   0.80495   0.36565   0.00000  Uiso   1.00
O269   O     0.57307   0.23928   0.18330   0.00000  Uiso   1.00
O270   O     0.78075   0.45031   0.98557   0.00000  Uiso   1.00
N271   N     0.52369   0.76612   0.53604   0.00000  Uiso   1.00
N272   N     0.56170   0.07565   0.11870   0.00000  Uiso   1.00
N273   N     0.70970   0.51344   0.97783   0.00000  Uiso   1.00
N274   N     0.57600   0.85895   0.47065   0.00000  Uiso   1.00
N275   N     0.61402   0.16849   0.05331   0.00000  Uiso   1.00
N276   N     0.76201   0.60627   0.91244   0.00000  Uiso   1.00
C277   C     0.61669   0.48024   0.61728   0.00000  Uiso   1.00
C278   C     0.60324   0.46164   0.72581   0.00000  Uiso   1.00
C279   C     0.56557   0.49802   0.77113   0.00000  Uiso   1.00
C280   C     0.55919   0.47259   0.87111   0.00000  Uiso   1.00
C281   C     0.53369   0.45274   0.03161   0.00000  Uiso   1.00
C282   C     0.62315   0.37470   0.57088   0.00000  Uiso   1.00
C283   C     0.60223   0.33800   0.48593   0.00000  Uiso   1.00
C284   C     0.61261   0.23940   0.45549   0.00000  Uiso   1.00
C285   C     0.61805   0.08461   0.37542   0.00000  Uiso   1.00
C286   C     0.66182   0.52908   0.62159   0.00000  Uiso   1.00
C287   C     0.67340   0.62217   0.57924   0.00000  Uiso   1.00
C288   C     0.71634   0.65352   0.59147   0.00000  Uiso   1.00
C289   C     0.78181   0.73843   0.59012   0.00000  Uiso   1.00
C290   C     0.67234   0.37038   0.71425   0.00000  Uiso   1.00
C291   C     0.63347   0.40196   0.77848   0.00000  Uiso   1.00
C292   C     0.62714   0.37647   0.87842   0.00000  Uiso   1.00
C293   C     0.58947   0.41282   0.92388   0.00000  Uiso   1.00
C294   C     0.65338   0.31503   0.62355   0.00000  Uiso   1.00
C295   C     0.66380   0.21646   0.59322   0.00000  Uiso   1.00
C296   C     0.64289   0.17962   0.50825   0.00000  Uiso   1.00
C297   C     0.69204   0.46941   0.67426   0.00000  Uiso   1.00
C298   C     0.73497   0.50062   0.68654   0.00000  Uiso   1.00
C299   C     0.74662   0.59374   0.64423   0.00000  Uiso   1.00
H300   H     0.59316   0.52669   0.57627   0.00000  Uiso   1.00
H301   H     0.54218   0.54419   0.73034   0.00000  Uiso   1.00
H302   H     0.57884   0.38420   0.44518   0.00000  Uiso   1.00
H303   H     0.65000   0.66832   0.53849   0.00000  Uiso   1.00
H304   H     0.49899   0.53725   0.92437   0.00000  Uiso   1.00
H305   H     0.57629   0.19992   0.32309   0.00000  Uiso   1.00
H306   H     0.72635   0.79904   0.51984   0.00000  Uiso   1.00
H307   H     0.69588   0.32392   0.75526   0.00000  Uiso   1.00
H308   H     0.65054   0.33029   0.91916   0.00000  Uiso   1.00
H309   H     0.68719   0.17030   0.63400   0.00000  Uiso   1.00
H310   H     0.75836   0.45442   0.72731   0.00000  Uiso   1.00
H311   H     0.58694   0.36363   0.07763   0.00000  Uiso   1.00
H312   H     0.66424   0.02631   0.47633   0.00000  Uiso   1.00
H313   H     0.81430   0.62543   0.67309   0.00000  Uiso   1.00
O314   O     0.51128   0.45826   0.10558   0.00000  Uiso   1.00
O315   O     0.61270   0.01572   0.31670   0.00000  Uiso   1.00
O316   O     0.80957   0.80175   0.57484   0.00000  Uiso   1.00
N317   N     0.52592   0.49553   0.93796   0.00000  Uiso   1.00
N318   N     0.59818   0.18014   0.37580   0.00000  Uiso   1.00
N319   N     0.73848   0.74026   0.55972   0.00000  Uiso   1.00
N320   N     0.57324   0.40211   0.02042   0.00000  Uiso   1.00
N321   N     0.64550   0.08672   0.45826   0.00000  Uiso   1.00
N322   N     0.78580   0.64684   0.64218   0.00000  Uiso   1.00
C323   C     0.40624   0.22314   0.38323   0.00000  Uiso   1.00
C324   C     0.41277   0.20343   0.27156   0.00000  Uiso   1.00
C325   C     0.44739   0.23855   0.21410   0.00000  Uiso   1.00
C326   C     0.44743   0.21225   0.11326   0.00000  Uiso   1.00
C327   C     0.46265   0.19061   0.94624   0.00000  Uiso   1.00
C328   C     0.40229   0.11811   0.43214   0.00000  Uiso   1.00
C329   C     0.42812   0.08151   0.50969   0.00000  Uiso   1.00
C330   C     0.41933   0.98338   0.54404   0.00000  Uiso   1.00
C331   C     0.41827   0.82932   0.62636   0.00000  Uiso   1.00
C332   C     0.36151   0.27306   0.39330   0.00000  Uiso   1.00
C333   C     0.35303   0.36673   0.43822   0.00000  Uiso   1.00
C334   C     0.30990   0.39906   0.43989   0.00000  Uiso   1.00
C335   C     0.24553   0.48558   0.46190   0.00000  Uiso   1.00
C336   C     0.34472   0.11396   0.30634   0.00000  Uiso   1.00
C337   C     0.37935   0.14412   0.22980   0.00000  Uiso   1.00
C338   C     0.37933   0.11776   0.12902   0.00000  Uiso   1.00
C339   C     0.41395   0.15284   0.07142   0.00000  Uiso   1.00
C340   C     0.36888   0.05881   0.39038   0.00000  Uiso   1.00
C341   C     0.36005   0.96072   0.42462   0.00000  Uiso   1.00
C342   C     0.38585   0.92397   0.50220   0.00000  Uiso   1.00
C343   C     0.32809   0.21376   0.35153   0.00000  Uiso   1.00
C344   C     0.28497   0.24594   0.35314   0.00000  Uiso   1.00
C345   C     0.27643   0.33965   0.39805   0.00000  Uiso   1.00
H346   H     0.43226   0.26930   0.41575   0.00000  Uiso   1.00
H347   H     0.47325   0.28443   0.24645   0.00000  Uiso   1.00
H348   H     0.45397   0.12742   0.54200   0.00000  Uiso   1.00
H349   H     0.37890   0.41260   0.47053   0.00000  Uiso   1.00
H350   H     0.50397   0.27503   0.04034   0.00000  Uiso   1.00
H351   H     0.46331   0.94396   0.66355   0.00000  Uiso   1.00
H352   H     0.30501   0.54533   0.51285   0.00000  Uiso   1.00
H353   H     0.31870   0.06779   0.27382   0.00000  Uiso   1.00
H354   H     0.35346   0.07187   0.09673   0.00000  Uiso   1.00
H355   H     0.33418   0.91485   0.39228   0.00000  Uiso   1.00
H356   H     0.25911   0.20003   0.32081   0.00000  Uiso   1.00
H357   H     0.40675   0.10250   0.91882   0.00000  Uiso   1.00
H358   H     0.36608   0.77144   0.54204   0.00000  Uiso   1.00
H359   H     0.20778   0.37280   0.39133   0.00000  Uiso   1.00
O360   O     0.48028   0.19505   0.86565   0.00000  Uiso   1.00
O361   O     0.42693   0.76072   0.68330   0.00000  Uiso   1.00
O362   O     0.21925   0.54969   0.48557   0.00000  Uiso   1.00
N363   N     0.47631   0.23388   0.03604   0.00000  Uiso   1.00
N364   N     0.43830   0.92435   0.61870   0.00000  Uiso   1.00
N365   N     0.29030   0.48656   0.47783   0.00000  Uiso   1.00
N366   N     0.42400   0.14105   0.97065   0.00000  Uiso   1.00
N367   N     0.38598   0.83151   0.55331   0.00000  Uiso   1.00
N368   N     0.23799   0.39373   0.41244   0.00000  Uiso   1.00
