data_job_03890
_audit_creation_date              2018-12-19
_audit_creation_method            'Materials Studio'
_symmetry_space_group_name_H-M    'P1'
_symmetry_Int_Tables_number       1
_symmetry_cell_setting            triclinic
loop_
_symmetry_equiv_pos_as_xyz
  x,y,z
_cell_length_a                    22.8819
_cell_length_b                    22.8819
_cell_length_c                    9.6620
_cell_angle_alpha                 90.0000
_cell_angle_beta                  90.0000
_cell_angle_gamma                 90.0000
loop_
_atom_site_label
_atom_site_type_symbol
_atom_site_fract_x
_atom_site_fract_y
_atom_site_fract_z
_atom_site_U_iso_or_equiv
_atom_site_adp_type
_atom_site_occupancy
C1     C     0.23450   0.71242   0.82573   0.00000  Uiso   1.00
C2     C     0.28039   0.68407   0.91840   0.00000  Uiso   1.00
C3     C     0.33776   0.70265   0.93381   0.00000  Uiso   1.00
C4     C     0.37288   0.67083   0.02353   0.00000  Uiso   1.00
C5     C     0.44742   0.63420   0.15648   0.00000  Uiso   1.00
C6     C     0.21277   0.66433   0.72934   0.00000  Uiso   1.00
C7     C     0.21327   0.66631   0.58578   0.00000  Uiso   1.00
C8     C     0.19146   0.61787   0.51635   0.00000  Uiso   1.00
C9     C     0.16098   0.55060   0.35578   0.00000  Uiso   1.00
C10    C     0.18317   0.72748   0.91985   0.00000  Uiso   1.00
C11    C     0.15877   0.78256   0.93645   0.00000  Uiso   1.00
C12    C     0.11203   0.78729   0.02740   0.00000  Uiso   1.00
C13    C     0.03559   0.81808   0.16262   0.00000  Uiso   1.00
C14    C     0.19486   0.62286   0.95768   0.00000  Uiso   1.00
C15    C     0.25886   0.63543   0.99007   0.00000  Uiso   1.00
C16    C     0.29390   0.60357   0.07981   0.00000  Uiso   1.00
C17    C     0.35131   0.62210   0.09534   0.00000  Uiso   1.00
C18    C     0.19124   0.61568   0.80101   0.00000  Uiso   1.00
C19    C     0.16942   0.56723   0.73178   0.00000  Uiso   1.00
C20    C     0.16989   0.56914   0.58816   0.00000  Uiso   1.00
C21    C     0.16164   0.67884   0.99153   0.00000  Uiso   1.00
C22    C     0.11492   0.68348   0.08245   0.00000  Uiso   1.00
C23    C     0.09046   0.73856   0.09920   0.00000  Uiso   1.00
H24    H     0.25126   0.75029   0.76992   0.00000  Uiso   1.00
H25    H     0.35440   0.74030   0.87831   0.00000  Uiso   1.00
H26    H     0.22993   0.70397   0.53034   0.00000  Uiso   1.00
H27    H     0.17544   0.82020   0.88097   0.00000  Uiso   1.00
H28    H     0.45927   0.70776   0.03006   0.00000  Uiso   1.00
H29    H     0.19679   0.63116   0.29635   0.00000  Uiso   1.00
H30    H     0.08189   0.87625   0.03570   0.00000  Uiso   1.00
H31    H     0.17810   0.58499   0.01349   0.00000  Uiso   1.00
H32    H     0.27723   0.56593   0.13526   0.00000  Uiso   1.00
H33    H     0.15276   0.52959   0.78728   0.00000  Uiso   1.00
H34    H     0.09827   0.64583   0.13790   0.00000  Uiso   1.00
H35    H     0.39664   0.56623   0.23860   0.00000  Uiso   1.00
H36    H     0.13415   0.48963   0.50488   0.00000  Uiso   1.00
H37    H     0.01926   0.73473   0.24424   0.00000  Uiso   1.00
O38    O     0.49449   0.62742   0.21000   0.00000  Uiso   1.00
O39    O     0.15012   0.52693   0.24740   0.00000  Uiso   1.00
O40    O     0.99938   0.84850   0.21742   0.00000  Uiso   1.00
N41    N     0.43092   0.67707   0.06245   0.00000  Uiso   1.00
N42    N     0.18553   0.60545   0.37647   0.00000  Uiso   1.00
N43    N     0.07810   0.83459   0.06767   0.00000  Uiso   1.00
N44    N     0.39722   0.60091   0.17466   0.00000  Uiso   1.00
N45    N     0.15182   0.52930   0.48869   0.00000  Uiso   1.00
N46    N     0.04439   0.75844   0.17989   0.00000  Uiso   1.00
C47    C     0.73450   0.21242   0.32573   0.00000  Uiso   1.00
C48    C     0.78039   0.18407   0.41840   0.00000  Uiso   1.00
C49    C     0.83776   0.20265   0.43381   0.00000  Uiso   1.00
C50    C     0.87288   0.17083   0.52353   0.00000  Uiso   1.00
C51    C     0.94742   0.13420   0.65648   0.00000  Uiso   1.00
C52    C     0.71277   0.16433   0.22934   0.00000  Uiso   1.00
C53    C     0.71327   0.16631   0.08578   0.00000  Uiso   1.00
C54    C     0.69146   0.11787   0.01635   0.00000  Uiso   1.00
C55    C     0.66098   0.05060   0.85578   0.00000  Uiso   1.00
C56    C     0.68317   0.22748   0.41985   0.00000  Uiso   1.00
C57    C     0.65877   0.28256   0.43645   0.00000  Uiso   1.00
C58    C     0.61203   0.28729   0.52740   0.00000  Uiso   1.00
C59    C     0.53559   0.31808   0.66262   0.00000  Uiso   1.00
C60    C     0.69486   0.12286   0.45768   0.00000  Uiso   1.00
C61    C     0.75886   0.13543   0.49007   0.00000  Uiso   1.00
C62    C     0.79390   0.10357   0.57981   0.00000  Uiso   1.00
C63    C     0.85131   0.12210   0.59534   0.00000  Uiso   1.00
C64    C     0.69124   0.11568   0.30101   0.00000  Uiso   1.00
C65    C     0.66942   0.06723   0.23178   0.00000  Uiso   1.00
C66    C     0.66989   0.06914   0.08816   0.00000  Uiso   1.00
C67    C     0.66164   0.17884   0.49153   0.00000  Uiso   1.00
C68    C     0.61492   0.18348   0.58245   0.00000  Uiso   1.00
C69    C     0.59046   0.23856   0.59920   0.00000  Uiso   1.00
H70    H     0.75126   0.25029   0.26992   0.00000  Uiso   1.00
H71    H     0.85440   0.24030   0.37831   0.00000  Uiso   1.00
H72    H     0.72993   0.20397   0.03034   0.00000  Uiso   1.00
H73    H     0.67544   0.32020   0.38097   0.00000  Uiso   1.00
H74    H     0.95927   0.20776   0.53006   0.00000  Uiso   1.00
H75    H     0.69679   0.13116   0.79635   0.00000  Uiso   1.00
H76    H     0.58189   0.37625   0.53570   0.00000  Uiso   1.00
H77    H     0.67810   0.08499   0.51349   0.00000  Uiso   1.00
H78    H     0.77723   0.06593   0.63526   0.00000  Uiso   1.00
H79    H     0.65276   0.02959   0.28728   0.00000  Uiso   1.00
H80    H     0.59827   0.14583   0.63790   0.00000  Uiso   1.00
H81    H     0.89664   0.06623   0.73860   0.00000  Uiso   1.00
H82    H     0.63415   0.98963   0.00488   0.00000  Uiso   1.00
H83    H     0.51926   0.23473   0.74424   0.00000  Uiso   1.00
O84    O     0.99449   0.12742   0.71000   0.00000  Uiso   1.00
O85    O     0.65012   0.02693   0.74740   0.00000  Uiso   1.00
O86    O     0.49938   0.34850   0.71742   0.00000  Uiso   1.00
N87    N     0.93092   0.17707   0.56245   0.00000  Uiso   1.00
N88    N     0.68553   0.10545   0.87647   0.00000  Uiso   1.00
N89    N     0.57810   0.33459   0.56767   0.00000  Uiso   1.00
N90    N     0.89722   0.10091   0.67466   0.00000  Uiso   1.00
N91    N     0.65182   0.02930   0.98869   0.00000  Uiso   1.00
N92    N     0.54439   0.25844   0.67989   0.00000  Uiso   1.00
C93    C     0.76550   0.28758   0.82573   0.00000  Uiso   1.00
C94    C     0.71961   0.31593   0.91840   0.00000  Uiso   1.00
C95    C     0.66224   0.29735   0.93381   0.00000  Uiso   1.00
C96    C     0.62712   0.32917   0.02353   0.00000  Uiso   1.00
C97    C     0.55258   0.36580   0.15648   0.00000  Uiso   1.00
C98    C     0.78723   0.33567   0.72934   0.00000  Uiso   1.00
C99    C     0.78673   0.33369   0.58578   0.00000  Uiso   1.00
C100   C     0.80854   0.38213   0.51635   0.00000  Uiso   1.00
C101   C     0.83902   0.44940   0.35578   0.00000  Uiso   1.00
C102   C     0.81683   0.27252   0.91985   0.00000  Uiso   1.00
C103   C     0.84123   0.21744   0.93645   0.00000  Uiso   1.00
C104   C     0.88797   0.21271   0.02740   0.00000  Uiso   1.00
C105   C     0.96441   0.18192   0.16262   0.00000  Uiso   1.00
C106   C     0.80514   0.37714   0.95768   0.00000  Uiso   1.00
C107   C     0.74114   0.36457   0.99007   0.00000  Uiso   1.00
C108   C     0.70610   0.39643   0.07981   0.00000  Uiso   1.00
C109   C     0.64869   0.37790   0.09534   0.00000  Uiso   1.00
C110   C     0.80876   0.38432   0.80101   0.00000  Uiso   1.00
C111   C     0.83058   0.43277   0.73178   0.00000  Uiso   1.00
C112   C     0.83011   0.43086   0.58816   0.00000  Uiso   1.00
C113   C     0.83836   0.32116   0.99153   0.00000  Uiso   1.00
C114   C     0.88508   0.31652   0.08245   0.00000  Uiso   1.00
C115   C     0.90954   0.26144   0.09920   0.00000  Uiso   1.00
H116   H     0.74874   0.24971   0.76992   0.00000  Uiso   1.00
H117   H     0.64560   0.25970   0.87831   0.00000  Uiso   1.00
H118   H     0.77007   0.29603   0.53034   0.00000  Uiso   1.00
H119   H     0.82456   0.17980   0.88097   0.00000  Uiso   1.00
H120   H     0.54073   0.29224   0.03006   0.00000  Uiso   1.00
H121   H     0.80321   0.36884   0.29635   0.00000  Uiso   1.00
H122   H     0.91811   0.12375   0.03570   0.00000  Uiso   1.00
H123   H     0.82190   0.41501   0.01349   0.00000  Uiso   1.00
H124   H     0.72277   0.43407   0.13526   0.00000  Uiso   1.00
H125   H     0.84724   0.47041   0.78728   0.00000  Uiso   1.00
H126   H     0.90173   0.35417   0.13790   0.00000  Uiso   1.00
H127   H     0.60336   0.43377   0.23860   0.00000  Uiso   1.00
H128   H     0.86585   0.51037   0.50488   0.00000  Uiso   1.00
H129   H     0.98074   0.26527   0.24424   0.00000  Uiso   1.00
O130   O     0.50551   0.37258   0.21000   0.00000  Uiso   1.00
O131   O     0.84988   0.47307   0.24740   0.00000  Uiso   1.00
O132   O     0.00062   0.15150   0.21742   0.00000  Uiso   1.00
N133   N     0.56908   0.32293   0.06245   0.00000  Uiso   1.00
N134   N     0.81447   0.39455   0.37647   0.00000  Uiso   1.00
N135   N     0.92190   0.16541   0.06767   0.00000  Uiso   1.00
N136   N     0.60278   0.39909   0.17466   0.00000  Uiso   1.00
N137   N     0.84818   0.47070   0.48869   0.00000  Uiso   1.00
N138   N     0.95561   0.24156   0.17989   0.00000  Uiso   1.00
C139   C     0.26550   0.78758   0.32573   0.00000  Uiso   1.00
C140   C     0.21961   0.81593   0.41840   0.00000  Uiso   1.00
C141   C     0.16224   0.79735   0.43381   0.00000  Uiso   1.00
C142   C     0.12712   0.82917   0.52353   0.00000  Uiso   1.00
C143   C     0.05258   0.86580   0.65648   0.00000  Uiso   1.00
C144   C     0.28723   0.83567   0.22934   0.00000  Uiso   1.00
C145   C     0.28673   0.83369   0.08578   0.00000  Uiso   1.00
C146   C     0.30854   0.88213   0.01635   0.00000  Uiso   1.00
C147   C     0.33902   0.94940   0.85578   0.00000  Uiso   1.00
C148   C     0.31683   0.77252   0.41985   0.00000  Uiso   1.00
C149   C     0.34123   0.71744   0.43645   0.00000  Uiso   1.00
C150   C     0.38797   0.71271   0.52740   0.00000  Uiso   1.00
C151   C     0.46441   0.68192   0.66262   0.00000  Uiso   1.00
C152   C     0.30514   0.87714   0.45768   0.00000  Uiso   1.00
C153   C     0.24114   0.86457   0.49007   0.00000  Uiso   1.00
C154   C     0.20610   0.89643   0.57981   0.00000  Uiso   1.00
C155   C     0.14869   0.87790   0.59534   0.00000  Uiso   1.00
C156   C     0.30876   0.88432   0.30101   0.00000  Uiso   1.00
C157   C     0.33058   0.93277   0.23178   0.00000  Uiso   1.00
C158   C     0.33011   0.93086   0.08816   0.00000  Uiso   1.00
C159   C     0.33836   0.82116   0.49153   0.00000  Uiso   1.00
C160   C     0.38508   0.81652   0.58245   0.00000  Uiso   1.00
C161   C     0.40954   0.76144   0.59920   0.00000  Uiso   1.00
H162   H     0.24874   0.74971   0.26992   0.00000  Uiso   1.00
H163   H     0.14560   0.75970   0.37831   0.00000  Uiso   1.00
H164   H     0.27007   0.79603   0.03034   0.00000  Uiso   1.00
H165   H     0.32456   0.67980   0.38097   0.00000  Uiso   1.00
H166   H     0.04073   0.79224   0.53006   0.00000  Uiso   1.00
H167   H     0.30321   0.86884   0.79635   0.00000  Uiso   1.00
H168   H     0.41811   0.62375   0.53570   0.00000  Uiso   1.00
H169   H     0.32190   0.91501   0.51349   0.00000  Uiso   1.00
H170   H     0.22277   0.93407   0.63526   0.00000  Uiso   1.00
H171   H     0.34724   0.97041   0.28728   0.00000  Uiso   1.00
H172   H     0.40173   0.85417   0.63790   0.00000  Uiso   1.00
H173   H     0.10336   0.93377   0.73860   0.00000  Uiso   1.00
H174   H     0.36585   0.01037   0.00488   0.00000  Uiso   1.00
H175   H     0.48074   0.76527   0.74424   0.00000  Uiso   1.00
O176   O     0.00551   0.87258   0.71000   0.00000  Uiso   1.00
O177   O     0.34988   0.97307   0.74740   0.00000  Uiso   1.00
O178   O     0.50062   0.65150   0.71742   0.00000  Uiso   1.00
N179   N     0.06908   0.82293   0.56245   0.00000  Uiso   1.00
N180   N     0.31447   0.89455   0.87647   0.00000  Uiso   1.00
N181   N     0.42190   0.66541   0.56767   0.00000  Uiso   1.00
N182   N     0.10278   0.89909   0.67466   0.00000  Uiso   1.00
N183   N     0.34818   0.97070   0.98869   0.00000  Uiso   1.00
N184   N     0.45561   0.74156   0.67989   0.00000  Uiso   1.00
C185   C     0.71242   0.76550   0.17427   0.00000  Uiso   1.00
C186   C     0.68407   0.71961   0.08160   0.00000  Uiso   1.00
C187   C     0.70265   0.66224   0.06619   0.00000  Uiso   1.00
C188   C     0.67083   0.62712   0.97647   0.00000  Uiso   1.00
C189   C     0.63420   0.55258   0.84352   0.00000  Uiso   1.00
C190   C     0.66433   0.78723   0.27066   0.00000  Uiso   1.00
C191   C     0.66631   0.78673   0.41422   0.00000  Uiso   1.00
C192   C     0.61787   0.80854   0.48365   0.00000  Uiso   1.00
C193   C     0.55060   0.83902   0.64422   0.00000  Uiso   1.00
C194   C     0.72748   0.81683   0.08015   0.00000  Uiso   1.00
C195   C     0.78256   0.84123   0.06355   0.00000  Uiso   1.00
C196   C     0.78729   0.88797   0.97260   0.00000  Uiso   1.00
C197   C     0.81808   0.96441   0.83738   0.00000  Uiso   1.00
C198   C     0.62286   0.80514   0.04232   0.00000  Uiso   1.00
C199   C     0.63543   0.74114   0.00993   0.00000  Uiso   1.00
C200   C     0.60357   0.70610   0.92019   0.00000  Uiso   1.00
C201   C     0.62210   0.64869   0.90466   0.00000  Uiso   1.00
C202   C     0.61568   0.80876   0.19899   0.00000  Uiso   1.00
C203   C     0.56723   0.83058   0.26822   0.00000  Uiso   1.00
C204   C     0.56914   0.83011   0.41184   0.00000  Uiso   1.00
C205   C     0.67884   0.83836   0.00847   0.00000  Uiso   1.00
C206   C     0.68348   0.88508   0.91755   0.00000  Uiso   1.00
C207   C     0.73856   0.90954   0.90080   0.00000  Uiso   1.00
H208   H     0.75029   0.74874   0.23008   0.00000  Uiso   1.00
H209   H     0.74030   0.64560   0.12169   0.00000  Uiso   1.00
H210   H     0.70397   0.77007   0.46966   0.00000  Uiso   1.00
H211   H     0.82020   0.82456   0.11903   0.00000  Uiso   1.00
H212   H     0.70776   0.54073   0.96994   0.00000  Uiso   1.00
H213   H     0.63116   0.80321   0.70365   0.00000  Uiso   1.00
H214   H     0.87625   0.91811   0.96430   0.00000  Uiso   1.00
H215   H     0.58499   0.82190   0.98651   0.00000  Uiso   1.00
H216   H     0.56593   0.72277   0.86474   0.00000  Uiso   1.00
H217   H     0.52959   0.84724   0.21272   0.00000  Uiso   1.00
H218   H     0.64583   0.90173   0.86210   0.00000  Uiso   1.00
H219   H     0.56623   0.60336   0.76140   0.00000  Uiso   1.00
H220   H     0.48963   0.86585   0.49512   0.00000  Uiso   1.00
H221   H     0.73473   0.98074   0.75576   0.00000  Uiso   1.00
O222   O     0.62742   0.50551   0.79000   0.00000  Uiso   1.00
O223   O     0.52693   0.84988   0.75260   0.00000  Uiso   1.00
O224   O     0.84850   0.00062   0.78258   0.00000  Uiso   1.00
N225   N     0.67707   0.56908   0.93755   0.00000  Uiso   1.00
N226   N     0.60545   0.81447   0.62353   0.00000  Uiso   1.00
N227   N     0.83459   0.92190   0.93233   0.00000  Uiso   1.00
N228   N     0.60091   0.60278   0.82534   0.00000  Uiso   1.00
N229   N     0.52930   0.84818   0.51131   0.00000  Uiso   1.00
N230   N     0.75844   0.95561   0.82011   0.00000  Uiso   1.00
C231   C     0.21242   0.26550   0.67427   0.00000  Uiso   1.00
C232   C     0.18407   0.21961   0.58160   0.00000  Uiso   1.00
C233   C     0.20265   0.16224   0.56619   0.00000  Uiso   1.00
C234   C     0.17083   0.12712   0.47647   0.00000  Uiso   1.00
C235   C     0.13420   0.05258   0.34352   0.00000  Uiso   1.00
C236   C     0.16433   0.28723   0.77066   0.00000  Uiso   1.00
C237   C     0.16631   0.28673   0.91422   0.00000  Uiso   1.00
C238   C     0.11787   0.30854   0.98365   0.00000  Uiso   1.00
C239   C     0.05060   0.33902   0.14422   0.00000  Uiso   1.00
C240   C     0.22748   0.31683   0.58015   0.00000  Uiso   1.00
C241   C     0.28256   0.34123   0.56355   0.00000  Uiso   1.00
C242   C     0.28729   0.38797   0.47260   0.00000  Uiso   1.00
C243   C     0.31808   0.46441   0.33738   0.00000  Uiso   1.00
C244   C     0.12286   0.30514   0.54232   0.00000  Uiso   1.00
C245   C     0.13543   0.24114   0.50993   0.00000  Uiso   1.00
C246   C     0.10357   0.20610   0.42019   0.00000  Uiso   1.00
C247   C     0.12210   0.14869   0.40466   0.00000  Uiso   1.00
C248   C     0.11568   0.30876   0.69899   0.00000  Uiso   1.00
C249   C     0.06723   0.33058   0.76822   0.00000  Uiso   1.00
C250   C     0.06914   0.33011   0.91184   0.00000  Uiso   1.00
C251   C     0.17884   0.33836   0.50847   0.00000  Uiso   1.00
C252   C     0.18348   0.38508   0.41755   0.00000  Uiso   1.00
C253   C     0.23856   0.40954   0.40080   0.00000  Uiso   1.00
H254   H     0.25029   0.24874   0.73008   0.00000  Uiso   1.00
H255   H     0.24030   0.14560   0.62169   0.00000  Uiso   1.00
H256   H     0.20397   0.27007   0.96966   0.00000  Uiso   1.00
H257   H     0.32020   0.32456   0.61903   0.00000  Uiso   1.00
H258   H     0.20776   0.04073   0.46994   0.00000  Uiso   1.00
H259   H     0.13116   0.30321   0.20365   0.00000  Uiso   1.00
H260   H     0.37625   0.41811   0.46430   0.00000  Uiso   1.00
H261   H     0.08499   0.32190   0.48651   0.00000  Uiso   1.00
H262   H     0.06593   0.22277   0.36474   0.00000  Uiso   1.00
H263   H     0.02959   0.34724   0.71272   0.00000  Uiso   1.00
H264   H     0.14583   0.40173   0.36210   0.00000  Uiso   1.00
H265   H     0.06623   0.10336   0.26140   0.00000  Uiso   1.00
H266   H     0.98963   0.36585   0.99512   0.00000  Uiso   1.00
H267   H     0.23473   0.48074   0.25576   0.00000  Uiso   1.00
O268   O     0.12742   0.00551   0.29000   0.00000  Uiso   1.00
O269   O     0.02693   0.34988   0.25260   0.00000  Uiso   1.00
O270   O     0.34850   0.50062   0.28258   0.00000  Uiso   1.00
N271   N     0.17707   0.06908   0.43755   0.00000  Uiso   1.00
N272   N     0.10545   0.31447   0.12353   0.00000  Uiso   1.00
N273   N     0.33459   0.42190   0.43233   0.00000  Uiso   1.00
N274   N     0.10091   0.10278   0.32534   0.00000  Uiso   1.00
N275   N     0.02930   0.34818   0.01131   0.00000  Uiso   1.00
N276   N     0.25844   0.45561   0.32011   0.00000  Uiso   1.00
C277   C     0.28758   0.23450   0.17427   0.00000  Uiso   1.00
C278   C     0.31593   0.28039   0.08160   0.00000  Uiso   1.00
C279   C     0.29735   0.33776   0.06619   0.00000  Uiso   1.00
C280   C     0.32917   0.37288   0.97647   0.00000  Uiso   1.00
C281   C     0.36580   0.44742   0.84352   0.00000  Uiso   1.00
C282   C     0.33567   0.21277   0.27066   0.00000  Uiso   1.00
C283   C     0.33369   0.21327   0.41422   0.00000  Uiso   1.00
C284   C     0.38213   0.19146   0.48365   0.00000  Uiso   1.00
C285   C     0.44940   0.16098   0.64422   0.00000  Uiso   1.00
C286   C     0.27252   0.18317   0.08015   0.00000  Uiso   1.00
C287   C     0.21744   0.15877   0.06355   0.00000  Uiso   1.00
C288   C     0.21271   0.11203   0.97260   0.00000  Uiso   1.00
C289   C     0.18192   0.03559   0.83738   0.00000  Uiso   1.00
C290   C     0.37714   0.19486   0.04232   0.00000  Uiso   1.00
C291   C     0.36457   0.25886   0.00993   0.00000  Uiso   1.00
C292   C     0.39643   0.29390   0.92019   0.00000  Uiso   1.00
C293   C     0.37790   0.35131   0.90466   0.00000  Uiso   1.00
C294   C     0.38432   0.19124   0.19899   0.00000  Uiso   1.00
C295   C     0.43277   0.16942   0.26822   0.00000  Uiso   1.00
C296   C     0.43086   0.16989   0.41184   0.00000  Uiso   1.00
C297   C     0.32116   0.16164   0.00847   0.00000  Uiso   1.00
C298   C     0.31652   0.11492   0.91755   0.00000  Uiso   1.00
C299   C     0.26144   0.09046   0.90080   0.00000  Uiso   1.00
H300   H     0.24971   0.25126   0.23008   0.00000  Uiso   1.00
H301   H     0.25970   0.35440   0.12169   0.00000  Uiso   1.00
H302   H     0.29603   0.22993   0.46966   0.00000  Uiso   1.00
H303   H     0.17980   0.17544   0.11903   0.00000  Uiso   1.00
H304   H     0.29224   0.45927   0.96994   0.00000  Uiso   1.00
H305   H     0.36884   0.19679   0.70365   0.00000  Uiso   1.00
H306   H     0.12375   0.08189   0.96430   0.00000  Uiso   1.00
H307   H     0.41501   0.17810   0.98651   0.00000  Uiso   1.00
H308   H     0.43407   0.27723   0.86474   0.00000  Uiso   1.00
H309   H     0.47041   0.15276   0.21272   0.00000  Uiso   1.00
H310   H     0.35417   0.09827   0.86210   0.00000  Uiso   1.00
H311   H     0.43377   0.39664   0.76140   0.00000  Uiso   1.00
H312   H     0.51037   0.13415   0.49512   0.00000  Uiso   1.00
H313   H     0.26527   0.01926   0.75576   0.00000  Uiso   1.00
O314   O     0.37258   0.49449   0.79000   0.00000  Uiso   1.00
O315   O     0.47307   0.15012   0.75260   0.00000  Uiso   1.00
O316   O     0.15150   0.99938   0.78258   0.00000  Uiso   1.00
N317   N     0.32293   0.43092   0.93755   0.00000  Uiso   1.00
N318   N     0.39455   0.18553   0.62353   0.00000  Uiso   1.00
N319   N     0.16541   0.07810   0.93233   0.00000  Uiso   1.00
N320   N     0.39909   0.39722   0.82534   0.00000  Uiso   1.00
N321   N     0.47070   0.15182   0.51131   0.00000  Uiso   1.00
N322   N     0.24156   0.04439   0.82011   0.00000  Uiso   1.00
C323   C     0.78758   0.73450   0.67427   0.00000  Uiso   1.00
C324   C     0.81593   0.78039   0.58160   0.00000  Uiso   1.00
C325   C     0.79735   0.83776   0.56619   0.00000  Uiso   1.00
C326   C     0.82917   0.87288   0.47647   0.00000  Uiso   1.00
C327   C     0.86580   0.94742   0.34352   0.00000  Uiso   1.00
C328   C     0.83567   0.71277   0.77066   0.00000  Uiso   1.00
C329   C     0.83369   0.71327   0.91422   0.00000  Uiso   1.00
C330   C     0.88213   0.69146   0.98365   0.00000  Uiso   1.00
C331   C     0.94940   0.66098   0.14422   0.00000  Uiso   1.00
C332   C     0.77252   0.68317   0.58015   0.00000  Uiso   1.00
C333   C     0.71744   0.65877   0.56355   0.00000  Uiso   1.00
C334   C     0.71271   0.61203   0.47260   0.00000  Uiso   1.00
C335   C     0.68192   0.53559   0.33738   0.00000  Uiso   1.00
C336   C     0.87714   0.69486   0.54232   0.00000  Uiso   1.00
C337   C     0.86457   0.75886   0.50993   0.00000  Uiso   1.00
C338   C     0.89643   0.79390   0.42019   0.00000  Uiso   1.00
C339   C     0.87790   0.85131   0.40466   0.00000  Uiso   1.00
C340   C     0.88432   0.69124   0.69899   0.00000  Uiso   1.00
C341   C     0.93277   0.66942   0.76822   0.00000  Uiso   1.00
C342   C     0.93086   0.66989   0.91184   0.00000  Uiso   1.00
C343   C     0.82116   0.66164   0.50847   0.00000  Uiso   1.00
C344   C     0.81652   0.61492   0.41755   0.00000  Uiso   1.00
C345   C     0.76144   0.59046   0.40080   0.00000  Uiso   1.00
H346   H     0.74971   0.75126   0.73008   0.00000  Uiso   1.00
H347   H     0.75970   0.85440   0.62169   0.00000  Uiso   1.00
H348   H     0.79603   0.72993   0.96966   0.00000  Uiso   1.00
H349   H     0.67980   0.67544   0.61903   0.00000  Uiso   1.00
H350   H     0.79224   0.95927   0.46994   0.00000  Uiso   1.00
H351   H     0.86884   0.69679   0.20365   0.00000  Uiso   1.00
H352   H     0.62375   0.58189   0.46430   0.00000  Uiso   1.00
H353   H     0.91501   0.67810   0.48651   0.00000  Uiso   1.00
H354   H     0.93407   0.77723   0.36474   0.00000  Uiso   1.00
H355   H     0.97041   0.65276   0.71272   0.00000  Uiso   1.00
H356   H     0.85417   0.59827   0.36210   0.00000  Uiso   1.00
H357   H     0.93377   0.89664   0.26140   0.00000  Uiso   1.00
H358   H     0.01037   0.63415   0.99512   0.00000  Uiso   1.00
H359   H     0.76527   0.51926   0.25576   0.00000  Uiso   1.00
O360   O     0.87258   0.99449   0.29000   0.00000  Uiso   1.00
O361   O     0.97307   0.65012   0.25260   0.00000  Uiso   1.00
O362   O     0.65150   0.49938   0.28258   0.00000  Uiso   1.00
N363   N     0.82293   0.93092   0.43755   0.00000  Uiso   1.00
N364   N     0.89455   0.68553   0.12353   0.00000  Uiso   1.00
N365   N     0.66541   0.57810   0.43233   0.00000  Uiso   1.00
N366   N     0.89909   0.89722   0.32534   0.00000  Uiso   1.00
N367   N     0.97070   0.65182   0.01131   0.00000  Uiso   1.00
N368   N     0.74156   0.54439   0.32011   0.00000  Uiso   1.00
