data_job_05723
_audit_creation_date              2018-12-19
_audit_creation_method            'Materials Studio'
_symmetry_space_group_name_H-M    'P1'
_symmetry_Int_Tables_number       1
_symmetry_cell_setting            triclinic
loop_
_symmetry_equiv_pos_as_xyz
  x,y,z
_cell_length_a                    14.3338
_cell_length_b                    14.5042
_cell_length_c                    16.6759
_cell_angle_alpha                 90.0000
_cell_angle_beta                  124.1580
_cell_angle_gamma                 90.0000
loop_
_atom_site_label
_atom_site_type_symbol
_atom_site_fract_x
_atom_site_fract_y
_atom_site_fract_z
_atom_site_U_iso_or_equiv
_atom_site_adp_type
_atom_site_occupancy
C1     C     0.28118   0.33626   0.43400   0.00000  Uiso   1.00
C2     C     0.20350   0.29852   0.46157   0.00000  Uiso   1.00
C3     C     0.09743   0.33239   0.42949   0.00000  Uiso   1.00
C4     C     0.03969   0.28833   0.46308   0.00000  Uiso   1.00
C5     C     0.91200   0.24120   0.49628   0.00000  Uiso   1.00
C6     C     0.39179   0.36006   0.52914   0.00000  Uiso   1.00
C7     C     0.44404   0.44568   0.55387   0.00000  Uiso   1.00
C8     C     0.54481   0.45341   0.64433   0.00000  Uiso   1.00
C9     C     0.70948   0.50181   0.78241   0.00000  Uiso   1.00
C10    C     0.30723   0.25531   0.39125   0.00000  Uiso   1.00
C11    C     0.28840   0.25285   0.30006   0.00000  Uiso   1.00
C12    C     0.31800   0.17239   0.27444   0.00000  Uiso   1.00
C13    C     0.35136   0.05813   0.19843   0.00000  Uiso   1.00
C14    C     0.36726   0.19777   0.55068   0.00000  Uiso   1.00
C15    C     0.25026   0.22330   0.52495   0.00000  Uiso   1.00
C16    C     0.19267   0.17916   0.55859   0.00000  Uiso   1.00
C17    C     0.08653   0.21297   0.52656   0.00000  Uiso   1.00
C18    C     0.43855   0.28484   0.59252   0.00000  Uiso   1.00
C19    C     0.53927   0.29245   0.68296   0.00000  Uiso   1.00
C20    C     0.59165   0.37805   0.70782   0.00000  Uiso   1.00
C21    C     0.35398   0.18008   0.45463   0.00000  Uiso   1.00
C22    C     0.38363   0.09961   0.42915   0.00000  Uiso   1.00
C23    C     0.36484   0.09703   0.33793   0.00000  Uiso   1.00
H24    H     0.24478   0.39483   0.38466   0.00000  Uiso   1.00
H25    H     0.06128   0.39062   0.38045   0.00000  Uiso   1.00
H26    H     0.40784   0.50388   0.50480   0.00000  Uiso   1.00
H27    H     0.25222   0.31107   0.25103   0.00000  Uiso   1.00
H28    H     0.87848   0.35279   0.40376   0.00000  Uiso   1.00
H29    H     0.60923   0.59160   0.66595   0.00000  Uiso   1.00
H30    H     0.28107   0.18503   0.13082   0.00000  Uiso   1.00
H31    H     0.40366   0.13920   0.60002   0.00000  Uiso   1.00
H32    H     0.22887   0.12095   0.60763   0.00000  Uiso   1.00
H33    H     0.57543   0.23422   0.73198   0.00000  Uiso   1.00
H34    H     0.41981   0.04141   0.47821   0.00000  Uiso   1.00
H35    H     0.01450   0.13392   0.58815   0.00000  Uiso   1.00
H36    H     0.74525   0.37273   0.85034   0.00000  Uiso   1.00
H37    H     0.41709   0.96617   0.31521   0.00000  Uiso   1.00
O38    O     0.82866   0.23599   0.49710   0.00000  Uiso   1.00
O39    O     0.78738   0.54929   0.84107   0.00000  Uiso   1.00
O40    O     0.35684   0.01589   0.13900   0.00000  Uiso   1.00
N41    N     0.93447   0.30377   0.44610   0.00000  Uiso   1.00
N42    N     0.61767   0.52705   0.69124   0.00000  Uiso   1.00
N43    N     0.31089   0.14695   0.19095   0.00000  Uiso   1.00
N44    N     0.00766   0.18600   0.54532   0.00000  Uiso   1.00
N45    N     0.69086   0.40928   0.79046   0.00000  Uiso   1.00
N46    N     0.38409   0.02918   0.29016   0.00000  Uiso   1.00
C47    C     0.71882   0.33626   0.06600   0.00000  Uiso   1.00
C48    C     0.79650   0.29852   0.03843   0.00000  Uiso   1.00
C49    C     0.90257   0.33239   0.07051   0.00000  Uiso   1.00
C50    C     0.96031   0.28833   0.03692   0.00000  Uiso   1.00
C51    C     0.08800   0.24120   0.00372   0.00000  Uiso   1.00
C52    C     0.60821   0.36006   0.97086   0.00000  Uiso   1.00
C53    C     0.55596   0.44568   0.94613   0.00000  Uiso   1.00
C54    C     0.45519   0.45341   0.85567   0.00000  Uiso   1.00
C55    C     0.29052   0.50181   0.71759   0.00000  Uiso   1.00
C56    C     0.69277   0.25531   0.10875   0.00000  Uiso   1.00
C57    C     0.71160   0.25285   0.19994   0.00000  Uiso   1.00
C58    C     0.68200   0.17239   0.22556   0.00000  Uiso   1.00
C59    C     0.64864   0.05813   0.30157   0.00000  Uiso   1.00
C60    C     0.63274   0.19777   0.94932   0.00000  Uiso   1.00
C61    C     0.74974   0.22330   0.97505   0.00000  Uiso   1.00
C62    C     0.80733   0.17916   0.94141   0.00000  Uiso   1.00
C63    C     0.91347   0.21297   0.97344   0.00000  Uiso   1.00
C64    C     0.56145   0.28484   0.90748   0.00000  Uiso   1.00
C65    C     0.46073   0.29245   0.81704   0.00000  Uiso   1.00
C66    C     0.40835   0.37805   0.79218   0.00000  Uiso   1.00
C67    C     0.64602   0.18008   0.04537   0.00000  Uiso   1.00
C68    C     0.61637   0.09961   0.07085   0.00000  Uiso   1.00
C69    C     0.63516   0.09703   0.16207   0.00000  Uiso   1.00
H70    H     0.75522   0.39483   0.11534   0.00000  Uiso   1.00
H71    H     0.93872   0.39062   0.11955   0.00000  Uiso   1.00
H72    H     0.59216   0.50388   0.99520   0.00000  Uiso   1.00
H73    H     0.74778   0.31107   0.24897   0.00000  Uiso   1.00
H74    H     0.12152   0.35279   0.09624   0.00000  Uiso   1.00
H75    H     0.39077   0.59160   0.83405   0.00000  Uiso   1.00
H76    H     0.71893   0.18503   0.36918   0.00000  Uiso   1.00
H77    H     0.59634   0.13920   0.89998   0.00000  Uiso   1.00
H78    H     0.77113   0.12095   0.89237   0.00000  Uiso   1.00
H79    H     0.42457   0.23422   0.76802   0.00000  Uiso   1.00
H80    H     0.58019   0.04141   0.02179   0.00000  Uiso   1.00
H81    H     0.98550   0.13392   0.91185   0.00000  Uiso   1.00
H82    H     0.25475   0.37273   0.64966   0.00000  Uiso   1.00
H83    H     0.58291   0.96617   0.18479   0.00000  Uiso   1.00
O84    O     0.17134   0.23599   0.00290   0.00000  Uiso   1.00
O85    O     0.21262   0.54929   0.65893   0.00000  Uiso   1.00
O86    O     0.64316   0.01589   0.36100   0.00000  Uiso   1.00
N87    N     0.06553   0.30377   0.05390   0.00000  Uiso   1.00
N88    N     0.38233   0.52705   0.80876   0.00000  Uiso   1.00
N89    N     0.68911   0.14695   0.30905   0.00000  Uiso   1.00
N90    N     0.99234   0.18600   0.95468   0.00000  Uiso   1.00
N91    N     0.30914   0.40928   0.70954   0.00000  Uiso   1.00
N92    N     0.61591   0.02918   0.20984   0.00000  Uiso   1.00
C93    C     0.71882   0.66374   0.56600   0.00000  Uiso   1.00
C94    C     0.79650   0.70148   0.53843   0.00000  Uiso   1.00
C95    C     0.90257   0.66761   0.57051   0.00000  Uiso   1.00
C96    C     0.96031   0.71167   0.53692   0.00000  Uiso   1.00
C97    C     0.08800   0.75880   0.50372   0.00000  Uiso   1.00
C98    C     0.60821   0.63994   0.47086   0.00000  Uiso   1.00
C99    C     0.55596   0.55432   0.44613   0.00000  Uiso   1.00
C100   C     0.45519   0.54659   0.35567   0.00000  Uiso   1.00
C101   C     0.29052   0.49819   0.21759   0.00000  Uiso   1.00
C102   C     0.69277   0.74469   0.60875   0.00000  Uiso   1.00
C103   C     0.71160   0.74715   0.69994   0.00000  Uiso   1.00
C104   C     0.68200   0.82761   0.72556   0.00000  Uiso   1.00
C105   C     0.64864   0.94187   0.80157   0.00000  Uiso   1.00
C106   C     0.63274   0.80223   0.44932   0.00000  Uiso   1.00
C107   C     0.74974   0.77670   0.47505   0.00000  Uiso   1.00
C108   C     0.80733   0.82084   0.44141   0.00000  Uiso   1.00
C109   C     0.91347   0.78703   0.47344   0.00000  Uiso   1.00
C110   C     0.56145   0.71516   0.40748   0.00000  Uiso   1.00
C111   C     0.46073   0.70755   0.31704   0.00000  Uiso   1.00
C112   C     0.40835   0.62195   0.29218   0.00000  Uiso   1.00
C113   C     0.64602   0.81992   0.54537   0.00000  Uiso   1.00
C114   C     0.61637   0.90039   0.57085   0.00000  Uiso   1.00
C115   C     0.63516   0.90297   0.66207   0.00000  Uiso   1.00
H116   H     0.75522   0.60517   0.61534   0.00000  Uiso   1.00
H117   H     0.93872   0.60938   0.61955   0.00000  Uiso   1.00
H118   H     0.59216   0.49612   0.49520   0.00000  Uiso   1.00
H119   H     0.74778   0.68893   0.74897   0.00000  Uiso   1.00
H120   H     0.12152   0.64721   0.59624   0.00000  Uiso   1.00
H121   H     0.39077   0.40840   0.33405   0.00000  Uiso   1.00
H122   H     0.71893   0.81497   0.86918   0.00000  Uiso   1.00
H123   H     0.59634   0.86080   0.39998   0.00000  Uiso   1.00
H124   H     0.77113   0.87905   0.39237   0.00000  Uiso   1.00
H125   H     0.42457   0.76578   0.26802   0.00000  Uiso   1.00
H126   H     0.58019   0.95859   0.52179   0.00000  Uiso   1.00
H127   H     0.98550   0.86608   0.41185   0.00000  Uiso   1.00
H128   H     0.25475   0.62727   0.14966   0.00000  Uiso   1.00
H129   H     0.58291   0.03383   0.68479   0.00000  Uiso   1.00
O130   O     0.17134   0.76401   0.50290   0.00000  Uiso   1.00
O131   O     0.21262   0.45071   0.15893   0.00000  Uiso   1.00
O132   O     0.64316   0.98411   0.86100   0.00000  Uiso   1.00
N133   N     0.06553   0.69623   0.55390   0.00000  Uiso   1.00
N134   N     0.38233   0.47295   0.30876   0.00000  Uiso   1.00
N135   N     0.68911   0.85305   0.80905   0.00000  Uiso   1.00
N136   N     0.99234   0.81400   0.45468   0.00000  Uiso   1.00
N137   N     0.30914   0.59072   0.20954   0.00000  Uiso   1.00
N138   N     0.61591   0.97082   0.70984   0.00000  Uiso   1.00
C139   C     0.28118   0.66374   0.93400   0.00000  Uiso   1.00
C140   C     0.20350   0.70148   0.96157   0.00000  Uiso   1.00
C141   C     0.09743   0.66761   0.92949   0.00000  Uiso   1.00
C142   C     0.03969   0.71167   0.96308   0.00000  Uiso   1.00
C143   C     0.91200   0.75880   0.99628   0.00000  Uiso   1.00
C144   C     0.39179   0.63994   0.02914   0.00000  Uiso   1.00
C145   C     0.44404   0.55432   0.05387   0.00000  Uiso   1.00
C146   C     0.54481   0.54659   0.14433   0.00000  Uiso   1.00
C147   C     0.70948   0.49819   0.28241   0.00000  Uiso   1.00
C148   C     0.30723   0.74469   0.89125   0.00000  Uiso   1.00
C149   C     0.28840   0.74715   0.80006   0.00000  Uiso   1.00
C150   C     0.31800   0.82761   0.77444   0.00000  Uiso   1.00
C151   C     0.35136   0.94187   0.69843   0.00000  Uiso   1.00
C152   C     0.36726   0.80223   0.05068   0.00000  Uiso   1.00
C153   C     0.25026   0.77670   0.02495   0.00000  Uiso   1.00
C154   C     0.19267   0.82084   0.05859   0.00000  Uiso   1.00
C155   C     0.08653   0.78703   0.02656   0.00000  Uiso   1.00
C156   C     0.43855   0.71516   0.09252   0.00000  Uiso   1.00
C157   C     0.53927   0.70755   0.18296   0.00000  Uiso   1.00
C158   C     0.59165   0.62195   0.20782   0.00000  Uiso   1.00
C159   C     0.35398   0.81992   0.95463   0.00000  Uiso   1.00
C160   C     0.38363   0.90039   0.92915   0.00000  Uiso   1.00
C161   C     0.36484   0.90297   0.83793   0.00000  Uiso   1.00
H162   H     0.24478   0.60517   0.88466   0.00000  Uiso   1.00
H163   H     0.06128   0.60938   0.88045   0.00000  Uiso   1.00
H164   H     0.40784   0.49612   0.00480   0.00000  Uiso   1.00
H165   H     0.25222   0.68893   0.75103   0.00000  Uiso   1.00
H166   H     0.87848   0.64721   0.90376   0.00000  Uiso   1.00
H167   H     0.60923   0.40840   0.16595   0.00000  Uiso   1.00
H168   H     0.28107   0.81497   0.63082   0.00000  Uiso   1.00
H169   H     0.40366   0.86080   0.10002   0.00000  Uiso   1.00
H170   H     0.22887   0.87905   0.10763   0.00000  Uiso   1.00
H171   H     0.57543   0.76578   0.23198   0.00000  Uiso   1.00
H172   H     0.41981   0.95859   0.97821   0.00000  Uiso   1.00
H173   H     0.01450   0.86608   0.08815   0.00000  Uiso   1.00
H174   H     0.74525   0.62727   0.35034   0.00000  Uiso   1.00
H175   H     0.41709   0.03383   0.81521   0.00000  Uiso   1.00
O176   O     0.82866   0.76401   0.99710   0.00000  Uiso   1.00
O177   O     0.78738   0.45071   0.34107   0.00000  Uiso   1.00
O178   O     0.35684   0.98411   0.63900   0.00000  Uiso   1.00
N179   N     0.93447   0.69623   0.94610   0.00000  Uiso   1.00
N180   N     0.61767   0.47295   0.19124   0.00000  Uiso   1.00
N181   N     0.31089   0.85305   0.69095   0.00000  Uiso   1.00
N182   N     0.00766   0.81400   0.04532   0.00000  Uiso   1.00
N183   N     0.69086   0.59072   0.29046   0.00000  Uiso   1.00
N184   N     0.38409   0.97082   0.79016   0.00000  Uiso   1.00
