data_job_03340
_audit_creation_date              2018-12-19
_audit_creation_method            'Materials Studio'
_symmetry_space_group_name_H-M    'P1'
_symmetry_Int_Tables_number       1
_symmetry_cell_setting            triclinic
loop_
_symmetry_equiv_pos_as_xyz
  x,y,z
_cell_length_a                    28.8289
_cell_length_b                    9.9739
_cell_length_c                    21.7100
_cell_angle_alpha                 90.0000
_cell_angle_beta                  90.0000
_cell_angle_gamma                 90.0000
loop_
_atom_site_label
_atom_site_type_symbol
_atom_site_fract_x
_atom_site_fract_y
_atom_site_fract_z
_atom_site_U_iso_or_equiv
_atom_site_adp_type
_atom_site_occupancy
C1     C     0.36999   0.69299   0.82606   0.00000  Uiso   1.00
C2     C     0.32328   0.73716   0.80007   0.00000  Uiso   1.00
C3     C     0.28073   0.67855   0.81301   0.00000  Uiso   1.00
C4     C     0.24202   0.73367   0.78459   0.00000  Uiso   1.00
C5     C     0.16893   0.78551   0.75028   0.00000  Uiso   1.00
C6     C     0.40078   0.66404   0.77052   0.00000  Uiso   1.00
C7     C     0.42339   0.54395   0.75862   0.00000  Uiso   1.00
C8     C     0.44994   0.53753   0.70534   0.00000  Uiso   1.00
C9     C     0.49719   0.47589   0.62518   0.00000  Uiso   1.00
C10    C     0.39066   0.81627   0.85724   0.00000  Uiso   1.00
C11    C     0.40476   0.82417   0.91825   0.00000  Uiso   1.00
C12    C     0.42279   0.94591   0.93798   0.00000  Uiso   1.00
C13    C     0.45433   0.12062   0.99247   0.00000  Uiso   1.00
C14    C     0.37693   0.89511   0.75260   0.00000  Uiso   1.00
C15    C     0.32706   0.84694   0.76017   0.00000  Uiso   1.00
C16    C     0.28841   0.90217   0.73173   0.00000  Uiso   1.00
C17    C     0.24580   0.84365   0.74462   0.00000  Uiso   1.00
C18    C     0.40456   0.77382   0.73062   0.00000  Uiso   1.00
C19    C     0.43108   0.76758   0.67735   0.00000  Uiso   1.00
C20    C     0.45372   0.64751   0.66537   0.00000  Uiso   1.00
C21    C     0.39443   0.92606   0.81734   0.00000  Uiso   1.00
C22    C     0.41244   0.04780   0.83698   0.00000  Uiso   1.00
C23    C     0.42657   0.05589   0.89801   0.00000  Uiso   1.00
H24    H     0.36705   0.60751   0.85712   0.00000  Uiso   1.00
H25    H     0.27782   0.59358   0.84388   0.00000  Uiso   1.00
H26    H     0.42047   0.45902   0.78951   0.00000  Uiso   1.00
H27    H     0.40184   0.73920   0.94912   0.00000  Uiso   1.00
H28    H     0.18056   0.62652   0.81159   0.00000  Uiso   1.00
H29    H     0.48135   0.34279   0.69695   0.00000  Uiso   1.00
H30    H     0.44207   0.93361   0.03352   0.00000  Uiso   1.00
H31    H     0.37987   0.98058   0.72153   0.00000  Uiso   1.00
H32    H     0.29134   0.98713   0.70086   0.00000  Uiso   1.00
H33    H     0.43399   0.85256   0.64648   0.00000  Uiso   1.00
H34    H     0.41536   0.13274   0.80609   0.00000  Uiso   1.00
H35    H     0.19153   0.94593   0.69550   0.00000  Uiso   1.00
H36    H     0.49233   0.66221   0.58087   0.00000  Uiso   1.00
H37    H     0.45304   0.25302   0.91743   0.00000  Uiso   1.00
O38    O     0.12757   0.78377   0.74237   0.00000  Uiso   1.00
O39    O     0.52221   0.41154   0.59198   0.00000  Uiso   1.00
O40    O     0.47067   0.18667   0.03354   0.00000  Uiso   1.00
N41    N     0.19529   0.70081   0.78712   0.00000  Uiso   1.00
N42    N     0.47651   0.43554   0.67993   0.00000  Uiso   1.00
N43    N     0.43979   0.98789   0.99459   0.00000  Uiso   1.00
N44    N     0.20119   0.87269   0.72465   0.00000  Uiso   1.00
N45    N     0.48241   0.60741   0.61747   0.00000  Uiso   1.00
N46    N     0.44570   0.15976   0.93212   0.00000  Uiso   1.00
C47    C     0.13001   0.80701   0.32606   0.00000  Uiso   1.00
C48    C     0.17672   0.76284   0.30007   0.00000  Uiso   1.00
C49    C     0.21927   0.82145   0.31301   0.00000  Uiso   1.00
C50    C     0.25798   0.76633   0.28459   0.00000  Uiso   1.00
C51    C     0.33107   0.71449   0.25028   0.00000  Uiso   1.00
C52    C     0.09922   0.83596   0.27052   0.00000  Uiso   1.00
C53    C     0.07661   0.95605   0.25862   0.00000  Uiso   1.00
C54    C     0.05006   0.96247   0.20534   0.00000  Uiso   1.00
C55    C     0.00281   0.02411   0.12518   0.00000  Uiso   1.00
C56    C     0.10934   0.68373   0.35724   0.00000  Uiso   1.00
C57    C     0.09524   0.67583   0.41825   0.00000  Uiso   1.00
C58    C     0.07721   0.55409   0.43798   0.00000  Uiso   1.00
C59    C     0.04567   0.37938   0.49247   0.00000  Uiso   1.00
C60    C     0.12307   0.60489   0.25260   0.00000  Uiso   1.00
C61    C     0.17294   0.65306   0.26017   0.00000  Uiso   1.00
C62    C     0.21159   0.59783   0.23173   0.00000  Uiso   1.00
C63    C     0.25420   0.65635   0.24462   0.00000  Uiso   1.00
C64    C     0.09544   0.72618   0.23062   0.00000  Uiso   1.00
C65    C     0.06892   0.73242   0.17735   0.00000  Uiso   1.00
C66    C     0.04628   0.85249   0.16537   0.00000  Uiso   1.00
C67    C     0.10557   0.57394   0.31734   0.00000  Uiso   1.00
C68    C     0.08756   0.45220   0.33698   0.00000  Uiso   1.00
C69    C     0.07343   0.44411   0.39801   0.00000  Uiso   1.00
H70    H     0.13295   0.89249   0.35712   0.00000  Uiso   1.00
H71    H     0.22218   0.90642   0.34388   0.00000  Uiso   1.00
H72    H     0.07953   0.04098   0.28951   0.00000  Uiso   1.00
H73    H     0.09816   0.76080   0.44912   0.00000  Uiso   1.00
H74    H     0.31944   0.87348   0.31159   0.00000  Uiso   1.00
H75    H     0.01865   0.15721   0.19695   0.00000  Uiso   1.00
H76    H     0.05793   0.56639   0.53352   0.00000  Uiso   1.00
H77    H     0.12013   0.51942   0.22153   0.00000  Uiso   1.00
H78    H     0.20866   0.51287   0.20086   0.00000  Uiso   1.00
H79    H     0.06601   0.64744   0.14648   0.00000  Uiso   1.00
H80    H     0.08464   0.36726   0.30609   0.00000  Uiso   1.00
H81    H     0.30847   0.55407   0.19550   0.00000  Uiso   1.00
H82    H     0.00767   0.83779   0.08087   0.00000  Uiso   1.00
H83    H     0.04696   0.24698   0.41743   0.00000  Uiso   1.00
O84    O     0.37243   0.71623   0.24237   0.00000  Uiso   1.00
O85    O     0.97779   0.08846   0.09198   0.00000  Uiso   1.00
O86    O     0.02933   0.31333   0.53354   0.00000  Uiso   1.00
N87    N     0.30471   0.79919   0.28712   0.00000  Uiso   1.00
N88    N     0.02349   0.06446   0.17993   0.00000  Uiso   1.00
N89    N     0.06021   0.51211   0.49459   0.00000  Uiso   1.00
N90    N     0.29881   0.62731   0.22465   0.00000  Uiso   1.00
N91    N     0.01759   0.89259   0.11747   0.00000  Uiso   1.00
N92    N     0.05430   0.34024   0.43212   0.00000  Uiso   1.00
C93    C     0.63001   0.69299   0.67394   0.00000  Uiso   1.00
C94    C     0.67672   0.73716   0.69993   0.00000  Uiso   1.00
C95    C     0.71927   0.67855   0.68699   0.00000  Uiso   1.00
C96    C     0.75798   0.73367   0.71541   0.00000  Uiso   1.00
C97    C     0.83107   0.78551   0.74972   0.00000  Uiso   1.00
C98    C     0.59922   0.66404   0.72948   0.00000  Uiso   1.00
C99    C     0.57661   0.54395   0.74138   0.00000  Uiso   1.00
C100   C     0.55006   0.53753   0.79466   0.00000  Uiso   1.00
C101   C     0.50281   0.47589   0.87482   0.00000  Uiso   1.00
C102   C     0.60934   0.81627   0.64276   0.00000  Uiso   1.00
C103   C     0.59524   0.82417   0.58175   0.00000  Uiso   1.00
C104   C     0.57721   0.94591   0.56202   0.00000  Uiso   1.00
C105   C     0.54567   0.12062   0.50753   0.00000  Uiso   1.00
C106   C     0.62307   0.89511   0.74740   0.00000  Uiso   1.00
C107   C     0.67294   0.84694   0.73983   0.00000  Uiso   1.00
C108   C     0.71159   0.90217   0.76827   0.00000  Uiso   1.00
C109   C     0.75420   0.84365   0.75538   0.00000  Uiso   1.00
C110   C     0.59544   0.77382   0.76938   0.00000  Uiso   1.00
C111   C     0.56892   0.76758   0.82265   0.00000  Uiso   1.00
C112   C     0.54628   0.64751   0.83463   0.00000  Uiso   1.00
C113   C     0.60557   0.92606   0.68266   0.00000  Uiso   1.00
C114   C     0.58756   0.04780   0.66302   0.00000  Uiso   1.00
C115   C     0.57343   0.05589   0.60199   0.00000  Uiso   1.00
H116   H     0.63295   0.60751   0.64288   0.00000  Uiso   1.00
H117   H     0.72218   0.59358   0.65612   0.00000  Uiso   1.00
H118   H     0.57953   0.45902   0.71049   0.00000  Uiso   1.00
H119   H     0.59816   0.73920   0.55088   0.00000  Uiso   1.00
H120   H     0.81944   0.62652   0.68841   0.00000  Uiso   1.00
H121   H     0.51865   0.34279   0.80305   0.00000  Uiso   1.00
H122   H     0.55793   0.93361   0.46648   0.00000  Uiso   1.00
H123   H     0.62013   0.98058   0.77847   0.00000  Uiso   1.00
H124   H     0.70866   0.98713   0.79914   0.00000  Uiso   1.00
H125   H     0.56601   0.85256   0.85352   0.00000  Uiso   1.00
H126   H     0.58464   0.13274   0.69391   0.00000  Uiso   1.00
H127   H     0.80847   0.94593   0.80450   0.00000  Uiso   1.00
H128   H     0.50767   0.66221   0.91913   0.00000  Uiso   1.00
H129   H     0.54696   0.25302   0.58257   0.00000  Uiso   1.00
O130   O     0.87243   0.78377   0.75763   0.00000  Uiso   1.00
O131   O     0.47779   0.41154   0.90802   0.00000  Uiso   1.00
O132   O     0.52933   0.18667   0.46646   0.00000  Uiso   1.00
N133   N     0.80471   0.70081   0.71288   0.00000  Uiso   1.00
N134   N     0.52349   0.43554   0.82007   0.00000  Uiso   1.00
N135   N     0.56021   0.98789   0.50541   0.00000  Uiso   1.00
N136   N     0.79881   0.87269   0.77535   0.00000  Uiso   1.00
N137   N     0.51759   0.60741   0.88253   0.00000  Uiso   1.00
N138   N     0.55430   0.15976   0.56788   0.00000  Uiso   1.00
C139   C     0.86999   0.80701   0.17394   0.00000  Uiso   1.00
C140   C     0.82328   0.76284   0.19993   0.00000  Uiso   1.00
C141   C     0.78073   0.82145   0.18699   0.00000  Uiso   1.00
C142   C     0.74202   0.76633   0.21541   0.00000  Uiso   1.00
C143   C     0.66893   0.71449   0.24972   0.00000  Uiso   1.00
C144   C     0.90078   0.83596   0.22948   0.00000  Uiso   1.00
C145   C     0.92339   0.95605   0.24138   0.00000  Uiso   1.00
C146   C     0.94994   0.96247   0.29466   0.00000  Uiso   1.00
C147   C     0.99719   0.02411   0.37482   0.00000  Uiso   1.00
C148   C     0.89066   0.68373   0.14276   0.00000  Uiso   1.00
C149   C     0.90476   0.67583   0.08175   0.00000  Uiso   1.00
C150   C     0.92279   0.55409   0.06202   0.00000  Uiso   1.00
C151   C     0.95433   0.37938   0.00753   0.00000  Uiso   1.00
C152   C     0.87693   0.60489   0.24740   0.00000  Uiso   1.00
C153   C     0.82706   0.65306   0.23983   0.00000  Uiso   1.00
C154   C     0.78841   0.59783   0.26827   0.00000  Uiso   1.00
C155   C     0.74580   0.65635   0.25538   0.00000  Uiso   1.00
C156   C     0.90456   0.72618   0.26938   0.00000  Uiso   1.00
C157   C     0.93108   0.73242   0.32265   0.00000  Uiso   1.00
C158   C     0.95372   0.85249   0.33463   0.00000  Uiso   1.00
C159   C     0.89443   0.57394   0.18266   0.00000  Uiso   1.00
C160   C     0.91244   0.45220   0.16302   0.00000  Uiso   1.00
C161   C     0.92657   0.44411   0.10199   0.00000  Uiso   1.00
H162   H     0.86705   0.89249   0.14288   0.00000  Uiso   1.00
H163   H     0.77782   0.90642   0.15612   0.00000  Uiso   1.00
H164   H     0.92047   0.04098   0.21049   0.00000  Uiso   1.00
H165   H     0.90184   0.76080   0.05088   0.00000  Uiso   1.00
H166   H     0.68056   0.87348   0.18841   0.00000  Uiso   1.00
H167   H     0.98135   0.15721   0.30305   0.00000  Uiso   1.00
H168   H     0.94207   0.56639   0.96648   0.00000  Uiso   1.00
H169   H     0.87987   0.51942   0.27847   0.00000  Uiso   1.00
H170   H     0.79134   0.51287   0.29914   0.00000  Uiso   1.00
H171   H     0.93399   0.64744   0.35352   0.00000  Uiso   1.00
H172   H     0.91536   0.36726   0.19391   0.00000  Uiso   1.00
H173   H     0.69153   0.55407   0.30450   0.00000  Uiso   1.00
H174   H     0.99233   0.83779   0.41913   0.00000  Uiso   1.00
H175   H     0.95304   0.24698   0.08257   0.00000  Uiso   1.00
O176   O     0.62757   0.71623   0.25763   0.00000  Uiso   1.00
O177   O     0.02221   0.08846   0.40802   0.00000  Uiso   1.00
O178   O     0.97067   0.31333   0.96646   0.00000  Uiso   1.00
N179   N     0.69529   0.79919   0.21288   0.00000  Uiso   1.00
N180   N     0.97651   0.06446   0.32007   0.00000  Uiso   1.00
N181   N     0.93979   0.51211   0.00541   0.00000  Uiso   1.00
N182   N     0.70119   0.62731   0.27535   0.00000  Uiso   1.00
N183   N     0.98241   0.89259   0.38253   0.00000  Uiso   1.00
N184   N     0.94570   0.34024   0.06788   0.00000  Uiso   1.00
C185   C     0.63001   0.30701   0.17394   0.00000  Uiso   1.00
C186   C     0.67672   0.26284   0.19993   0.00000  Uiso   1.00
C187   C     0.71927   0.32145   0.18699   0.00000  Uiso   1.00
C188   C     0.75798   0.26633   0.21541   0.00000  Uiso   1.00
C189   C     0.83107   0.21449   0.24972   0.00000  Uiso   1.00
C190   C     0.59922   0.33596   0.22948   0.00000  Uiso   1.00
C191   C     0.57661   0.45605   0.24138   0.00000  Uiso   1.00
C192   C     0.55006   0.46247   0.29466   0.00000  Uiso   1.00
C193   C     0.50281   0.52411   0.37482   0.00000  Uiso   1.00
C194   C     0.60934   0.18373   0.14276   0.00000  Uiso   1.00
C195   C     0.59524   0.17583   0.08175   0.00000  Uiso   1.00
C196   C     0.57721   0.05409   0.06202   0.00000  Uiso   1.00
C197   C     0.54567   0.87938   0.00753   0.00000  Uiso   1.00
C198   C     0.62307   0.10489   0.24740   0.00000  Uiso   1.00
C199   C     0.67294   0.15306   0.23983   0.00000  Uiso   1.00
C200   C     0.71159   0.09783   0.26827   0.00000  Uiso   1.00
C201   C     0.75420   0.15635   0.25538   0.00000  Uiso   1.00
C202   C     0.59544   0.22618   0.26938   0.00000  Uiso   1.00
C203   C     0.56892   0.23242   0.32265   0.00000  Uiso   1.00
C204   C     0.54628   0.35249   0.33463   0.00000  Uiso   1.00
C205   C     0.60557   0.07394   0.18266   0.00000  Uiso   1.00
C206   C     0.58756   0.95220   0.16302   0.00000  Uiso   1.00
C207   C     0.57343   0.94411   0.10199   0.00000  Uiso   1.00
H208   H     0.63295   0.39249   0.14288   0.00000  Uiso   1.00
H209   H     0.72218   0.40642   0.15612   0.00000  Uiso   1.00
H210   H     0.57953   0.54098   0.21049   0.00000  Uiso   1.00
H211   H     0.59816   0.26080   0.05088   0.00000  Uiso   1.00
H212   H     0.81944   0.37348   0.18841   0.00000  Uiso   1.00
H213   H     0.51865   0.65721   0.30305   0.00000  Uiso   1.00
H214   H     0.55793   0.06639   0.96648   0.00000  Uiso   1.00
H215   H     0.62013   0.01942   0.27847   0.00000  Uiso   1.00
H216   H     0.70866   0.01287   0.29914   0.00000  Uiso   1.00
H217   H     0.56601   0.14744   0.35352   0.00000  Uiso   1.00
H218   H     0.58464   0.86726   0.19391   0.00000  Uiso   1.00
H219   H     0.80847   0.05407   0.30450   0.00000  Uiso   1.00
H220   H     0.50767   0.33779   0.41913   0.00000  Uiso   1.00
H221   H     0.54696   0.74698   0.08257   0.00000  Uiso   1.00
O222   O     0.87243   0.21623   0.25763   0.00000  Uiso   1.00
O223   O     0.47779   0.58846   0.40802   0.00000  Uiso   1.00
O224   O     0.52933   0.81333   0.96646   0.00000  Uiso   1.00
N225   N     0.80471   0.29919   0.21288   0.00000  Uiso   1.00
N226   N     0.52349   0.56446   0.32007   0.00000  Uiso   1.00
N227   N     0.56021   0.01211   0.00541   0.00000  Uiso   1.00
N228   N     0.79881   0.12731   0.27535   0.00000  Uiso   1.00
N229   N     0.51759   0.39259   0.38253   0.00000  Uiso   1.00
N230   N     0.55430   0.84024   0.06788   0.00000  Uiso   1.00
C231   C     0.86999   0.19299   0.67394   0.00000  Uiso   1.00
C232   C     0.82328   0.23716   0.69993   0.00000  Uiso   1.00
C233   C     0.78073   0.17855   0.68699   0.00000  Uiso   1.00
C234   C     0.74202   0.23367   0.71541   0.00000  Uiso   1.00
C235   C     0.66893   0.28551   0.74972   0.00000  Uiso   1.00
C236   C     0.90078   0.16404   0.72948   0.00000  Uiso   1.00
C237   C     0.92339   0.04395   0.74138   0.00000  Uiso   1.00
C238   C     0.94994   0.03753   0.79466   0.00000  Uiso   1.00
C239   C     0.99719   0.97589   0.87482   0.00000  Uiso   1.00
C240   C     0.89066   0.31627   0.64276   0.00000  Uiso   1.00
C241   C     0.90476   0.32417   0.58175   0.00000  Uiso   1.00
C242   C     0.92279   0.44591   0.56202   0.00000  Uiso   1.00
C243   C     0.95433   0.62062   0.50753   0.00000  Uiso   1.00
C244   C     0.87693   0.39511   0.74740   0.00000  Uiso   1.00
C245   C     0.82706   0.34694   0.73983   0.00000  Uiso   1.00
C246   C     0.78841   0.40217   0.76827   0.00000  Uiso   1.00
C247   C     0.74580   0.34365   0.75538   0.00000  Uiso   1.00
C248   C     0.90456   0.27382   0.76938   0.00000  Uiso   1.00
C249   C     0.93108   0.26758   0.82265   0.00000  Uiso   1.00
C250   C     0.95372   0.14751   0.83463   0.00000  Uiso   1.00
C251   C     0.89443   0.42606   0.68266   0.00000  Uiso   1.00
C252   C     0.91244   0.54780   0.66302   0.00000  Uiso   1.00
C253   C     0.92657   0.55589   0.60199   0.00000  Uiso   1.00
H254   H     0.86705   0.10751   0.64288   0.00000  Uiso   1.00
H255   H     0.77782   0.09358   0.65612   0.00000  Uiso   1.00
H256   H     0.92047   0.95902   0.71049   0.00000  Uiso   1.00
H257   H     0.90184   0.23920   0.55088   0.00000  Uiso   1.00
H258   H     0.68056   0.12652   0.68841   0.00000  Uiso   1.00
H259   H     0.98135   0.84279   0.80305   0.00000  Uiso   1.00
H260   H     0.94207   0.43361   0.46648   0.00000  Uiso   1.00
H261   H     0.87987   0.48058   0.77847   0.00000  Uiso   1.00
H262   H     0.79134   0.48713   0.79914   0.00000  Uiso   1.00
H263   H     0.93399   0.35256   0.85352   0.00000  Uiso   1.00
H264   H     0.91536   0.63274   0.69391   0.00000  Uiso   1.00
H265   H     0.69153   0.44593   0.80450   0.00000  Uiso   1.00
H266   H     0.99233   0.16221   0.91913   0.00000  Uiso   1.00
H267   H     0.95304   0.75302   0.58257   0.00000  Uiso   1.00
O268   O     0.62757   0.28377   0.75763   0.00000  Uiso   1.00
O269   O     0.02221   0.91154   0.90802   0.00000  Uiso   1.00
O270   O     0.97067   0.68667   0.46646   0.00000  Uiso   1.00
N271   N     0.69529   0.20081   0.71288   0.00000  Uiso   1.00
N272   N     0.97651   0.93554   0.82007   0.00000  Uiso   1.00
N273   N     0.93979   0.48789   0.50541   0.00000  Uiso   1.00
N274   N     0.70119   0.37269   0.77535   0.00000  Uiso   1.00
N275   N     0.98241   0.10741   0.88253   0.00000  Uiso   1.00
N276   N     0.94570   0.65976   0.56788   0.00000  Uiso   1.00
C277   C     0.36999   0.30701   0.32606   0.00000  Uiso   1.00
C278   C     0.32328   0.26284   0.30007   0.00000  Uiso   1.00
C279   C     0.28073   0.32145   0.31301   0.00000  Uiso   1.00
C280   C     0.24202   0.26633   0.28459   0.00000  Uiso   1.00
C281   C     0.16893   0.21449   0.25028   0.00000  Uiso   1.00
C282   C     0.40078   0.33596   0.27052   0.00000  Uiso   1.00
C283   C     0.42339   0.45605   0.25862   0.00000  Uiso   1.00
C284   C     0.44994   0.46247   0.20534   0.00000  Uiso   1.00
C285   C     0.49719   0.52411   0.12518   0.00000  Uiso   1.00
C286   C     0.39066   0.18373   0.35724   0.00000  Uiso   1.00
C287   C     0.40476   0.17583   0.41825   0.00000  Uiso   1.00
C288   C     0.42279   0.05409   0.43798   0.00000  Uiso   1.00
C289   C     0.45433   0.87938   0.49247   0.00000  Uiso   1.00
C290   C     0.37693   0.10489   0.25260   0.00000  Uiso   1.00
C291   C     0.32706   0.15306   0.26017   0.00000  Uiso   1.00
C292   C     0.28841   0.09783   0.23173   0.00000  Uiso   1.00
C293   C     0.24580   0.15635   0.24462   0.00000  Uiso   1.00
C294   C     0.40456   0.22618   0.23062   0.00000  Uiso   1.00
C295   C     0.43108   0.23242   0.17735   0.00000  Uiso   1.00
C296   C     0.45372   0.35249   0.16537   0.00000  Uiso   1.00
C297   C     0.39443   0.07394   0.31734   0.00000  Uiso   1.00
C298   C     0.41244   0.95220   0.33698   0.00000  Uiso   1.00
C299   C     0.42657   0.94411   0.39801   0.00000  Uiso   1.00
H300   H     0.36705   0.39249   0.35712   0.00000  Uiso   1.00
H301   H     0.27782   0.40642   0.34388   0.00000  Uiso   1.00
H302   H     0.42047   0.54098   0.28951   0.00000  Uiso   1.00
H303   H     0.40184   0.26080   0.44912   0.00000  Uiso   1.00
H304   H     0.18056   0.37348   0.31159   0.00000  Uiso   1.00
H305   H     0.48135   0.65721   0.19695   0.00000  Uiso   1.00
H306   H     0.44207   0.06639   0.53352   0.00000  Uiso   1.00
H307   H     0.37987   0.01942   0.22153   0.00000  Uiso   1.00
H308   H     0.29134   0.01287   0.20086   0.00000  Uiso   1.00
H309   H     0.43399   0.14744   0.14648   0.00000  Uiso   1.00
H310   H     0.41536   0.86726   0.30609   0.00000  Uiso   1.00
H311   H     0.19153   0.05407   0.19550   0.00000  Uiso   1.00
H312   H     0.49233   0.33779   0.08087   0.00000  Uiso   1.00
H313   H     0.45304   0.74698   0.41743   0.00000  Uiso   1.00
O314   O     0.12757   0.21623   0.24237   0.00000  Uiso   1.00
O315   O     0.52221   0.58846   0.09198   0.00000  Uiso   1.00
O316   O     0.47067   0.81333   0.53354   0.00000  Uiso   1.00
N317   N     0.19529   0.29919   0.28712   0.00000  Uiso   1.00
N318   N     0.47651   0.56446   0.17993   0.00000  Uiso   1.00
N319   N     0.43979   0.01211   0.49459   0.00000  Uiso   1.00
N320   N     0.20119   0.12731   0.22465   0.00000  Uiso   1.00
N321   N     0.48241   0.39259   0.11747   0.00000  Uiso   1.00
N322   N     0.44570   0.84024   0.43212   0.00000  Uiso   1.00
C323   C     0.13001   0.19299   0.82606   0.00000  Uiso   1.00
C324   C     0.17672   0.23716   0.80007   0.00000  Uiso   1.00
C325   C     0.21927   0.17855   0.81301   0.00000  Uiso   1.00
C326   C     0.25798   0.23367   0.78459   0.00000  Uiso   1.00
C327   C     0.33107   0.28551   0.75028   0.00000  Uiso   1.00
C328   C     0.09922   0.16404   0.77052   0.00000  Uiso   1.00
C329   C     0.07661   0.04395   0.75862   0.00000  Uiso   1.00
C330   C     0.05006   0.03753   0.70534   0.00000  Uiso   1.00
C331   C     0.00281   0.97589   0.62518   0.00000  Uiso   1.00
C332   C     0.10934   0.31627   0.85724   0.00000  Uiso   1.00
C333   C     0.09524   0.32417   0.91825   0.00000  Uiso   1.00
C334   C     0.07721   0.44591   0.93798   0.00000  Uiso   1.00
C335   C     0.04567   0.62062   0.99247   0.00000  Uiso   1.00
C336   C     0.12307   0.39511   0.75260   0.00000  Uiso   1.00
C337   C     0.17294   0.34694   0.76017   0.00000  Uiso   1.00
C338   C     0.21159   0.40217   0.73173   0.00000  Uiso   1.00
C339   C     0.25420   0.34365   0.74462   0.00000  Uiso   1.00
C340   C     0.09544   0.27382   0.73062   0.00000  Uiso   1.00
C341   C     0.06892   0.26758   0.67735   0.00000  Uiso   1.00
C342   C     0.04628   0.14751   0.66537   0.00000  Uiso   1.00
C343   C     0.10557   0.42606   0.81734   0.00000  Uiso   1.00
C344   C     0.08756   0.54780   0.83698   0.00000  Uiso   1.00
C345   C     0.07343   0.55589   0.89801   0.00000  Uiso   1.00
H346   H     0.13295   0.10751   0.85712   0.00000  Uiso   1.00
H347   H     0.22218   0.09358   0.84388   0.00000  Uiso   1.00
H348   H     0.07953   0.95902   0.78951   0.00000  Uiso   1.00
H349   H     0.09816   0.23920   0.94912   0.00000  Uiso   1.00
H350   H     0.31944   0.12652   0.81159   0.00000  Uiso   1.00
H351   H     0.01865   0.84279   0.69695   0.00000  Uiso   1.00
H352   H     0.05793   0.43361   0.03352   0.00000  Uiso   1.00
H353   H     0.12013   0.48058   0.72153   0.00000  Uiso   1.00
H354   H     0.20866   0.48713   0.70086   0.00000  Uiso   1.00
H355   H     0.06601   0.35256   0.64648   0.00000  Uiso   1.00
H356   H     0.08464   0.63274   0.80609   0.00000  Uiso   1.00
H357   H     0.30847   0.44593   0.69550   0.00000  Uiso   1.00
H358   H     0.00767   0.16221   0.58087   0.00000  Uiso   1.00
H359   H     0.04696   0.75302   0.91743   0.00000  Uiso   1.00
O360   O     0.37243   0.28377   0.74237   0.00000  Uiso   1.00
O361   O     0.97779   0.91154   0.59198   0.00000  Uiso   1.00
O362   O     0.02933   0.68667   0.03354   0.00000  Uiso   1.00
N363   N     0.30471   0.20081   0.78712   0.00000  Uiso   1.00
N364   N     0.02349   0.93554   0.67993   0.00000  Uiso   1.00
N365   N     0.06021   0.48789   0.99459   0.00000  Uiso   1.00
N366   N     0.29881   0.37269   0.72465   0.00000  Uiso   1.00
N367   N     0.01759   0.10741   0.61747   0.00000  Uiso   1.00
N368   N     0.05430   0.65976   0.93212   0.00000  Uiso   1.00
