data_job_06998
_audit_creation_date              2018-12-19
_audit_creation_method            'Materials Studio'
_symmetry_space_group_name_H-M    'P1'
_symmetry_Int_Tables_number       1
_symmetry_cell_setting            triclinic
loop_
_symmetry_equiv_pos_as_xyz
  x,y,z
_cell_length_a                    17.9252
_cell_length_b                    20.5534
_cell_length_c                    26.3338
_cell_angle_alpha                 73.2389
_cell_angle_beta                  86.9304
_cell_angle_gamma                 71.1407
loop_
_atom_site_label
_atom_site_type_symbol
_atom_site_fract_x
_atom_site_fract_y
_atom_site_fract_z
_atom_site_U_iso_or_equiv
_atom_site_adp_type
_atom_site_occupancy
C1     C     0.96093   0.64589   0.63555   0.00000  Uiso   1.00
C2     C     0.96475   0.67227   0.57539   0.00000  Uiso   1.00
C3     C     0.02543   0.64326   0.54533   0.00000  Uiso   1.00
C4     C     0.01788   0.67507   0.49084   0.00000  Uiso   1.00
C5     C     0.03385   0.70713   0.40101   0.00000  Uiso   1.00
C6     C     0.95115   0.71052   0.65574   0.00000  Uiso   1.00
C7     C     0.00040   0.71367   0.69325   0.00000  Uiso   1.00
C8     C     0.98139   0.77769   0.70640   0.00000  Uiso   1.00
C9     C     0.97623   0.86912   0.74135   0.00000  Uiso   1.00
C10    C     0.88375   0.62895   0.64582   0.00000  Uiso   1.00
C11    C     0.87631   0.56351   0.67500   0.00000  Uiso   1.00
C12    C     0.80056   0.55886   0.67981   0.00000  Uiso   1.00
C13    C     0.69074   0.52363   0.69936   0.00000  Uiso   1.00
C14    C     0.83961   0.75399   0.59221   0.00000  Uiso   1.00
C15    C     0.89885   0.73099   0.55185   0.00000  Uiso   1.00
C16    C     0.89120   0.76286   0.49739   0.00000  Uiso   1.00
C17    C     0.95186   0.73389   0.46726   0.00000  Uiso   1.00
C18    C     0.88526   0.76924   0.63220   0.00000  Uiso   1.00
C19    C     0.86617   0.83327   0.64530   0.00000  Uiso   1.00
C20    C     0.91538   0.83651   0.68282   0.00000  Uiso   1.00
C21    C     0.81785   0.68767   0.62228   0.00000  Uiso   1.00
C22    C     0.74209   0.68311   0.62705   0.00000  Uiso   1.00
C23    C     0.73454   0.61768   0.65623   0.00000  Uiso   1.00
H24    H     0.01223   0.60018   0.65387   0.00000  Uiso   1.00
H25    H     0.07642   0.59782   0.56356   0.00000  Uiso   1.00
H26    H     0.05138   0.66822   0.71146   0.00000  Uiso   1.00
H27    H     0.92732   0.51809   0.69321   0.00000  Uiso   1.00
H28    H     0.11854   0.62112   0.45306   0.00000  Uiso   1.00
H29    H     0.06574   0.76955   0.76492   0.00000  Uiso   1.00
H30    H     0.80412   0.45297   0.72644   0.00000  Uiso   1.00
H31    H     0.78830   0.79970   0.57389   0.00000  Uiso   1.00
H32    H     0.84020   0.80829   0.47919   0.00000  Uiso   1.00
H33    H     0.81517   0.87869   0.62708   0.00000  Uiso   1.00
H34    H     0.69111   0.72856   0.60884   0.00000  Uiso   1.00
H35    H     0.92682   0.79195   0.38457   0.00000  Uiso   1.00
H36    H     0.87402   0.94038   0.69644   0.00000  Uiso   1.00
H37    H     0.61240   0.62380   0.65796   0.00000  Uiso   1.00
O38    O     0.06087   0.70860   0.35796   0.00000  Uiso   1.00
O39    O     0.99159   0.90333   0.76712   0.00000  Uiso   1.00
O40    O     0.64836   0.48798   0.71663   0.00000  Uiso   1.00
N41    N     0.06628   0.66013   0.44993   0.00000  Uiso   1.00
N42    N     0.01693   0.79891   0.74150   0.00000  Uiso   1.00
N43    N     0.77234   0.50294   0.70554   0.00000  Uiso   1.00
N44    N     0.96312   0.75206   0.41309   0.00000  Uiso   1.00
N45    N     0.91377   0.89083   0.70465   0.00000  Uiso   1.00
N46    N     0.66918   0.59486   0.66869   0.00000  Uiso   1.00
C47    C     0.34824   0.97600   0.45005   0.00000  Uiso   1.00
C48    C     0.32955   0.01045   0.39063   0.00000  Uiso   1.00
C49    C     0.26718   0.07173   0.36758   0.00000  Uiso   1.00
C50    C     0.26019   0.09466   0.31252   0.00000  Uiso   1.00
C51    C     0.22301   0.15377   0.22496   0.00000  Uiso   1.00
C52    C     0.34972   0.89855   0.46109   0.00000  Uiso   1.00
C53    C     0.30433   0.86575   0.49728   0.00000  Uiso   1.00
C54    C     0.31432   0.79449   0.50153   0.00000  Uiso   1.00
C55    C     0.30851   0.67987   0.52338   0.00000  Uiso   1.00
C56    C     0.43292   0.97222   0.45949   0.00000  Uiso   1.00
C57    C     0.45748   0.00135   0.49436   0.00000  Uiso   1.00
C58    C     0.53753   0.99210   0.49727   0.00000  Uiso   1.00
C59    C     0.66089   0.99187   0.51664   0.00000  Uiso   1.00
C60    C     0.44671   0.90776   0.39324   0.00000  Uiso   1.00
C61    C     0.38304   0.97338   0.35978   0.00000  Uiso   1.00
C62    C     0.37614   0.99623   0.30473   0.00000  Uiso   1.00
C63    C     0.31377   0.05754   0.28161   0.00000  Uiso   1.00
C64    C     0.40321   0.86149   0.43023   0.00000  Uiso   1.00
C65    C     0.41328   0.79026   0.43443   0.00000  Uiso   1.00
C66    C     0.36791   0.75736   0.47062   0.00000  Uiso   1.00
C67    C     0.48641   0.93516   0.42863   0.00000  Uiso   1.00
C68    C     0.56643   0.92586   0.43150   0.00000  Uiso   1.00
C69    C     0.59111   0.95497   0.46636   0.00000  Uiso   1.00
H70    H     0.30659   0.00485   0.47407   0.00000  Uiso   1.00
H71    H     0.22580   0.10039   0.39148   0.00000  Uiso   1.00
H72    H     0.26294   0.89445   0.52116   0.00000  Uiso   1.00
H73    H     0.41607   0.03003   0.51823   0.00000  Uiso   1.00
H74    H     0.15980   0.18996   0.28630   0.00000  Uiso   1.00
H75    H     0.23814   0.75571   0.55975   0.00000  Uiso   1.00
H76    H     0.56104   0.04161   0.55358   0.00000  Uiso   1.00
H77    H     0.48836   0.87890   0.36921   0.00000  Uiso   1.00
H78    H     0.41754   0.96754   0.28086   0.00000  Uiso   1.00
H79    H     0.45468   0.76159   0.41055   0.00000  Uiso   1.00
H80    H     0.60781   0.89718   0.40762   0.00000  Uiso   1.00
H81    H     0.31541   0.08213   0.19652   0.00000  Uiso   1.00
H82    H     0.39376   0.64788   0.46998   0.00000  Uiso   1.00
H83    H     0.71666   0.93378   0.46380   0.00000  Uiso   1.00
O84    O     0.18772   0.19661   0.18519   0.00000  Uiso   1.00
O85    O     0.29051   0.62689   0.54395   0.00000  Uiso   1.00
O86    O     0.71415   0.00199   0.53585   0.00000  Uiso   1.00
N87    N     0.20615   0.15243   0.27730   0.00000  Uiso   1.00
N88    N     0.27938   0.74643   0.53295   0.00000  Uiso   1.00
N89    N     0.58127   0.01371   0.52719   0.00000  Uiso   1.00
N90    N     0.28989   0.09441   0.22899   0.00000  Uiso   1.00
N91    N     0.36312   0.68841   0.48464   0.00000  Uiso   1.00
N92    N     0.66501   0.95569   0.47888   0.00000  Uiso   1.00
C93    C     0.63018   0.37809   0.51195   0.00000  Uiso   1.00
C94    C     0.67169   0.38725   0.45953   0.00000  Uiso   1.00
C95    C     0.72107   0.42856   0.44292   0.00000  Uiso   1.00
C96    C     0.75329   0.42998   0.39364   0.00000  Uiso   1.00
C97    C     0.82025   0.45010   0.31702   0.00000  Uiso   1.00
C98    C     0.54243   0.40087   0.49739   0.00000  Uiso   1.00
C99    C     0.48313   0.45362   0.51262   0.00000  Uiso   1.00
C100   C     0.40653   0.46650   0.49521   0.00000  Uiso   1.00
C101   C     0.27280   0.50773   0.47741   0.00000  Uiso   1.00
C102   C     0.65545   0.29755   0.53920   0.00000  Uiso   1.00
C103   C     0.69116   0.26342   0.58958   0.00000  Uiso   1.00
C104   C     0.70970   0.18931   0.60737   0.00000  Uiso   1.00
C105   C     0.75144   0.07011   0.65447   0.00000  Uiso   1.00
C106   C     0.59958   0.30717   0.45397   0.00000  Uiso   1.00
C107   C     0.65507   0.34873   0.42804   0.00000  Uiso   1.00
C108   C     0.68722   0.35009   0.37876   0.00000  Uiso   1.00
C109   C     0.73665   0.39139   0.36208   0.00000  Uiso   1.00
C110   C     0.52581   0.36235   0.46590   0.00000  Uiso   1.00
C111   C     0.44928   0.37516   0.44846   0.00000  Uiso   1.00
C112   C     0.38988   0.42791   0.46366   0.00000  Uiso   1.00
C113   C     0.63883   0.25902   0.50770   0.00000  Uiso   1.00
C114   C     0.65731   0.18496   0.52542   0.00000  Uiso   1.00
C115   C     0.69305   0.15072   0.57582   0.00000  Uiso   1.00
H116   H     0.64311   0.40808   0.53648   0.00000  Uiso   1.00
H117   H     0.73391   0.45836   0.46731   0.00000  Uiso   1.00
H118   H     0.49601   0.48342   0.53700   0.00000  Uiso   1.00
H119   H     0.70401   0.29324   0.61394   0.00000  Uiso   1.00
H120   H     0.82723   0.49715   0.37672   0.00000  Uiso   1.00
H121   H     0.32559   0.54996   0.52369   0.00000  Uiso   1.00
H122   H     0.76420   0.14894   0.68594   0.00000  Uiso   1.00
H123   H     0.58664   0.27718   0.42944   0.00000  Uiso   1.00
H124   H     0.67435   0.32028   0.35440   0.00000  Uiso   1.00
H125   H     0.43644   0.34533   0.42409   0.00000  Uiso   1.00
H126   H     0.64444   0.15516   0.50103   0.00000  Uiso   1.00
H127   H     0.77889   0.38507   0.28508   0.00000  Uiso   1.00
H128   H     0.27724   0.43788   0.43205   0.00000  Uiso   1.00
H129   H     0.71585   0.03687   0.59430   0.00000  Uiso   1.00
O130   O     0.86176   0.47184   0.28345   0.00000  Uiso   1.00
O131   O     0.20362   0.54112   0.47628   0.00000  Uiso   1.00
O132   O     0.77907   0.01500   0.68914   0.00000  Uiso   1.00
N133   N     0.80383   0.46484   0.36545   0.00000  Uiso   1.00
N134   N     0.33483   0.51423   0.50285   0.00000  Uiso   1.00
N135   N     0.74487   0.13931   0.65455   0.00000  Uiso   1.00
N136   N     0.77782   0.40454   0.31614   0.00000  Uiso   1.00
N137   N     0.30881   0.45392   0.45354   0.00000  Uiso   1.00
N138   N     0.71886   0.07901   0.60524   0.00000  Uiso   1.00
C139   C     0.68964   0.38995   0.03152   0.00000  Uiso   1.00
C140   C     0.73805   0.37485   0.98435   0.00000  Uiso   1.00
C141   C     0.71443   0.40800   0.93125   0.00000  Uiso   1.00
C142   C     0.76726   0.38670   0.89406   0.00000  Uiso   1.00
C143   C     0.83123   0.37127   0.81847   0.00000  Uiso   1.00
C144   C     0.74066   0.41068   0.06455   0.00000  Uiso   1.00
C145   C     0.71922   0.47395   0.07890   0.00000  Uiso   1.00
C146   C     0.77424   0.48281   0.10922   0.00000  Uiso   1.00
C147   C     0.84223   0.52299   0.15818   0.00000  Uiso   1.00
C148   C     0.68327   0.31802   0.06510   0.00000  Uiso   1.00
C149   C     0.61359   0.30337   0.07991   0.00000  Uiso   1.00
C150   C     0.62029   0.23421   0.11071   0.00000  Uiso   1.00
C151   C     0.59919   0.13051   0.16052   0.00000  Uiso   1.00
C152   C     0.82544   0.29318   0.05988   0.00000  Uiso   1.00
C153   C     0.81182   0.32229   0.99975   0.00000  Uiso   1.00
C154   C     0.86469   0.30093   0.96263   0.00000  Uiso   1.00
C155   C     0.84115   0.33404   0.90949   0.00000  Uiso   1.00
C156   C     0.81442   0.35812   0.07996   0.00000  Uiso   1.00
C157   C     0.86948   0.36689   0.11027   0.00000  Uiso   1.00
C158   C     0.84814   0.43015   0.12466   0.00000  Uiso   1.00
C159   C     0.75704   0.26545   0.08050   0.00000  Uiso   1.00
C160   C     0.76385   0.19630   0.11129   0.00000  Uiso   1.00
C161   C     0.69419   0.18156   0.12615   0.00000  Uiso   1.00
H162   H     0.63221   0.43088   0.01953   0.00000  Uiso   1.00
H163   H     0.65735   0.44868   0.91935   0.00000  Uiso   1.00
H164   H     0.66213   0.51462   0.06697   0.00000  Uiso   1.00
H165   H     0.55652   0.34406   0.06799   0.00000  Uiso   1.00
H166   H     0.71776   0.44525   0.81507   0.00000  Uiso   1.00
H167   H     0.72784   0.58428   0.12636   0.00000  Uiso   1.00
H168   H     0.50513   0.22463   0.12850   0.00000  Uiso   1.00
H169   H     0.88287   0.25226   0.07188   0.00000  Uiso   1.00
H170   H     0.92177   0.26025   0.97456   0.00000  Uiso   1.00
H171   H     0.92655   0.32620   0.12219   0.00000  Uiso   1.00
H172   H     0.82094   0.15564   0.12320   0.00000  Uiso   1.00
H173   H     0.93237   0.29232   0.85988   0.00000  Uiso   1.00
H174   H     0.94245   0.43135   0.17118   0.00000  Uiso   1.00
H175   H     0.71975   0.07170   0.17332   0.00000  Uiso   1.00
O176   O     0.84614   0.37729   0.77252   0.00000  Uiso   1.00
O177   O     0.85936   0.55968   0.18093   0.00000  Uiso   1.00
O178   O     0.56717   0.08783   0.18373   0.00000  Uiso   1.00
N179   N     0.76292   0.40815   0.83897   0.00000  Uiso   1.00
N180   N     0.77236   0.53814   0.13000   0.00000  Uiso   1.00
N181   N     0.56414   0.20190   0.13202   0.00000  Uiso   1.00
N182   N     0.87841   0.32586   0.86309   0.00000  Uiso   1.00
N183   N     0.88784   0.45585   0.15412   0.00000  Uiso   1.00
N184   N     0.67962   0.11961   0.15613   0.00000  Uiso   1.00
C185   C     0.02675   0.74828   0.08896   0.00000  Uiso   1.00
C186   C     0.03521   0.76265   0.02916   0.00000  Uiso   1.00
C187   C     0.08480   0.71540   0.00392   0.00000  Uiso   1.00
C188   C     0.08395   0.73862   0.94888   0.00000  Uiso   1.00
C189   C     0.10446   0.75057   0.86039   0.00000  Uiso   1.00
C190   C     0.93941   0.75912   0.09827   0.00000  Uiso   1.00
C191   C     0.90846   0.70890   0.13114   0.00000  Uiso   1.00
C192   C     0.82697   0.72914   0.13428   0.00000  Uiso   1.00
C193   C     0.69876   0.73563   0.15310   0.00000  Uiso   1.00
C194   C     0.04415   0.80891   0.10323   0.00000  Uiso   1.00
C195   C     0.10125   0.80056   0.14028   0.00000  Uiso   1.00
C196   C     0.10793   0.86273   0.14761   0.00000  Uiso   1.00
C197   C     0.14236   0.94652   0.17414   0.00000  Uiso   1.00
C198   C     0.93706   0.87354   0.03609   0.00000  Uiso   1.00
C199   C     0.98649   0.83069   0.00044   0.00000  Uiso   1.00
C200   C     0.98557   0.85398   0.94543   0.00000  Uiso   1.00
C201   C     0.03515   0.80678   0.92011   0.00000  Uiso   1.00
C202   C     0.89070   0.82715   0.06955   0.00000  Uiso   1.00
C203   C     0.80923   0.84748   0.07264   0.00000  Uiso   1.00
C204   C     0.77816   0.79730   0.10551   0.00000  Uiso   1.00
C205   C     0.99544   0.87695   0.07451   0.00000  Uiso   1.00
C206   C     0.00203   0.93914   0.08178   0.00000  Uiso   1.00
C207   C     0.05913   0.93089   0.11884   0.00000  Uiso   1.00
H208   H     0.06467   0.69532   0.11132   0.00000  Uiso   1.00
H209   H     0.12248   0.66275   0.02616   0.00000  Uiso   1.00
H210   H     0.94617   0.65625   0.15336   0.00000  Uiso   1.00
H211   H     0.13894   0.74790   0.16250   0.00000  Uiso   1.00
H212   H     0.16507   0.65664   0.91908   0.00000  Uiso   1.00
H213   H     0.79332   0.64295   0.18730   0.00000  Uiso   1.00
H214   H     0.19981   0.83621   0.20658   0.00000  Uiso   1.00
H215   H     0.89913   0.92651   0.01373   0.00000  Uiso   1.00
H216   H     0.94786   0.90664   0.92321   0.00000  Uiso   1.00
H217   H     0.77155   0.90013   0.05041   0.00000  Uiso   1.00
H218   H     0.96432   0.99178   0.05955   0.00000  Uiso   1.00
H219   H     0.02334   0.85459   0.83552   0.00000  Uiso   1.00
H220   H     0.65159   0.84089   0.10375   0.00000  Uiso   1.00
H221   H     0.05808   0.03415   0.12302   0.00000  Uiso   1.00
O222   O     0.12923   0.73836   0.81951   0.00000  Uiso   1.00
O223   O     0.64151   0.72040   0.17142   0.00000  Uiso   1.00
O224   O     0.17481   0.97395   0.19670   0.00000  Uiso   1.00
N225   N     0.12504   0.70596   0.91184   0.00000  Uiso   1.00
N226   N     0.77747   0.69316   0.16260   0.00000  Uiso   1.00
N227   N     0.15749   0.87383   0.18063   0.00000  Uiso   1.00
N228   N     0.04878   0.81248   0.86688   0.00000  Uiso   1.00
N229   N     0.70121   0.79967   0.11764   0.00000  Uiso   1.00
N230   N     0.08123   0.98035   0.13567   0.00000  Uiso   1.00
C231   C     0.39826   0.94998   0.98641   0.00000  Uiso   1.00
C232   C     0.41598   0.96002   0.92789   0.00000  Uiso   1.00
C233   C     0.46370   0.99818   0.89978   0.00000  Uiso   1.00
C234   C     0.47248   0.00105   0.84656   0.00000  Uiso   1.00
C235   C     0.50576   0.02179   0.75937   0.00000  Uiso   1.00
C236   C     0.42268   0.86915   0.01233   0.00000  Uiso   1.00
C237   C     0.47604   0.83091   0.05523   0.00000  Uiso   1.00
C238   C     0.49045   0.75728   0.07308   0.00000  Uiso   1.00
C239   C     0.53409   0.63695   0.11701   0.00000  Uiso   1.00
C240   C     0.30864   0.97775   0.98850   0.00000  Uiso   1.00
C241   C     0.26610   0.03082   0.01137   0.00000  Uiso   1.00
C242   C     0.18449   0.04862   0.00918   0.00000  Uiso   1.00
C243   C     0.05106   0.09692   0.01611   0.00000  Uiso   1.00
C244   C     0.32898   0.88721   0.94186   0.00000  Uiso   1.00
C245   C     0.37835   0.92592   0.90369   0.00000  Uiso   1.00
C246   C     0.38706   0.92873   0.85049   0.00000  Uiso   1.00
C247   C     0.43478   0.96690   0.82231   0.00000  Uiso   1.00
C248   C     0.38506   0.83505   0.98813   0.00000  Uiso   1.00
C249   C     0.39939   0.76147   0.00593   0.00000  Uiso   1.00
C250   C     0.45275   0.72313   0.04884   0.00000  Uiso   1.00
C251   C     0.27101   0.94366   0.96430   0.00000  Uiso   1.00
C252   C     0.18945   0.96138   0.96207   0.00000  Uiso   1.00
C253   C     0.14680   0.01447   0.98494   0.00000  Uiso   1.00
H254   H     0.42755   0.97652   0.00526   0.00000  Uiso   1.00
H255   H     0.49282   0.02455   0.91853   0.00000  Uiso   1.00
H256   H     0.50514   0.85731   0.07395   0.00000  Uiso   1.00
H257   H     0.29524   0.05719   0.03010   0.00000  Uiso   1.00
H258   H     0.54861   0.06274   0.81171   0.00000  Uiso   1.00
H259   H     0.57457   0.71011   0.13943   0.00000  Uiso   1.00
H260   H     0.13195   0.13160   0.04696   0.00000  Uiso   1.00
H261   H     0.29968   0.86067   0.92302   0.00000  Uiso   1.00
H262   H     0.35793   0.90235   0.83177   0.00000  Uiso   1.00
H263   H     0.37026   0.73510   0.98720   0.00000  Uiso   1.00
H264   H     0.16035   0.93499   0.94334   0.00000  Uiso   1.00
H265   H     0.43913   0.96356   0.74129   0.00000  Uiso   1.00
H266   H     0.46509   0.61092   0.06902   0.00000  Uiso   1.00
H267   H     0.02247   0.03242   0.97655   0.00000  Uiso   1.00
O268   O     0.53452   0.04264   0.71796   0.00000  Uiso   1.00
O269   O     0.56856   0.58000   0.14793   0.00000  Uiso   1.00
O270   O     0.98786   0.13299   0.02661   0.00000  Uiso   1.00
N271   N     0.51484   0.03369   0.80765   0.00000  Uiso   1.00
N272   N     0.53912   0.70400   0.11405   0.00000  Uiso   1.00
N273   N     0.12530   0.09805   0.02761   0.00000  Uiso   1.00
N274   N     0.45593   0.98032   0.76977   0.00000  Uiso   1.00
N275   N     0.48021   0.65063   0.07616   0.00000  Uiso   1.00
N276   N     0.06639   0.04468   0.98972   0.00000  Uiso   1.00
C277   C     0.36068   0.38068   0.16913   0.00000  Uiso   1.00
C278   C     0.31110   0.36828   0.21766   0.00000  Uiso   1.00
C279   C     0.24626   0.41955   0.22979   0.00000  Uiso   1.00
C280   C     0.20885   0.39755   0.27603   0.00000  Uiso   1.00
C281   C     0.12780   0.38906   0.34638   0.00000  Uiso   1.00
C282   C     0.35901   0.32607   0.14077   0.00000  Uiso   1.00
C283   C     0.33446   0.34185   0.08825   0.00000  Uiso   1.00
C284   C     0.33739   0.28430   0.06976   0.00000  Uiso   1.00
C285   C     0.33078   0.21027   0.02073   0.00000  Uiso   1.00
C286   C     0.44542   0.35842   0.19043   0.00000  Uiso   1.00
C287   C     0.49353   0.40139   0.17964   0.00000  Uiso   1.00
C288   C     0.56922   0.37108   0.20295   0.00000  Uiso   1.00
C289   C     0.69677   0.34728   0.23101   0.00000  Uiso   1.00
C290   C     0.40956   0.25043   0.22967   0.00000  Uiso   1.00
C291   C     0.33765   0.29754   0.25055   0.00000  Uiso   1.00
C292   C     0.30033   0.27545   0.29678   0.00000  Uiso   1.00
C293   C     0.23545   0.32668   0.30898   0.00000  Uiso   1.00
C294   C     0.38555   0.25533   0.17366   0.00000  Uiso   1.00
C295   C     0.38853   0.19775   0.15524   0.00000  Uiso   1.00
C296   C     0.36399   0.21343   0.10271   0.00000  Uiso   1.00
C297   C     0.47197   0.28768   0.22332   0.00000  Uiso   1.00
C298   C     0.54760   0.25729   0.24664   0.00000  Uiso   1.00
C299   C     0.59582   0.30021   0.23589   0.00000  Uiso   1.00
H300   H     0.34001   0.43575   0.14352   0.00000  Uiso   1.00
H301   H     0.22572   0.47429   0.20433   0.00000  Uiso   1.00
H302   H     0.31392   0.39660   0.06281   0.00000  Uiso   1.00
H303   H     0.47296   0.45613   0.15419   0.00000  Uiso   1.00
H304   H     0.11071   0.48582   0.28624   0.00000  Uiso   1.00
H305   H     0.29670   0.32199   0.98784   0.00000  Uiso   1.00
H306   H     0.63208   0.44754   0.18052   0.00000  Uiso   1.00
H307   H     0.43023   0.19535   0.25528   0.00000  Uiso   1.00
H308   H     0.32089   0.22070   0.32223   0.00000  Uiso   1.00
H309   H     0.40908   0.14301   0.18070   0.00000  Uiso   1.00
H310   H     0.56813   0.20255   0.27208   0.00000  Uiso   1.00
H311   H     0.18795   0.27999   0.38193   0.00000  Uiso   1.00
H312   H     0.37394   0.11617   0.08352   0.00000  Uiso   1.00
H313   H     0.70931   0.24172   0.27621   0.00000  Uiso   1.00
O314   O     0.07576   0.40391   0.37609   0.00000  Uiso   1.00
O315   O     0.31979   0.18898   0.98460   0.00000  Uiso   1.00
O316   O     0.75979   0.35370   0.23741   0.00000  Uiso   1.00
N317   N     0.14390   0.43390   0.29958   0.00000  Uiso   1.00
N318   N     0.31778   0.28074   0.02059   0.00000  Uiso   1.00
N319   N     0.63134   0.39811   0.20073   0.00000  Uiso   1.00
N320   N     0.18546   0.32315   0.35107   0.00000  Uiso   1.00
N321   N     0.35934   0.16998   0.07208   0.00000  Uiso   1.00
N322   N     0.67290   0.28736   0.25222   0.00000  Uiso   1.00
C323   C     0.00732   0.98791   0.29248   0.00000  Uiso   1.00
C324   C     0.01006   0.95709   0.35268   0.00000  Uiso   1.00
C325   C     0.07215   0.90199   0.38329   0.00000  Uiso   1.00
C326   C     0.06326   0.88152   0.43772   0.00000  Uiso   1.00
C327   C     0.07796   0.82859   0.52770   0.00000  Uiso   1.00
C328   C     0.99212   0.06819   0.28176   0.00000  Uiso   1.00
C329   C     0.03911   0.10650   0.25274   0.00000  Uiso   1.00
C330   C     0.01510   0.17956   0.24747   0.00000  Uiso   1.00
C331   C     0.00191   0.29913   0.22731   0.00000  Uiso   1.00
C332   C     0.93330   0.98070   0.27194   0.00000  Uiso   1.00
C333   C     0.93084   0.94546   0.23465   0.00000  Uiso   1.00
C334   C     0.85731   0.94487   0.22110   0.00000  Uiso   1.00
C335   C     0.75281   0.92859   0.18570   0.00000  Uiso   1.00
C336   C     0.88113   0.04955   0.33469   0.00000  Uiso   1.00
C337   C     0.94152   0.99057   0.37560   0.00000  Uiso   1.00
C338   C     0.93253   0.97018   0.42999   0.00000  Uiso   1.00
C339   C     0.99459   0.91505   0.46069   0.00000  Uiso   1.00
C340   C     0.92357   0.10167   0.30468   0.00000  Uiso   1.00
C341   C     0.89949   0.17469   0.29944   0.00000  Uiso   1.00
C342   C     0.94643   0.21310   0.27043   0.00000  Uiso   1.00
C343   C     0.86476   0.01418   0.29486   0.00000  Uiso   1.00
C344   C     0.79122   0.01365   0.28136   0.00000  Uiso   1.00
C345   C     0.78864   0.97841   0.24406   0.00000  Uiso   1.00
H346   H     0.06068   0.96185   0.27463   0.00000  Uiso   1.00
H347   H     0.12519   0.87609   0.36554   0.00000  Uiso   1.00
H348   H     0.09214   0.08058   0.23500   0.00000  Uiso   1.00
H349   H     0.98389   0.91956   0.21692   0.00000  Uiso   1.00
H350   H     0.16649   0.79580   0.47643   0.00000  Uiso   1.00
H351   H     0.09680   0.22697   0.20118   0.00000  Uiso   1.00
H352   H     0.86853   0.88743   0.16305   0.00000  Uiso   1.00
H353   H     0.82776   0.07562   0.35254   0.00000  Uiso   1.00
H354   H     0.87948   0.99610   0.44772   0.00000  Uiso   1.00
H355   H     0.84644   0.20058   0.31719   0.00000  Uiso   1.00
H356   H     0.73819   0.03956   0.29911   0.00000  Uiso   1.00
H357   H     0.96706   0.89320   0.54314   0.00000  Uiso   1.00
H358   H     0.89737   0.32437   0.26788   0.00000  Uiso   1.00
H359   H     0.66911   0.98483   0.22976   0.00000  Uiso   1.00
O360   O     0.10501   0.79016   0.57100   0.00000  Uiso   1.00
O361   O     0.01357   0.35583   0.20987   0.00000  Uiso   1.00
O362   O     0.71410   0.91036   0.15984   0.00000  Uiso   1.00
N363   N     0.11245   0.82963   0.47907   0.00000  Uiso   1.00
N364   N     0.04730   0.23274   0.22173   0.00000  Uiso   1.00
N365   N     0.83389   0.91532   0.18607   0.00000  Uiso   1.00
N366   N     0.00514   0.88204   0.51497   0.00000  Uiso   1.00
N367   N     0.93999   0.28515   0.25763   0.00000  Uiso   1.00
N368   N     0.72658   0.96773   0.22196   0.00000  Uiso   1.00
C369   C     0.64564   0.69515   0.31696   0.00000  Uiso   1.00
C370   C     0.63159   0.69312   0.37495   0.00000  Uiso   1.00
C371   C     0.59809   0.64757   0.41093   0.00000  Uiso   1.00
C372   C     0.59034   0.65407   0.46214   0.00000  Uiso   1.00
C373   C     0.56478   0.64324   0.54995   0.00000  Uiso   1.00
C374   C     0.73354   0.68360   0.30994   0.00000  Uiso   1.00
C375   C     0.78575   0.63006   0.29126   0.00000  Uiso   1.00
C376   C     0.86382   0.62856   0.28774   0.00000  Uiso   1.00
C377   C     0.99652   0.60299   0.27458   0.00000  Uiso   1.00
C378   C     0.60320   0.77214   0.28449   0.00000  Uiso   1.00
C379   C     0.54583   0.79304   0.24439   0.00000  Uiso   1.00
C380   C     0.51417   0.86608   0.21943   0.00000  Uiso   1.00
C381   C     0.44449   0.97798   0.16676   0.00000  Uiso   1.00
C382   C     0.69146   0.78769   0.34392   0.00000  Uiso   1.00
C383   C     0.65648   0.74338   0.38959   0.00000  Uiso   1.00
C384   C     0.64878   0.74996   0.44076   0.00000  Uiso   1.00
C385   C     0.61527   0.70442   0.47681   0.00000  Uiso   1.00
C386   C     0.75843   0.73387   0.32458   0.00000  Uiso   1.00
C387   C     0.83644   0.73245   0.32108   0.00000  Uiso   1.00
C388   C     0.88875   0.67891   0.30241   0.00000  Uiso   1.00
C389   C     0.62808   0.82241   0.29913   0.00000  Uiso   1.00
C390   C     0.59651   0.89543   0.27422   0.00000  Uiso   1.00
C391   C     0.53910   0.91644   0.23410   0.00000  Uiso   1.00
H392   H     0.62628   0.65601   0.30556   0.00000  Uiso   1.00
H393   H     0.57885   0.60867   0.39958   0.00000  Uiso   1.00
H394   H     0.76648   0.59117   0.27992   0.00000  Uiso   1.00
H395   H     0.52659   0.75413   0.23307   0.00000  Uiso   1.00
H396   H     0.53727   0.57833   0.51028   0.00000  Uiso   1.00
H397   H     0.93288   0.54145   0.25796   0.00000  Uiso   1.00
H398   H     0.42703   0.88507   0.15915   0.00000  Uiso   1.00
H399   H     0.71083   0.82683   0.35532   0.00000  Uiso   1.00
H400   H     0.66804   0.78886   0.45208   0.00000  Uiso   1.00
H401   H     0.85567   0.77136   0.33242   0.00000  Uiso   1.00
H402   H     0.61578   0.93431   0.28556   0.00000  Uiso   1.00
H403   H     0.60966   0.72458   0.55289   0.00000  Uiso   1.00
H404   H     0.00528   0.68770   0.30056   0.00000  Uiso   1.00
H405   H     0.49943   0.03132   0.20176   0.00000  Uiso   1.00
O406   O     0.54381   0.62338   0.59434   0.00000  Uiso   1.00
O407   O     0.06284   0.57500   0.26329   0.00000  Uiso   1.00
O408   O     0.39918   0.02582   0.13366   0.00000  Uiso   1.00
N409   N     0.56016   0.61797   0.50703   0.00000  Uiso   1.00
N410   N     0.93004   0.58348   0.27113   0.00000  Uiso   1.00
N411   N     0.45713   0.90474   0.17874   0.00000  Uiso   1.00
N412   N     0.59912   0.69666   0.52996   0.00000  Uiso   1.00
N413   N     0.96900   0.66218   0.29406   0.00000  Uiso   1.00
N414   N     0.49609   0.98343   0.20167   0.00000  Uiso   1.00
C415   C     0.46313   0.64118   0.75527   0.00000  Uiso   1.00
C416   C     0.43987   0.63345   0.81274   0.00000  Uiso   1.00
C417   C     0.48822   0.59055   0.85734   0.00000  Uiso   1.00
C418   C     0.45591   0.59086   0.90641   0.00000  Uiso   1.00
C419   C     0.43163   0.57249   0.99499   0.00000  Uiso   1.00
C420   C     0.40301   0.62159   0.72895   0.00000  Uiso   1.00
C421   C     0.42037   0.56873   0.70309   0.00000  Uiso   1.00
C422   C     0.35703   0.55906   0.68162   0.00000  Uiso   1.00
C423   C     0.27552   0.52232   0.64008   0.00000  Uiso   1.00
C424   C     0.44825   0.72113   0.72951   0.00000  Uiso   1.00
C425   C     0.50365   0.75197   0.70411   0.00000  Uiso   1.00
C426   C     0.47839   0.82611   0.68310   0.00000  Uiso   1.00
C427   C     0.46713   0.94392   0.64243   0.00000  Uiso   1.00
C428   C     0.31977   0.71801   0.76310   0.00000  Uiso   1.00
C429   C     0.36200   0.67518   0.81699   0.00000  Uiso   1.00
C430   C     0.32961   0.67556   0.86600   0.00000  Uiso   1.00
C431   C     0.37790   0.63268   0.91067   0.00000  Uiso   1.00
C432   C     0.32514   0.66332   0.73320   0.00000  Uiso   1.00
C433   C     0.26176   0.65374   0.71176   0.00000  Uiso   1.00
C434   C     0.27902   0.60087   0.68588   0.00000  Uiso   1.00
C435   C     0.37039   0.76287   0.73376   0.00000  Uiso   1.00
C436   C     0.34503   0.83698   0.71278   0.00000  Uiso   1.00
C437   C     0.40038   0.86792   0.68736   0.00000  Uiso   1.00
H438   H     0.52375   0.60868   0.75196   0.00000  Uiso   1.00
H439   H     0.54848   0.55826   0.85403   0.00000  Uiso   1.00
H440   H     0.48063   0.53645   0.69980   0.00000  Uiso   1.00
H441   H     0.56390   0.71965   0.70083   0.00000  Uiso   1.00
H442   H     0.54154   0.52074   0.96908   0.00000  Uiso   1.00
H443   H     0.39850   0.47476   0.64386   0.00000  Uiso   1.00
H444   H     0.57408   0.86109   0.64602   0.00000  Uiso   1.00
H445   H     0.25914   0.75050   0.76641   0.00000  Uiso   1.00
H446   H     0.26935   0.70787   0.86928   0.00000  Uiso   1.00
H447   H     0.20151   0.68605   0.71505   0.00000  Uiso   1.00
H448   H     0.28477   0.86926   0.71608   0.00000  Uiso   1.00
H449   H     0.31499   0.64216   0.98145   0.00000  Uiso   1.00
H450   H     0.17195   0.59618   0.65623   0.00000  Uiso   1.00
H451   H     0.34753   0.98252   0.65839   0.00000  Uiso   1.00
O452   O     0.43975   0.55082   0.04267   0.00000  Uiso   1.00
O453   O     0.25208   0.49051   0.61599   0.00000  Uiso   1.00
O454   O     0.48244   0.99737   0.61883   0.00000  Uiso   1.00
N455   N     0.48683   0.55518   0.95787   0.00000  Uiso   1.00
N456   N     0.35309   0.51218   0.65382   0.00000  Uiso   1.00
N457   N     0.51723   0.87337   0.65583   0.00000  Uiso   1.00
N458   N     0.36492   0.62052   0.96453   0.00000  Uiso   1.00
N459   N     0.23118   0.57752   0.66048   0.00000  Uiso   1.00
N460   N     0.39533   0.93871   0.66249   0.00000  Uiso   1.00
C461   C     0.16684   0.32873   0.68540   0.00000  Uiso   1.00
C462   C     0.19488   0.32225   0.74084   0.00000  Uiso   1.00
C463   C     0.19616   0.37877   0.75921   0.00000  Uiso   1.00
C464   C     0.22396   0.36170   0.81118   0.00000  Uiso   1.00
C465   C     0.26364   0.36244   0.89234   0.00000  Uiso   1.00
C466   C     0.23566   0.28054   0.66287   0.00000  Uiso   1.00
C467   C     0.27121   0.30199   0.61566   0.00000  Uiso   1.00
C468   C     0.33333   0.24980   0.60199   0.00000  Uiso   1.00
C469   C     0.43628   0.18577   0.56207   0.00000  Uiso   1.00
C470   C     0.10228   0.29375   0.69336   0.00000  Uiso   1.00
C471   C     0.02568   0.32629   0.67178   0.00000  Uiso   1.00
C472   C     0.97551   0.28522   0.68377   0.00000  Uiso   1.00
C473   C     0.87137   0.24171   0.69118   0.00000  Uiso   1.00
C474   C     0.21395   0.19792   0.74504   0.00000  Uiso   1.00
C475   C     0.22047   0.25120   0.77324   0.00000  Uiso   1.00
C476   C     0.24827   0.23404   0.82520   0.00000  Uiso   1.00
C477   C     0.24959   0.29051   0.84364   0.00000  Uiso   1.00
C478   C     0.26125   0.20949   0.69526   0.00000  Uiso   1.00
C479   C     0.32333   0.15726   0.68165   0.00000  Uiso   1.00
C480   C     0.35896   0.17862   0.63445   0.00000  Uiso   1.00
C481   C     0.12787   0.22270   0.72575   0.00000  Uiso   1.00
C482   C     0.07780   0.18156   0.73777   0.00000  Uiso   1.00
C483   C     0.00115   0.21404   0.71622   0.00000  Uiso   1.00
H484   H     0.14693   0.38405   0.66017   0.00000  Uiso   1.00
H485   H     0.17636   0.43375   0.73412   0.00000  Uiso   1.00
H486   H     0.25139   0.35697   0.59060   0.00000  Uiso   1.00
H487   H     0.00591   0.38128   0.64671   0.00000  Uiso   1.00
H488   H     0.22029   0.45751   0.83039   0.00000  Uiso   1.00
H489   H     0.37849   0.29563   0.52775   0.00000  Uiso   1.00
H490   H     0.86084   0.34688   0.64607   0.00000  Uiso   1.00
H491   H     0.23387   0.14259   0.77027   0.00000  Uiso   1.00
H492   H     0.26807   0.17905   0.85026   0.00000  Uiso   1.00
H493   H     0.34311   0.10227   0.70673   0.00000  Uiso   1.00
H494   H     0.09762   0.12658   0.76284   0.00000  Uiso   1.00
H495   H     0.29474   0.25078   0.92465   0.00000  Uiso   1.00
H496   H     0.45293   0.08890   0.62201   0.00000  Uiso   1.00
H497   H     0.93528   0.14016   0.74033   0.00000  Uiso   1.00
O498   O     0.27847   0.38248   0.92815   0.00000  Uiso   1.00
O499   O     0.48600   0.17009   0.53110   0.00000  Uiso   1.00
O500   O     0.80686   0.23734   0.68633   0.00000  Uiso   1.00
N501   N     0.23311   0.40386   0.84160   0.00000  Uiso   1.00
N502   N     0.38102   0.25251   0.55866   0.00000  Uiso   1.00
N503   N     0.89706   0.30042   0.66926   0.00000  Uiso   1.00
N504   N     0.27316   0.29262   0.89232   0.00000  Uiso   1.00
N505   N     0.42107   0.14127   0.60938   0.00000  Uiso   1.00
N506   N     0.93712   0.18919   0.71998   0.00000  Uiso   1.00
C507   C     0.73669   0.07264   0.82900   0.00000  Uiso   1.00
C508   C     0.70583   0.05810   0.88486   0.00000  Uiso   1.00
C509   C     0.67209   0.00519   0.90818   0.00000  Uiso   1.00
C510   C     0.64755   0.00058   0.95964   0.00000  Uiso   1.00
C511   C     0.59822   0.97093   0.04224   0.00000  Uiso   1.00
C512   C     0.69288   0.15120   0.80086   0.00000  Uiso   1.00
C513   C     0.64826   0.17656   0.75355   0.00000  Uiso   1.00
C514   C     0.61284   0.25033   0.73428   0.00000  Uiso   1.00
C515   C     0.54346   0.36521   0.68645   0.00000  Uiso   1.00
C516   C     0.82262   0.06750   0.83549   0.00000  Uiso   1.00
C517   C     0.88709   0.02251   0.81728   0.00000  Uiso   1.00
C518   C     0.96089   0.02582   0.82717   0.00000  Uiso   1.00
C519   C     0.09296   0.01076   0.83310   0.00000  Uiso   1.00
C520   C     0.75311   0.15855   0.87891   0.00000  Uiso   1.00
C521   C     0.71474   0.10476   0.91197   0.00000  Uiso   1.00
C522   C     0.69025   0.10023   0.96340   0.00000  Uiso   1.00
C523   C     0.65648   0.04732   0.98680   0.00000  Uiso   1.00
C524   C     0.70180   0.19786   0.82796   0.00000  Uiso   1.00
C525   C     0.66643   0.27161   0.80876   0.00000  Uiso   1.00
C526   C     0.62177   0.29707   0.76144   0.00000  Uiso   1.00
C527   C     0.83154   0.11416   0.86260   0.00000  Uiso   1.00
C528   C     0.90525   0.11755   0.87251   0.00000  Uiso   1.00
C529   C     0.96983   0.07257   0.85432   0.00000  Uiso   1.00
H530   H     0.72975   0.03632   0.80789   0.00000  Uiso   1.00
H531   H     0.66519   0.96909   0.88719   0.00000  Uiso   1.00
H532   H     0.64138   0.14044   0.73258   0.00000  Uiso   1.00
H533   H     0.88016   0.98641   0.79631   0.00000  Uiso   1.00
H534   H     0.59752   0.91515   0.98705   0.00000  Uiso   1.00
H535   H     0.54734   0.27645   0.66103   0.00000  Uiso   1.00
H536   H     0.05086   0.95165   0.79541   0.00000  Uiso   1.00
H537   H     0.76006   0.19488   0.90002   0.00000  Uiso   1.00
H538   H     0.69716   0.13635   0.98437   0.00000  Uiso   1.00
H539   H     0.67335   0.30770   0.82975   0.00000  Uiso   1.00
H540   H     0.91214   0.15367   0.89348   0.00000  Uiso   1.00
H541   H     0.62347   0.05091   0.06593   0.00000  Uiso   1.00
H542   H     0.57329   0.41221   0.73990   0.00000  Uiso   1.00
H543   H     0.07681   0.08741   0.87429   0.00000  Uiso   1.00
O544   O     0.56855   0.94169   0.08031   0.00000  Uiso   1.00
O545   O     0.50273   0.41569   0.65257   0.00000  Uiso   1.00
O546   O     0.16334   0.98956   0.82889   0.00000  Uiso   1.00
N547   N     0.61227   0.95513   0.99404   0.00000  Uiso   1.00
N548   N     0.56535   0.29291   0.68923   0.00000  Uiso   1.00
N549   N     0.03610   0.98927   0.81486   0.00000  Uiso   1.00
N550   N     0.62623   0.02818   0.03648   0.00000  Uiso   1.00
N551   N     0.57931   0.36596   0.73167   0.00000  Uiso   1.00
N552   N     0.05006   0.06232   0.85730   0.00000  Uiso   1.00
