data_job_01768
_audit_creation_date              2018-12-19
_audit_creation_method            'Materials Studio'
_symmetry_space_group_name_H-M    'P1'
_symmetry_Int_Tables_number       1
_symmetry_cell_setting            triclinic
loop_
_symmetry_equiv_pos_as_xyz
  x,y,z
_cell_length_a                    10.8090
_cell_length_b                    11.8598
_cell_length_c                    15.3875
_cell_angle_alpha                 107.7906
_cell_angle_beta                  85.4761
_cell_angle_gamma                 65.4288
loop_
_atom_site_label
_atom_site_type_symbol
_atom_site_fract_x
_atom_site_fract_y
_atom_site_fract_z
_atom_site_U_iso_or_equiv
_atom_site_adp_type
_atom_site_occupancy
C1     C     0.51514   0.90520   0.21640   0.00000  Uiso   1.00
C2     C     0.51570   0.82123   0.27435   0.00000  Uiso   1.00
C3     C     0.61632   0.77359   0.32259   0.00000  Uiso   1.00
C4     C     0.59803   0.69856   0.37145   0.00000  Uiso   1.00
C5     C     0.61639   0.57213   0.46131   0.00000  Uiso   1.00
C6     C     0.50957   0.82903   0.11829   0.00000  Uiso   1.00
C7     C     0.60503   0.78796   0.03532   0.00000  Uiso   1.00
C8     C     0.58156   0.71952   0.95280   0.00000  Uiso   1.00
C9     C     0.59036   0.60528   0.80036   0.00000  Uiso   1.00
C10    C     0.37528   0.03209   0.25724   0.00000  Uiso   1.00
C11    C     0.35783   0.16177   0.29108   0.00000  Uiso   1.00
C12    C     0.22129   0.26430   0.32553   0.00000  Uiso   1.00
C13    C     0.02159   0.46535   0.38883   0.00000  Uiso   1.00
C14    C     0.30372   0.85668   0.21739   0.00000  Uiso   1.00
C15    C     0.40086   0.79487   0.27488   0.00000  Uiso   1.00
C16    C     0.38240   0.71991   0.32368   0.00000  Uiso   1.00
C17    C     0.48298   0.67217   0.37199   0.00000  Uiso   1.00
C18    C     0.39474   0.80267   0.11882   0.00000  Uiso   1.00
C19    C     0.37111   0.73428   0.03641   0.00000  Uiso   1.00
C20    C     0.46652   0.69312   0.95334   0.00000  Uiso   1.00
C21    C     0.26044   0.00574   0.25777   0.00000  Uiso   1.00
C22    C     0.12391   0.10809   0.29217   0.00000  Uiso   1.00
C23    C     0.10624   0.23790   0.32606   0.00000  Uiso   1.00
H24    H     0.60455   0.92572   0.21598   0.00000  Uiso   1.00
H25    H     0.70519   0.79399   0.32216   0.00000  Uiso   1.00
H26    H     0.69388   0.80838   0.03493   0.00000  Uiso   1.00
H27    H     0.44672   0.18213   0.29065   0.00000  Uiso   1.00
H28    H     0.76614   0.63629   0.44008   0.00000  Uiso   1.00
H29    H     0.74228   0.66667   0.83444   0.00000  Uiso   1.00
H30    H     0.22109   0.45479   0.37368   0.00000  Uiso   1.00
H31    H     0.21430   0.83616   0.21780   0.00000  Uiso   1.00
H32    H     0.29352   0.69953   0.32408   0.00000  Uiso   1.00
H33    H     0.28223   0.71391   0.03685   0.00000  Uiso   1.00
H34    H     0.03506   0.08766   0.29257   0.00000  Uiso   1.00
H35    H     0.43202   0.55961   0.44163   0.00000  Uiso   1.00
H36    H     0.40817   0.58999   0.83599   0.00000  Uiso   1.00
H37    H     0.88697   0.37811   0.37523   0.00000  Uiso   1.00
O38    O     0.65826   0.50965   0.51071   0.00000  Uiso   1.00
O39    O     0.62695   0.54953   0.71613   0.00000  Uiso   1.00
O40    O     0.94316   0.58352   0.42361   0.00000  Uiso   1.00
N41    N     0.67662   0.63702   0.42587   0.00000  Uiso   1.00
N42    N     0.65433   0.66540   0.85964   0.00000  Uiso   1.00
N43    N     0.16705   0.40223   0.36376   0.00000  Uiso   1.00
N44    N     0.49683   0.59576   0.42671   0.00000  Uiso   1.00
N45    N     0.47454   0.62414   0.86047   0.00000  Uiso   1.00
N46    N     0.98727   0.36097   0.36460   0.00000  Uiso   1.00
C47    C     0.48486   0.09480   0.78360   0.00000  Uiso   1.00
C48    C     0.48430   0.17877   0.72565   0.00000  Uiso   1.00
C49    C     0.38368   0.22641   0.67741   0.00000  Uiso   1.00
C50    C     0.40197   0.30144   0.62855   0.00000  Uiso   1.00
C51    C     0.38361   0.42787   0.53869   0.00000  Uiso   1.00
C52    C     0.49043   0.17097   0.88171   0.00000  Uiso   1.00
C53    C     0.39497   0.21204   0.96468   0.00000  Uiso   1.00
C54    C     0.41844   0.28048   0.04720   0.00000  Uiso   1.00
C55    C     0.40964   0.39472   0.19964   0.00000  Uiso   1.00
C56    C     0.62472   0.96791   0.74276   0.00000  Uiso   1.00
C57    C     0.64218   0.83823   0.70892   0.00000  Uiso   1.00
C58    C     0.77871   0.73570   0.67447   0.00000  Uiso   1.00
C59    C     0.97841   0.53465   0.61117   0.00000  Uiso   1.00
C60    C     0.69628   0.14332   0.78261   0.00000  Uiso   1.00
C61    C     0.59914   0.20513   0.72512   0.00000  Uiso   1.00
C62    C     0.61760   0.28009   0.67632   0.00000  Uiso   1.00
C63    C     0.51702   0.32783   0.62801   0.00000  Uiso   1.00
C64    C     0.60526   0.19733   0.88118   0.00000  Uiso   1.00
C65    C     0.62889   0.26572   0.96359   0.00000  Uiso   1.00
C66    C     0.53348   0.30688   0.04666   0.00000  Uiso   1.00
C67    C     0.73956   0.99426   0.74223   0.00000  Uiso   1.00
C68    C     0.87609   0.89191   0.70783   0.00000  Uiso   1.00
C69    C     0.89376   0.76210   0.67394   0.00000  Uiso   1.00
H70    H     0.39545   0.07428   0.78402   0.00000  Uiso   1.00
H71    H     0.29481   0.20601   0.67784   0.00000  Uiso   1.00
H72    H     0.30612   0.19162   0.96507   0.00000  Uiso   1.00
H73    H     0.55328   0.81787   0.70935   0.00000  Uiso   1.00
H74    H     0.23386   0.36371   0.55992   0.00000  Uiso   1.00
H75    H     0.25772   0.33333   0.16556   0.00000  Uiso   1.00
H76    H     0.77891   0.54521   0.62632   0.00000  Uiso   1.00
H77    H     0.78570   0.16384   0.78220   0.00000  Uiso   1.00
H78    H     0.70648   0.30047   0.67592   0.00000  Uiso   1.00
H79    H     0.71777   0.28609   0.96315   0.00000  Uiso   1.00
H80    H     0.96494   0.91234   0.70743   0.00000  Uiso   1.00
H81    H     0.56798   0.44039   0.55837   0.00000  Uiso   1.00
H82    H     0.59183   0.41001   0.16401   0.00000  Uiso   1.00
H83    H     0.11303   0.62189   0.62477   0.00000  Uiso   1.00
O84    O     0.34174   0.49035   0.48929   0.00000  Uiso   1.00
O85    O     0.37305   0.45047   0.28387   0.00000  Uiso   1.00
O86    O     0.05684   0.41648   0.57639   0.00000  Uiso   1.00
N87    N     0.32338   0.36298   0.57413   0.00000  Uiso   1.00
N88    N     0.34567   0.33460   0.14036   0.00000  Uiso   1.00
N89    N     0.83295   0.59777   0.63624   0.00000  Uiso   1.00
N90    N     0.50317   0.40424   0.57329   0.00000  Uiso   1.00
N91    N     0.52546   0.37586   0.13953   0.00000  Uiso   1.00
N92    N     0.01273   0.63903   0.63540   0.00000  Uiso   1.00
