data_job_03407
_audit_creation_date              2018-12-19
_audit_creation_method            'Materials Studio'
_symmetry_space_group_name_H-M    'P1'
_symmetry_Int_Tables_number       1
_symmetry_cell_setting            triclinic
loop_
_symmetry_equiv_pos_as_xyz
  x,y,z
_cell_length_a                    23.3050
_cell_length_b                    23.3050
_cell_length_c                    13.9347
_cell_angle_alpha                 90.0000
_cell_angle_beta                  90.0000
_cell_angle_gamma                 120.0000
loop_
_atom_site_label
_atom_site_type_symbol
_atom_site_fract_x
_atom_site_fract_y
_atom_site_fract_z
_atom_site_U_iso_or_equiv
_atom_site_adp_type
_atom_site_occupancy
C1     C     0.67670   0.41267   0.96466   0.00000  Uiso   1.00
C2     C     0.74091   0.43075   0.91198   0.00000  Uiso   1.00
C3     C     0.76591   0.38863   0.89575   0.00000  Uiso   1.00
C4     C     0.82542   0.41461   0.84616   0.00000  Uiso   1.00
C5     C     0.92009   0.43270   0.76929   0.00000  Uiso   1.00
C6     C     0.69580   0.46255   0.04628   0.00000  Uiso   1.00
C7     C     0.68286   0.44716   0.14295   0.00000  Uiso   1.00
C8     C     0.70438   0.49991   0.20640   0.00000  Uiso   1.00
C9     C     0.72897   0.56736   0.33802   0.00000  Uiso   1.00
C10    C     0.63534   0.42764   0.89516   0.00000  Uiso   1.00
C11    C     0.57155   0.38291   0.86480   0.00000  Uiso   1.00
C12    C     0.54215   0.40627   0.80104   0.00000  Uiso   1.00
C13    C     0.47286   0.41952   0.69803   0.00000  Uiso   1.00
C14    C     0.73792   0.53369   0.90545   0.00000  Uiso   1.00
C15    C     0.77417   0.49649   0.87983   0.00000  Uiso   1.00
C16    C     0.83365   0.52253   0.83024   0.00000  Uiso   1.00
C17    C     0.85873   0.48046   0.81393   0.00000  Uiso   1.00
C18    C     0.72905   0.52828   0.01412   0.00000  Uiso   1.00
C19    C     0.75059   0.58106   0.07744   0.00000  Uiso   1.00
C20    C     0.73769   0.56576   0.17418   0.00000  Uiso   1.00
C21    C     0.66859   0.49338   0.86300   0.00000  Uiso   1.00
C22    C     0.63929   0.51681   0.79928   0.00000  Uiso   1.00
C23    C     0.57547   0.47212   0.76882   0.00000  Uiso   1.00
H24    H     0.65081   0.36149   0.98971   0.00000  Uiso   1.00
H25    H     0.74017   0.33776   0.92066   0.00000  Uiso   1.00
H26    H     0.65712   0.39629   0.16781   0.00000  Uiso   1.00
H27    H     0.54583   0.33204   0.88970   0.00000  Uiso   1.00
H28    H     0.85391   0.34046   0.82995   0.00000  Uiso   1.00
H29    H     0.67879   0.46385   0.35109   0.00000  Uiso   1.00
H30    H     0.44410   0.32838   0.76464   0.00000  Uiso   1.00
H31    H     0.76381   0.58487   0.88041   0.00000  Uiso   1.00
H32    H     0.85937   0.57341   0.80536   0.00000  Uiso   1.00
H33    H     0.77632   0.63193   0.05252   0.00000  Uiso   1.00
H34    H     0.66503   0.56768   0.77441   0.00000  Uiso   1.00
H35    H     0.95066   0.53172   0.73638   0.00000  Uiso   1.00
H36    H     0.77553   0.65511   0.25752   0.00000  Uiso   1.00
H37    H     0.54086   0.51964   0.67106   0.00000  Uiso   1.00
O38    O     0.96312   0.42452   0.73579   0.00000  Uiso   1.00
O39    O     0.73335   0.58641   0.41951   0.00000  Uiso   1.00
O40    O     0.42546   0.40867   0.65009   0.00000  Uiso   1.00
N41    N     0.86356   0.38704   0.81821   0.00000  Uiso   1.00
N42    N     0.69984   0.50241   0.30545   0.00000  Uiso   1.00
N43    N     0.48042   0.37576   0.75718   0.00000  Uiso   1.00
N44    N     0.91562   0.48995   0.76786   0.00000  Uiso   1.00
N45    N     0.75190   0.60532   0.25510   0.00000  Uiso   1.00
N46    N     0.53248   0.47867   0.70683   0.00000  Uiso   1.00
C47    C     0.58733   0.26403   0.63133   0.00000  Uiso   1.00
C48    C     0.56925   0.31016   0.57865   0.00000  Uiso   1.00
C49    C     0.61137   0.37728   0.56242   0.00000  Uiso   1.00
C50    C     0.58539   0.41081   0.51282   0.00000  Uiso   1.00
C51    C     0.56730   0.48739   0.43596   0.00000  Uiso   1.00
C52    C     0.53745   0.23325   0.71294   0.00000  Uiso   1.00
C53    C     0.55284   0.23570   0.80962   0.00000  Uiso   1.00
C54    C     0.50009   0.20447   0.87307   0.00000  Uiso   1.00
C55    C     0.43264   0.16161   0.00469   0.00000  Uiso   1.00
C56    C     0.57236   0.20770   0.56183   0.00000  Uiso   1.00
C57    C     0.61709   0.18864   0.53146   0.00000  Uiso   1.00
C58    C     0.59373   0.13589   0.46770   0.00000  Uiso   1.00
C59    C     0.58048   0.05334   0.36470   0.00000  Uiso   1.00
C60    C     0.46631   0.20423   0.57212   0.00000  Uiso   1.00
C61    C     0.50351   0.27768   0.54649   0.00000  Uiso   1.00
C62    C     0.47747   0.31111   0.49690   0.00000  Uiso   1.00
C63    C     0.51954   0.37827   0.48060   0.00000  Uiso   1.00
C64    C     0.47172   0.20077   0.68078   0.00000  Uiso   1.00
C65    C     0.41894   0.16953   0.74410   0.00000  Uiso   1.00
C66    C     0.43424   0.17193   0.84085   0.00000  Uiso   1.00
C67    C     0.50662   0.17521   0.52966   0.00000  Uiso   1.00
C68    C     0.48319   0.12248   0.46595   0.00000  Uiso   1.00
C69    C     0.52788   0.10335   0.43549   0.00000  Uiso   1.00
H70    H     0.63851   0.28932   0.65637   0.00000  Uiso   1.00
H71    H     0.66224   0.40240   0.58733   0.00000  Uiso   1.00
H72    H     0.60371   0.26083   0.83448   0.00000  Uiso   1.00
H73    H     0.66796   0.21379   0.55637   0.00000  Uiso   1.00
H74    H     0.65954   0.51346   0.49662   0.00000  Uiso   1.00
H75    H     0.53615   0.21493   0.01776   0.00000  Uiso   1.00
H76    H     0.67162   0.11572   0.43130   0.00000  Uiso   1.00
H77    H     0.41513   0.17893   0.54708   0.00000  Uiso   1.00
H78    H     0.42659   0.28596   0.47203   0.00000  Uiso   1.00
H79    H     0.36807   0.14439   0.71919   0.00000  Uiso   1.00
H80    H     0.43232   0.09735   0.44108   0.00000  Uiso   1.00
H81    H     0.46828   0.41895   0.40304   0.00000  Uiso   1.00
H82    H     0.34489   0.12042   0.92419   0.00000  Uiso   1.00
H83    H     0.48036   0.02122   0.33773   0.00000  Uiso   1.00
O84    O     0.57548   0.53860   0.40246   0.00000  Uiso   1.00
O85    O     0.41359   0.14694   0.08617   0.00000  Uiso   1.00
O86    O     0.59133   0.01679   0.31676   0.00000  Uiso   1.00
N87    N     0.61296   0.47652   0.48488   0.00000  Uiso   1.00
N88    N     0.49759   0.19743   0.97212   0.00000  Uiso   1.00
N89    N     0.62424   0.10467   0.42385   0.00000  Uiso   1.00
N90    N     0.51005   0.42567   0.43452   0.00000  Uiso   1.00
N91    N     0.39468   0.14658   0.92176   0.00000  Uiso   1.00
N92    N     0.52133   0.05381   0.37350   0.00000  Uiso   1.00
C93    C     0.73597   0.32330   0.29800   0.00000  Uiso   1.00
C94    C     0.68984   0.25909   0.24532   0.00000  Uiso   1.00
C95    C     0.62272   0.23409   0.22908   0.00000  Uiso   1.00
C96    C     0.58919   0.17458   0.17949   0.00000  Uiso   1.00
C97    C     0.51261   0.07991   0.10263   0.00000  Uiso   1.00
C98    C     0.76675   0.30420   0.37961   0.00000  Uiso   1.00
C99    C     0.76430   0.31714   0.47628   0.00000  Uiso   1.00
C100   C     0.79553   0.29562   0.53973   0.00000  Uiso   1.00
C101   C     0.83839   0.27103   0.67135   0.00000  Uiso   1.00
C102   C     0.79230   0.36466   0.22850   0.00000  Uiso   1.00
C103   C     0.81136   0.42845   0.19813   0.00000  Uiso   1.00
C104   C     0.86411   0.45785   0.13437   0.00000  Uiso   1.00
C105   C     0.94666   0.52714   0.03137   0.00000  Uiso   1.00
C106   C     0.79577   0.26208   0.23878   0.00000  Uiso   1.00
C107   C     0.72232   0.22583   0.21316   0.00000  Uiso   1.00
C108   C     0.68889   0.16635   0.16357   0.00000  Uiso   1.00
C109   C     0.62173   0.14127   0.14727   0.00000  Uiso   1.00
C110   C     0.79923   0.27095   0.34745   0.00000  Uiso   1.00
C111   C     0.83047   0.24941   0.41077   0.00000  Uiso   1.00
C112   C     0.82807   0.26231   0.50752   0.00000  Uiso   1.00
C113   C     0.82479   0.33141   0.19633   0.00000  Uiso   1.00
C114   C     0.87752   0.36071   0.13261   0.00000  Uiso   1.00
C115   C     0.89665   0.42453   0.10215   0.00000  Uiso   1.00
H116   H     0.71068   0.34919   0.32304   0.00000  Uiso   1.00
H117   H     0.59760   0.25983   0.25399   0.00000  Uiso   1.00
H118   H     0.73917   0.34288   0.50115   0.00000  Uiso   1.00
H119   H     0.78621   0.45417   0.22303   0.00000  Uiso   1.00
H120   H     0.48654   0.14609   0.16329   0.00000  Uiso   1.00
H121   H     0.78507   0.32121   0.68443   0.00000  Uiso   1.00
H122   H     0.88428   0.55590   0.09797   0.00000  Uiso   1.00
H123   H     0.82107   0.23619   0.21375   0.00000  Uiso   1.00
H124   H     0.71404   0.14063   0.13869   0.00000  Uiso   1.00
H125   H     0.85561   0.22368   0.38586   0.00000  Uiso   1.00
H126   H     0.90265   0.33497   0.10774   0.00000  Uiso   1.00
H127   H     0.58105   0.04934   0.06971   0.00000  Uiso   1.00
H128   H     0.87958   0.22447   0.59085   0.00000  Uiso   1.00
H129   H     0.97878   0.45914   0.00440   0.00000  Uiso   1.00
O130   O     0.46140   0.03688   0.06913   0.00000  Uiso   1.00
O131   O     0.85306   0.26665   0.75284   0.00000  Uiso   1.00
O132   O     0.98321   0.57454   0.98342   0.00000  Uiso   1.00
N133   N     0.52348   0.13644   0.15155   0.00000  Uiso   1.00
N134   N     0.80257   0.30016   0.63878   0.00000  Uiso   1.00
N135   N     0.89533   0.51958   0.09052   0.00000  Uiso   1.00
N136   N     0.57433   0.08438   0.10119   0.00000  Uiso   1.00
N137   N     0.85342   0.24810   0.58843   0.00000  Uiso   1.00
N138   N     0.94619   0.46752   0.04016   0.00000  Uiso   1.00
C139   C     0.41267   0.67670   0.03534   0.00000  Uiso   1.00
C140   C     0.43075   0.74091   0.08802   0.00000  Uiso   1.00
C141   C     0.38863   0.76591   0.10425   0.00000  Uiso   1.00
C142   C     0.41461   0.82542   0.15384   0.00000  Uiso   1.00
C143   C     0.43270   0.92009   0.23071   0.00000  Uiso   1.00
C144   C     0.46255   0.69580   0.95372   0.00000  Uiso   1.00
C145   C     0.44716   0.68286   0.85705   0.00000  Uiso   1.00
C146   C     0.49991   0.70438   0.79360   0.00000  Uiso   1.00
C147   C     0.56736   0.72897   0.66198   0.00000  Uiso   1.00
C148   C     0.42764   0.63534   0.10484   0.00000  Uiso   1.00
C149   C     0.38291   0.57155   0.13520   0.00000  Uiso   1.00
C150   C     0.40627   0.54215   0.19896   0.00000  Uiso   1.00
C151   C     0.41952   0.47286   0.30197   0.00000  Uiso   1.00
C152   C     0.53369   0.73792   0.09455   0.00000  Uiso   1.00
C153   C     0.49649   0.77417   0.12017   0.00000  Uiso   1.00
C154   C     0.52253   0.83365   0.16976   0.00000  Uiso   1.00
C155   C     0.48046   0.85873   0.18607   0.00000  Uiso   1.00
C156   C     0.52828   0.72905   0.98588   0.00000  Uiso   1.00
C157   C     0.58106   0.75059   0.92256   0.00000  Uiso   1.00
C158   C     0.56576   0.73769   0.82582   0.00000  Uiso   1.00
C159   C     0.49338   0.66859   0.13700   0.00000  Uiso   1.00
C160   C     0.51681   0.63929   0.20072   0.00000  Uiso   1.00
C161   C     0.47212   0.57547   0.23118   0.00000  Uiso   1.00
H162   H     0.36149   0.65081   0.01029   0.00000  Uiso   1.00
H163   H     0.33776   0.74017   0.07934   0.00000  Uiso   1.00
H164   H     0.39629   0.65712   0.83219   0.00000  Uiso   1.00
H165   H     0.33204   0.54583   0.11030   0.00000  Uiso   1.00
H166   H     0.34046   0.85391   0.17005   0.00000  Uiso   1.00
H167   H     0.46385   0.67879   0.64891   0.00000  Uiso   1.00
H168   H     0.32838   0.44410   0.23536   0.00000  Uiso   1.00
H169   H     0.58487   0.76381   0.11959   0.00000  Uiso   1.00
H170   H     0.57341   0.85937   0.19464   0.00000  Uiso   1.00
H171   H     0.63193   0.77632   0.94748   0.00000  Uiso   1.00
H172   H     0.56768   0.66503   0.22559   0.00000  Uiso   1.00
H173   H     0.53172   0.95066   0.26362   0.00000  Uiso   1.00
H174   H     0.65511   0.77553   0.74248   0.00000  Uiso   1.00
H175   H     0.51964   0.54086   0.32894   0.00000  Uiso   1.00
O176   O     0.42452   0.96312   0.26421   0.00000  Uiso   1.00
O177   O     0.58641   0.73335   0.58049   0.00000  Uiso   1.00
O178   O     0.40867   0.42546   0.34991   0.00000  Uiso   1.00
N179   N     0.38704   0.86356   0.18179   0.00000  Uiso   1.00
N180   N     0.50241   0.69984   0.69455   0.00000  Uiso   1.00
N181   N     0.37576   0.48042   0.24282   0.00000  Uiso   1.00
N182   N     0.48995   0.91562   0.23214   0.00000  Uiso   1.00
N183   N     0.60532   0.75190   0.74490   0.00000  Uiso   1.00
N184   N     0.47867   0.53248   0.29317   0.00000  Uiso   1.00
C185   C     0.26403   0.58733   0.36867   0.00000  Uiso   1.00
C186   C     0.31016   0.56925   0.42135   0.00000  Uiso   1.00
C187   C     0.37728   0.61137   0.43758   0.00000  Uiso   1.00
C188   C     0.41081   0.58539   0.48718   0.00000  Uiso   1.00
C189   C     0.48739   0.56730   0.56404   0.00000  Uiso   1.00
C190   C     0.23325   0.53745   0.28706   0.00000  Uiso   1.00
C191   C     0.23570   0.55284   0.19038   0.00000  Uiso   1.00
C192   C     0.20447   0.50009   0.12693   0.00000  Uiso   1.00
C193   C     0.16161   0.43264   0.99531   0.00000  Uiso   1.00
C194   C     0.20770   0.57236   0.43817   0.00000  Uiso   1.00
C195   C     0.18864   0.61709   0.46854   0.00000  Uiso   1.00
C196   C     0.13589   0.59373   0.53230   0.00000  Uiso   1.00
C197   C     0.05334   0.58048   0.63530   0.00000  Uiso   1.00
C198   C     0.20423   0.46631   0.42788   0.00000  Uiso   1.00
C199   C     0.27768   0.50351   0.45351   0.00000  Uiso   1.00
C200   C     0.31111   0.47747   0.50310   0.00000  Uiso   1.00
C201   C     0.37827   0.51954   0.51940   0.00000  Uiso   1.00
C202   C     0.20077   0.47172   0.31922   0.00000  Uiso   1.00
C203   C     0.16953   0.41894   0.25590   0.00000  Uiso   1.00
C204   C     0.17193   0.43424   0.15915   0.00000  Uiso   1.00
C205   C     0.17521   0.50662   0.47034   0.00000  Uiso   1.00
C206   C     0.12248   0.48319   0.53405   0.00000  Uiso   1.00
C207   C     0.10335   0.52788   0.56451   0.00000  Uiso   1.00
H208   H     0.28932   0.63851   0.34363   0.00000  Uiso   1.00
H209   H     0.40240   0.66224   0.41267   0.00000  Uiso   1.00
H210   H     0.26083   0.60371   0.16552   0.00000  Uiso   1.00
H211   H     0.21379   0.66796   0.44363   0.00000  Uiso   1.00
H212   H     0.51346   0.65954   0.50338   0.00000  Uiso   1.00
H213   H     0.21493   0.53615   0.98224   0.00000  Uiso   1.00
H214   H     0.11572   0.67162   0.56870   0.00000  Uiso   1.00
H215   H     0.17893   0.41513   0.45292   0.00000  Uiso   1.00
H216   H     0.28596   0.42659   0.52797   0.00000  Uiso   1.00
H217   H     0.14439   0.36807   0.28081   0.00000  Uiso   1.00
H218   H     0.09735   0.43232   0.55892   0.00000  Uiso   1.00
H219   H     0.41895   0.46828   0.59696   0.00000  Uiso   1.00
H220   H     0.12042   0.34489   0.07581   0.00000  Uiso   1.00
H221   H     0.02122   0.48036   0.66227   0.00000  Uiso   1.00
O222   O     0.53860   0.57548   0.59754   0.00000  Uiso   1.00
O223   O     0.14694   0.41359   0.91383   0.00000  Uiso   1.00
O224   O     0.01679   0.59133   0.68324   0.00000  Uiso   1.00
N225   N     0.47652   0.61296   0.51512   0.00000  Uiso   1.00
N226   N     0.19743   0.49759   0.02788   0.00000  Uiso   1.00
N227   N     0.10467   0.62424   0.57615   0.00000  Uiso   1.00
N228   N     0.42567   0.51005   0.56548   0.00000  Uiso   1.00
N229   N     0.14658   0.39468   0.07824   0.00000  Uiso   1.00
N230   N     0.05381   0.52133   0.62650   0.00000  Uiso   1.00
C231   C     0.32330   0.73597   0.70200   0.00000  Uiso   1.00
C232   C     0.25909   0.68984   0.75468   0.00000  Uiso   1.00
C233   C     0.23409   0.62272   0.77092   0.00000  Uiso   1.00
C234   C     0.17458   0.58919   0.82051   0.00000  Uiso   1.00
C235   C     0.07991   0.51261   0.89737   0.00000  Uiso   1.00
C236   C     0.30420   0.76675   0.62039   0.00000  Uiso   1.00
C237   C     0.31714   0.76430   0.52372   0.00000  Uiso   1.00
C238   C     0.29562   0.79553   0.46027   0.00000  Uiso   1.00
C239   C     0.27103   0.83839   0.32865   0.00000  Uiso   1.00
C240   C     0.36466   0.79230   0.77150   0.00000  Uiso   1.00
C241   C     0.42845   0.81136   0.80187   0.00000  Uiso   1.00
C242   C     0.45785   0.86411   0.86563   0.00000  Uiso   1.00
C243   C     0.52714   0.94666   0.96863   0.00000  Uiso   1.00
C244   C     0.26208   0.79577   0.76122   0.00000  Uiso   1.00
C245   C     0.22583   0.72232   0.78684   0.00000  Uiso   1.00
C246   C     0.16635   0.68889   0.83643   0.00000  Uiso   1.00
C247   C     0.14127   0.62173   0.85273   0.00000  Uiso   1.00
C248   C     0.27095   0.79923   0.65255   0.00000  Uiso   1.00
C249   C     0.24941   0.83047   0.58923   0.00000  Uiso   1.00
C250   C     0.26231   0.82807   0.49248   0.00000  Uiso   1.00
C251   C     0.33141   0.82479   0.80367   0.00000  Uiso   1.00
C252   C     0.36071   0.87752   0.86739   0.00000  Uiso   1.00
C253   C     0.42453   0.89665   0.89785   0.00000  Uiso   1.00
H254   H     0.34919   0.71068   0.67696   0.00000  Uiso   1.00
H255   H     0.25983   0.59760   0.74601   0.00000  Uiso   1.00
H256   H     0.34288   0.73917   0.49885   0.00000  Uiso   1.00
H257   H     0.45417   0.78621   0.77697   0.00000  Uiso   1.00
H258   H     0.14609   0.48654   0.83671   0.00000  Uiso   1.00
H259   H     0.32121   0.78507   0.31557   0.00000  Uiso   1.00
H260   H     0.55590   0.88428   0.90203   0.00000  Uiso   1.00
H261   H     0.23619   0.82107   0.78625   0.00000  Uiso   1.00
H262   H     0.14063   0.71404   0.86131   0.00000  Uiso   1.00
H263   H     0.22368   0.85561   0.61414   0.00000  Uiso   1.00
H264   H     0.33497   0.90265   0.89226   0.00000  Uiso   1.00
H265   H     0.04934   0.58105   0.93029   0.00000  Uiso   1.00
H266   H     0.22447   0.87958   0.40915   0.00000  Uiso   1.00
H267   H     0.45914   0.97878   0.99560   0.00000  Uiso   1.00
O268   O     0.03688   0.46140   0.93087   0.00000  Uiso   1.00
O269   O     0.26665   0.85306   0.24716   0.00000  Uiso   1.00
O270   O     0.57454   0.98321   0.01658   0.00000  Uiso   1.00
N271   N     0.13644   0.52348   0.84845   0.00000  Uiso   1.00
N272   N     0.30016   0.80257   0.36122   0.00000  Uiso   1.00
N273   N     0.51958   0.89533   0.90948   0.00000  Uiso   1.00
N274   N     0.08438   0.57433   0.89881   0.00000  Uiso   1.00
N275   N     0.24810   0.85342   0.41157   0.00000  Uiso   1.00
N276   N     0.46752   0.94619   0.95984   0.00000  Uiso   1.00
