data_job_04301
_audit_creation_date              2018-12-19
_audit_creation_method            'Materials Studio'
_symmetry_space_group_name_H-M    'P1'
_symmetry_Int_Tables_number       1
_symmetry_cell_setting            triclinic
loop_
_symmetry_equiv_pos_as_xyz
  x,y,z
_cell_length_a                    10.1652
_cell_length_b                    27.2257
_cell_length_c                    19.3224
_cell_angle_alpha                 90.0000
_cell_angle_beta                  129.0409
_cell_angle_gamma                 90.0000
loop_
_atom_site_label
_atom_site_type_symbol
_atom_site_fract_x
_atom_site_fract_y
_atom_site_fract_z
_atom_site_U_iso_or_equiv
_atom_site_adp_type
_atom_site_occupancy
C1     C     0.25091   0.41065   0.61729   0.00000  Uiso   1.00
C2     C     0.40608   0.40824   0.71558   0.00000  Uiso   1.00
C3     C     0.53741   0.44210   0.76059   0.00000  Uiso   1.00
C4     C     0.66790   0.43334   0.85039   0.00000  Uiso   1.00
C5     C     0.90903   0.43584   0.99644   0.00000  Uiso   1.00
C6     C     0.24789   0.36236   0.57633   0.00000  Uiso   1.00
C7     C     0.24619   0.35765   0.50425   0.00000  Uiso   1.00
C8     C     0.24349   0.31026   0.47682   0.00000  Uiso   1.00
C9     C     0.23890   0.24154   0.40663   0.00000  Uiso   1.00
C10    C     0.09754   0.40942   0.61440   0.00000  Uiso   1.00
C11    C     0.96939   0.44427   0.57431   0.00000  Uiso   1.00
C12    C     0.84007   0.43650   0.57892   0.00000  Uiso   1.00
C13    C     0.60204   0.44084   0.56784   0.00000  Uiso   1.00
C14    C     0.24911   0.33487   0.69673   0.00000  Uiso   1.00
C15    C     0.40510   0.36708   0.75872   0.00000  Uiso   1.00
C16    C     0.53542   0.35826   0.84848   0.00000  Uiso   1.00
C17    C     0.66692   0.39211   0.89362   0.00000  Uiso   1.00
C18    C     0.24691   0.32120   0.61947   0.00000  Uiso   1.00
C19    C     0.24420   0.27381   0.59213   0.00000  Uiso   1.00
C20    C     0.24251   0.26903   0.52004   0.00000  Uiso   1.00
C21    C     0.09656   0.36826   0.65755   0.00000  Uiso   1.00
C22    C     0.96741   0.36043   0.66220   0.00000  Uiso   1.00
C23    C     0.83909   0.39526   0.62214   0.00000  Uiso   1.00
H24    H     0.25167   0.44269   0.58370   0.00000  Uiso   1.00
H25    H     0.53813   0.47394   0.72718   0.00000  Uiso   1.00
H26    H     0.24694   0.38950   0.47087   0.00000  Uiso   1.00
H27    H     0.97019   0.47611   0.54093   0.00000  Uiso   1.00
H28    H     0.85532   0.49044   0.90527   0.00000  Uiso   1.00
H29    H     0.24127   0.31239   0.36481   0.00000  Uiso   1.00
H30    H     0.65768   0.49502   0.51254   0.00000  Uiso   1.00
H31    H     0.24835   0.30283   0.73031   0.00000  Uiso   1.00
H32    H     0.53463   0.32641   0.88185   0.00000  Uiso   1.00
H33    H     0.24343   0.24197   0.62553   0.00000  Uiso   1.00
H34    H     0.96669   0.32858   0.69560   0.00000  Uiso   1.00
H35    H     0.85248   0.37069   0.03081   0.00000  Uiso   1.00
H36    H     0.23842   0.19264   0.49034   0.00000  Uiso   1.00
H37    H     0.65484   0.37527   0.63808   0.00000  Uiso   1.00
O38    O     0.04232   0.44859   0.06507   0.00000  Uiso   1.00
O39    O     0.23666   0.21500   0.35599   0.00000  Uiso   1.00
O40    O     0.47102   0.45461   0.54982   0.00000  Uiso   1.00
N41    N     0.81535   0.45902   0.91403   0.00000  Uiso   1.00
N42    N     0.24127   0.29256   0.40874   0.00000  Uiso   1.00
N43    N     0.69564   0.46330   0.54683   0.00000  Uiso   1.00
N44    N     0.81382   0.39459   0.98158   0.00000  Uiso   1.00
N45    N     0.23974   0.22812   0.47628   0.00000  Uiso   1.00
N46    N     0.69411   0.39886   0.61438   0.00000  Uiso   1.00
C47    C     0.18578   0.90522   0.23919   0.00000  Uiso   1.00
C48    C     0.34229   0.90318   0.33720   0.00000  Uiso   1.00
C49    C     0.47167   0.93767   0.38157   0.00000  Uiso   1.00
C50    C     0.60386   0.92917   0.47122   0.00000  Uiso   1.00
C51    C     0.84654   0.93231   0.61677   0.00000  Uiso   1.00
C52    C     0.18451   0.85726   0.19801   0.00000  Uiso   1.00
C53    C     0.18120   0.85313   0.12534   0.00000  Uiso   1.00
C54    C     0.18055   0.80596   0.09781   0.00000  Uiso   1.00
C55    C     0.17814   0.73780   0.02722   0.00000  Uiso   1.00
C56    C     0.03377   0.90284   0.23738   0.00000  Uiso   1.00
C57    C     0.90368   0.93703   0.19778   0.00000  Uiso   1.00
C58    C     0.77609   0.92823   0.20338   0.00000  Uiso   1.00
C59    C     0.53963   0.93085   0.19391   0.00000  Uiso   1.00
C60    C     0.19048   0.82879   0.31950   0.00000  Uiso   1.00
C61    C     0.34484   0.86167   0.38083   0.00000  Uiso   1.00
C62    C     0.47687   0.85311   0.47043   0.00000  Uiso   1.00
C63    C     0.60642   0.88758   0.51492   0.00000  Uiso   1.00
C64    C     0.18706   0.81574   0.24163   0.00000  Uiso   1.00
C65    C     0.18640   0.76857   0.21420   0.00000  Uiso   1.00
C66    C     0.18311   0.76437   0.14151   0.00000  Uiso   1.00
C67    C     0.03632   0.86132   0.28100   0.00000  Uiso   1.00
C68    C     0.90889   0.85247   0.28665   0.00000  Uiso   1.00
C69    C     0.77865   0.88664   0.24708   0.00000  Uiso   1.00
H70    H     0.18379   0.93754   0.20522   0.00000  Uiso   1.00
H71    H     0.46966   0.96979   0.34778   0.00000  Uiso   1.00
H72    H     0.17921   0.88527   0.09159   0.00000  Uiso   1.00
H73    H     0.90175   0.96915   0.16403   0.00000  Uiso   1.00
H74    H     0.78774   0.98723   0.52508   0.00000  Uiso   1.00
H75    H     0.17528   0.80900   0.98485   0.00000  Uiso   1.00
H76    H     0.59018   0.98590   0.13761   0.00000  Uiso   1.00
H77    H     0.19246   0.79646   0.35346   0.00000  Uiso   1.00
H78    H     0.47881   0.82098   0.50417   0.00000  Uiso   1.00
H79    H     0.18837   0.73645   0.24797   0.00000  Uiso   1.00
H80    H     0.91091   0.82034   0.32042   0.00000  Uiso   1.00
H81    H     0.79518   0.86645   0.65201   0.00000  Uiso   1.00
H82    H     0.18270   0.68822   0.11178   0.00000  Uiso   1.00
H83    H     0.59762   0.86511   0.26454   0.00000  Uiso   1.00
O84    O     0.97970   0.94550   0.68500   0.00000  Uiso   1.00
O85    O     0.17613   0.71168   0.97623   0.00000  Uiso   1.00
O86    O     0.40852   0.94376   0.17665   0.00000  Uiso   1.00
N87    N     0.75018   0.95545   0.53427   0.00000  Uiso   1.00
N88    N     0.17759   0.78881   0.02920   0.00000  Uiso   1.00
N89    N     0.63055   0.95419   0.17200   0.00000  Uiso   1.00
N90    N     0.75418   0.89046   0.60257   0.00000  Uiso   1.00
N91    N     0.18159   0.72382   0.09750   0.00000  Uiso   1.00
N92    N     0.63455   0.88920   0.24030   0.00000  Uiso   1.00
C93    C     0.74909   0.91065   0.88271   0.00000  Uiso   1.00
C94    C     0.59392   0.90824   0.78442   0.00000  Uiso   1.00
C95    C     0.46259   0.94210   0.73941   0.00000  Uiso   1.00
C96    C     0.33210   0.93334   0.64961   0.00000  Uiso   1.00
C97    C     0.09097   0.93584   0.50356   0.00000  Uiso   1.00
C98    C     0.75211   0.86236   0.92367   0.00000  Uiso   1.00
C99    C     0.75381   0.85765   0.99575   0.00000  Uiso   1.00
C100   C     0.75651   0.81026   0.02318   0.00000  Uiso   1.00
C101   C     0.76110   0.74154   0.09337   0.00000  Uiso   1.00
C102   C     0.90246   0.90942   0.88560   0.00000  Uiso   1.00
C103   C     0.03061   0.94427   0.92569   0.00000  Uiso   1.00
C104   C     0.15993   0.93650   0.92108   0.00000  Uiso   1.00
C105   C     0.39796   0.94084   0.93216   0.00000  Uiso   1.00
C106   C     0.75089   0.83487   0.80327   0.00000  Uiso   1.00
C107   C     0.59490   0.86708   0.74128   0.00000  Uiso   1.00
C108   C     0.46458   0.85826   0.65152   0.00000  Uiso   1.00
C109   C     0.33308   0.89211   0.60638   0.00000  Uiso   1.00
C110   C     0.75309   0.82120   0.88053   0.00000  Uiso   1.00
C111   C     0.75580   0.77381   0.90787   0.00000  Uiso   1.00
C112   C     0.75749   0.76903   0.97996   0.00000  Uiso   1.00
C113   C     0.90344   0.86826   0.84245   0.00000  Uiso   1.00
C114   C     0.03259   0.86043   0.83780   0.00000  Uiso   1.00
C115   C     0.16091   0.89526   0.87786   0.00000  Uiso   1.00
H116   H     0.74833   0.94269   0.91630   0.00000  Uiso   1.00
H117   H     0.46187   0.97394   0.77282   0.00000  Uiso   1.00
H118   H     0.75306   0.88950   0.02913   0.00000  Uiso   1.00
H119   H     0.02981   0.97611   0.95907   0.00000  Uiso   1.00
H120   H     0.14468   0.99044   0.59473   0.00000  Uiso   1.00
H121   H     0.75873   0.81239   0.13519   0.00000  Uiso   1.00
H122   H     0.34232   0.99502   0.98746   0.00000  Uiso   1.00
H123   H     0.75165   0.80283   0.76969   0.00000  Uiso   1.00
H124   H     0.46537   0.82641   0.61815   0.00000  Uiso   1.00
H125   H     0.75657   0.74197   0.87447   0.00000  Uiso   1.00
H126   H     0.03331   0.82858   0.80440   0.00000  Uiso   1.00
H127   H     0.14752   0.87069   0.46919   0.00000  Uiso   1.00
H128   H     0.76158   0.69264   0.00966   0.00000  Uiso   1.00
H129   H     0.34516   0.87527   0.86192   0.00000  Uiso   1.00
O130   O     0.95768   0.94859   0.43493   0.00000  Uiso   1.00
O131   O     0.76334   0.71500   0.14401   0.00000  Uiso   1.00
O132   O     0.52898   0.95461   0.95018   0.00000  Uiso   1.00
N133   N     0.18465   0.95902   0.58597   0.00000  Uiso   1.00
N134   N     0.75873   0.79256   0.09126   0.00000  Uiso   1.00
N135   N     0.30436   0.96330   0.95317   0.00000  Uiso   1.00
N136   N     0.18618   0.89459   0.51842   0.00000  Uiso   1.00
N137   N     0.76026   0.72812   0.02372   0.00000  Uiso   1.00
N138   N     0.30589   0.89886   0.88562   0.00000  Uiso   1.00
C139   C     0.81422   0.40522   0.26081   0.00000  Uiso   1.00
C140   C     0.65771   0.40318   0.16280   0.00000  Uiso   1.00
C141   C     0.52833   0.43767   0.11843   0.00000  Uiso   1.00
C142   C     0.39614   0.42917   0.02878   0.00000  Uiso   1.00
C143   C     0.15346   0.43231   0.88323   0.00000  Uiso   1.00
C144   C     0.81549   0.35726   0.30199   0.00000  Uiso   1.00
C145   C     0.81880   0.35313   0.37466   0.00000  Uiso   1.00
C146   C     0.81945   0.30596   0.40219   0.00000  Uiso   1.00
C147   C     0.82186   0.23780   0.47278   0.00000  Uiso   1.00
C148   C     0.96623   0.40284   0.26262   0.00000  Uiso   1.00
C149   C     0.09632   0.43703   0.30222   0.00000  Uiso   1.00
C150   C     0.22391   0.42823   0.29662   0.00000  Uiso   1.00
C151   C     0.46037   0.43085   0.30609   0.00000  Uiso   1.00
C152   C     0.80952   0.32879   0.18050   0.00000  Uiso   1.00
C153   C     0.65516   0.36167   0.11917   0.00000  Uiso   1.00
C154   C     0.52313   0.35311   0.02957   0.00000  Uiso   1.00
C155   C     0.39358   0.38758   0.98508   0.00000  Uiso   1.00
C156   C     0.81294   0.31574   0.25837   0.00000  Uiso   1.00
C157   C     0.81360   0.26857   0.28580   0.00000  Uiso   1.00
C158   C     0.81689   0.26437   0.35849   0.00000  Uiso   1.00
C159   C     0.96368   0.36132   0.21900   0.00000  Uiso   1.00
C160   C     0.09111   0.35247   0.21335   0.00000  Uiso   1.00
C161   C     0.22135   0.38664   0.25292   0.00000  Uiso   1.00
H162   H     0.81621   0.43754   0.29478   0.00000  Uiso   1.00
H163   H     0.53034   0.46979   0.15222   0.00000  Uiso   1.00
H164   H     0.82079   0.38527   0.40841   0.00000  Uiso   1.00
H165   H     0.09825   0.46915   0.33597   0.00000  Uiso   1.00
H166   H     0.21226   0.48723   0.97492   0.00000  Uiso   1.00
H167   H     0.82472   0.30900   0.51515   0.00000  Uiso   1.00
H168   H     0.40982   0.48590   0.36239   0.00000  Uiso   1.00
H169   H     0.80754   0.29646   0.14654   0.00000  Uiso   1.00
H170   H     0.52119   0.32098   0.99583   0.00000  Uiso   1.00
H171   H     0.81163   0.23645   0.25203   0.00000  Uiso   1.00
H172   H     0.08909   0.32034   0.17958   0.00000  Uiso   1.00
H173   H     0.20482   0.36645   0.84799   0.00000  Uiso   1.00
H174   H     0.81730   0.18822   0.38822   0.00000  Uiso   1.00
H175   H     0.40238   0.36511   0.23546   0.00000  Uiso   1.00
O176   O     0.02030   0.44550   0.81500   0.00000  Uiso   1.00
O177   O     0.82387   0.21168   0.52377   0.00000  Uiso   1.00
O178   O     0.59148   0.44376   0.32335   0.00000  Uiso   1.00
N179   N     0.24982   0.45545   0.96573   0.00000  Uiso   1.00
N180   N     0.82241   0.28881   0.47080   0.00000  Uiso   1.00
N181   N     0.36945   0.45419   0.32800   0.00000  Uiso   1.00
N182   N     0.24582   0.39046   0.89743   0.00000  Uiso   1.00
N183   N     0.81841   0.22382   0.40250   0.00000  Uiso   1.00
N184   N     0.36545   0.38920   0.25970   0.00000  Uiso   1.00
C185   C     0.74909   0.58935   0.38271   0.00000  Uiso   1.00
C186   C     0.59392   0.59176   0.28442   0.00000  Uiso   1.00
C187   C     0.46259   0.55790   0.23941   0.00000  Uiso   1.00
C188   C     0.33210   0.56666   0.14961   0.00000  Uiso   1.00
C189   C     0.09097   0.56416   0.00356   0.00000  Uiso   1.00
C190   C     0.75211   0.63764   0.42367   0.00000  Uiso   1.00
C191   C     0.75381   0.64235   0.49575   0.00000  Uiso   1.00
C192   C     0.75651   0.68974   0.52318   0.00000  Uiso   1.00
C193   C     0.76110   0.75846   0.59337   0.00000  Uiso   1.00
C194   C     0.90246   0.59058   0.38560   0.00000  Uiso   1.00
C195   C     0.03061   0.55573   0.42569   0.00000  Uiso   1.00
C196   C     0.15993   0.56350   0.42108   0.00000  Uiso   1.00
C197   C     0.39796   0.55916   0.43216   0.00000  Uiso   1.00
C198   C     0.75089   0.66513   0.30327   0.00000  Uiso   1.00
C199   C     0.59490   0.63292   0.24128   0.00000  Uiso   1.00
C200   C     0.46458   0.64174   0.15152   0.00000  Uiso   1.00
C201   C     0.33308   0.60789   0.10638   0.00000  Uiso   1.00
C202   C     0.75309   0.67880   0.38053   0.00000  Uiso   1.00
C203   C     0.75580   0.72619   0.40787   0.00000  Uiso   1.00
C204   C     0.75749   0.73097   0.47996   0.00000  Uiso   1.00
C205   C     0.90344   0.63174   0.34245   0.00000  Uiso   1.00
C206   C     0.03259   0.63957   0.33780   0.00000  Uiso   1.00
C207   C     0.16091   0.60474   0.37786   0.00000  Uiso   1.00
H208   H     0.74833   0.55731   0.41630   0.00000  Uiso   1.00
H209   H     0.46187   0.52606   0.27282   0.00000  Uiso   1.00
H210   H     0.75306   0.61050   0.52913   0.00000  Uiso   1.00
H211   H     0.02981   0.52389   0.45907   0.00000  Uiso   1.00
H212   H     0.14468   0.50956   0.09473   0.00000  Uiso   1.00
H213   H     0.75873   0.68761   0.63519   0.00000  Uiso   1.00
H214   H     0.34232   0.50498   0.48746   0.00000  Uiso   1.00
H215   H     0.75165   0.69717   0.26969   0.00000  Uiso   1.00
H216   H     0.46537   0.67359   0.11815   0.00000  Uiso   1.00
H217   H     0.75657   0.75803   0.37447   0.00000  Uiso   1.00
H218   H     0.03331   0.67142   0.30440   0.00000  Uiso   1.00
H219   H     0.14752   0.62931   0.96919   0.00000  Uiso   1.00
H220   H     0.76158   0.80736   0.50966   0.00000  Uiso   1.00
H221   H     0.34516   0.62473   0.36192   0.00000  Uiso   1.00
O222   O     0.95768   0.55141   0.93493   0.00000  Uiso   1.00
O223   O     0.76334   0.78500   0.64401   0.00000  Uiso   1.00
O224   O     0.52898   0.54539   0.45018   0.00000  Uiso   1.00
N225   N     0.18465   0.54098   0.08597   0.00000  Uiso   1.00
N226   N     0.75873   0.70744   0.59126   0.00000  Uiso   1.00
N227   N     0.30436   0.53670   0.45317   0.00000  Uiso   1.00
N228   N     0.18618   0.60541   0.01842   0.00000  Uiso   1.00
N229   N     0.76026   0.77188   0.52372   0.00000  Uiso   1.00
N230   N     0.30589   0.60114   0.38562   0.00000  Uiso   1.00
C231   C     0.81422   0.09478   0.76081   0.00000  Uiso   1.00
C232   C     0.65771   0.09682   0.66280   0.00000  Uiso   1.00
C233   C     0.52833   0.06233   0.61843   0.00000  Uiso   1.00
C234   C     0.39614   0.07083   0.52878   0.00000  Uiso   1.00
C235   C     0.15346   0.06769   0.38323   0.00000  Uiso   1.00
C236   C     0.81549   0.14274   0.80199   0.00000  Uiso   1.00
C237   C     0.81880   0.14687   0.87466   0.00000  Uiso   1.00
C238   C     0.81945   0.19404   0.90219   0.00000  Uiso   1.00
C239   C     0.82186   0.26220   0.97278   0.00000  Uiso   1.00
C240   C     0.96623   0.09716   0.76262   0.00000  Uiso   1.00
C241   C     0.09632   0.06297   0.80222   0.00000  Uiso   1.00
C242   C     0.22391   0.07177   0.79662   0.00000  Uiso   1.00
C243   C     0.46037   0.06915   0.80609   0.00000  Uiso   1.00
C244   C     0.80952   0.17121   0.68050   0.00000  Uiso   1.00
C245   C     0.65516   0.13833   0.61917   0.00000  Uiso   1.00
C246   C     0.52313   0.14689   0.52957   0.00000  Uiso   1.00
C247   C     0.39358   0.11242   0.48508   0.00000  Uiso   1.00
C248   C     0.81294   0.18426   0.75837   0.00000  Uiso   1.00
C249   C     0.81360   0.23143   0.78580   0.00000  Uiso   1.00
C250   C     0.81689   0.23563   0.85849   0.00000  Uiso   1.00
C251   C     0.96368   0.13868   0.71900   0.00000  Uiso   1.00
C252   C     0.09111   0.14753   0.71335   0.00000  Uiso   1.00
C253   C     0.22135   0.11336   0.75292   0.00000  Uiso   1.00
H254   H     0.81621   0.06246   0.79478   0.00000  Uiso   1.00
H255   H     0.53034   0.03021   0.65222   0.00000  Uiso   1.00
H256   H     0.82079   0.11473   0.90841   0.00000  Uiso   1.00
H257   H     0.09825   0.03085   0.83597   0.00000  Uiso   1.00
H258   H     0.21226   0.01277   0.47492   0.00000  Uiso   1.00
H259   H     0.82472   0.19100   0.01515   0.00000  Uiso   1.00
H260   H     0.40982   0.01410   0.86239   0.00000  Uiso   1.00
H261   H     0.80754   0.20354   0.64654   0.00000  Uiso   1.00
H262   H     0.52119   0.17902   0.49583   0.00000  Uiso   1.00
H263   H     0.81163   0.26355   0.75203   0.00000  Uiso   1.00
H264   H     0.08909   0.17966   0.67958   0.00000  Uiso   1.00
H265   H     0.20482   0.13355   0.34799   0.00000  Uiso   1.00
H266   H     0.81730   0.31178   0.88822   0.00000  Uiso   1.00
H267   H     0.40238   0.13489   0.73546   0.00000  Uiso   1.00
O268   O     0.02030   0.05450   0.31500   0.00000  Uiso   1.00
O269   O     0.82387   0.28832   0.02377   0.00000  Uiso   1.00
O270   O     0.59148   0.05624   0.82335   0.00000  Uiso   1.00
N271   N     0.24982   0.04455   0.46573   0.00000  Uiso   1.00
N272   N     0.82241   0.21119   0.97080   0.00000  Uiso   1.00
N273   N     0.36945   0.04581   0.82800   0.00000  Uiso   1.00
N274   N     0.24582   0.10954   0.39743   0.00000  Uiso   1.00
N275   N     0.81841   0.27618   0.90250   0.00000  Uiso   1.00
N276   N     0.36545   0.11080   0.75970   0.00000  Uiso   1.00
C277   C     0.25091   0.08935   0.11729   0.00000  Uiso   1.00
C278   C     0.40608   0.09176   0.21558   0.00000  Uiso   1.00
C279   C     0.53741   0.05790   0.26059   0.00000  Uiso   1.00
C280   C     0.66790   0.06666   0.35039   0.00000  Uiso   1.00
C281   C     0.90903   0.06416   0.49644   0.00000  Uiso   1.00
C282   C     0.24789   0.13764   0.07633   0.00000  Uiso   1.00
C283   C     0.24619   0.14235   0.00425   0.00000  Uiso   1.00
C284   C     0.24349   0.18974   0.97682   0.00000  Uiso   1.00
C285   C     0.23890   0.25846   0.90663   0.00000  Uiso   1.00
C286   C     0.09754   0.09058   0.11440   0.00000  Uiso   1.00
C287   C     0.96939   0.05573   0.07431   0.00000  Uiso   1.00
C288   C     0.84007   0.06350   0.07892   0.00000  Uiso   1.00
C289   C     0.60204   0.05916   0.06784   0.00000  Uiso   1.00
C290   C     0.24911   0.16513   0.19673   0.00000  Uiso   1.00
C291   C     0.40510   0.13292   0.25872   0.00000  Uiso   1.00
C292   C     0.53542   0.14174   0.34848   0.00000  Uiso   1.00
C293   C     0.66692   0.10789   0.39362   0.00000  Uiso   1.00
C294   C     0.24691   0.17880   0.11947   0.00000  Uiso   1.00
C295   C     0.24420   0.22619   0.09213   0.00000  Uiso   1.00
C296   C     0.24251   0.23097   0.02004   0.00000  Uiso   1.00
C297   C     0.09656   0.13174   0.15755   0.00000  Uiso   1.00
C298   C     0.96741   0.13957   0.16220   0.00000  Uiso   1.00
C299   C     0.83909   0.10474   0.12214   0.00000  Uiso   1.00
H300   H     0.25167   0.05731   0.08370   0.00000  Uiso   1.00
H301   H     0.53813   0.02606   0.22718   0.00000  Uiso   1.00
H302   H     0.24694   0.11050   0.97087   0.00000  Uiso   1.00
H303   H     0.97019   0.02389   0.04093   0.00000  Uiso   1.00
H304   H     0.85532   0.00956   0.40527   0.00000  Uiso   1.00
H305   H     0.24127   0.18761   0.86481   0.00000  Uiso   1.00
H306   H     0.65768   0.00498   0.01254   0.00000  Uiso   1.00
H307   H     0.24835   0.19717   0.23031   0.00000  Uiso   1.00
H308   H     0.53463   0.17359   0.38185   0.00000  Uiso   1.00
H309   H     0.24343   0.25803   0.12553   0.00000  Uiso   1.00
H310   H     0.96669   0.17142   0.19560   0.00000  Uiso   1.00
H311   H     0.85248   0.12931   0.53081   0.00000  Uiso   1.00
H312   H     0.23842   0.30736   0.99034   0.00000  Uiso   1.00
H313   H     0.65484   0.12473   0.13808   0.00000  Uiso   1.00
O314   O     0.04232   0.05141   0.56507   0.00000  Uiso   1.00
O315   O     0.23666   0.28500   0.85599   0.00000  Uiso   1.00
O316   O     0.47102   0.04539   0.04982   0.00000  Uiso   1.00
N317   N     0.81535   0.04098   0.41403   0.00000  Uiso   1.00
N318   N     0.24127   0.20744   0.90874   0.00000  Uiso   1.00
N319   N     0.69564   0.03670   0.04683   0.00000  Uiso   1.00
N320   N     0.81382   0.10541   0.48158   0.00000  Uiso   1.00
N321   N     0.23974   0.27188   0.97628   0.00000  Uiso   1.00
N322   N     0.69411   0.10114   0.11438   0.00000  Uiso   1.00
C323   C     0.18578   0.59478   0.73919   0.00000  Uiso   1.00
C324   C     0.34229   0.59682   0.83720   0.00000  Uiso   1.00
C325   C     0.47167   0.56233   0.88157   0.00000  Uiso   1.00
C326   C     0.60386   0.57083   0.97122   0.00000  Uiso   1.00
C327   C     0.84654   0.56769   0.11677   0.00000  Uiso   1.00
C328   C     0.18451   0.64274   0.69801   0.00000  Uiso   1.00
C329   C     0.18120   0.64687   0.62534   0.00000  Uiso   1.00
C330   C     0.18055   0.69404   0.59781   0.00000  Uiso   1.00
C331   C     0.17814   0.76220   0.52722   0.00000  Uiso   1.00
C332   C     0.03377   0.59716   0.73738   0.00000  Uiso   1.00
C333   C     0.90368   0.56297   0.69778   0.00000  Uiso   1.00
C334   C     0.77609   0.57177   0.70338   0.00000  Uiso   1.00
C335   C     0.53963   0.56915   0.69391   0.00000  Uiso   1.00
C336   C     0.19048   0.67121   0.81950   0.00000  Uiso   1.00
C337   C     0.34484   0.63833   0.88083   0.00000  Uiso   1.00
C338   C     0.47687   0.64689   0.97043   0.00000  Uiso   1.00
C339   C     0.60642   0.61242   0.01492   0.00000  Uiso   1.00
C340   C     0.18706   0.68426   0.74163   0.00000  Uiso   1.00
C341   C     0.18640   0.73143   0.71420   0.00000  Uiso   1.00
C342   C     0.18311   0.73563   0.64151   0.00000  Uiso   1.00
C343   C     0.03632   0.63868   0.78100   0.00000  Uiso   1.00
C344   C     0.90889   0.64753   0.78665   0.00000  Uiso   1.00
C345   C     0.77865   0.61336   0.74708   0.00000  Uiso   1.00
H346   H     0.18379   0.56246   0.70522   0.00000  Uiso   1.00
H347   H     0.46966   0.53021   0.84778   0.00000  Uiso   1.00
H348   H     0.17921   0.61473   0.59159   0.00000  Uiso   1.00
H349   H     0.90175   0.53085   0.66403   0.00000  Uiso   1.00
H350   H     0.78774   0.51277   0.02508   0.00000  Uiso   1.00
H351   H     0.17528   0.69100   0.48485   0.00000  Uiso   1.00
H352   H     0.59018   0.51410   0.63761   0.00000  Uiso   1.00
H353   H     0.19246   0.70354   0.85346   0.00000  Uiso   1.00
H354   H     0.47881   0.67902   0.00417   0.00000  Uiso   1.00
H355   H     0.18837   0.76355   0.74797   0.00000  Uiso   1.00
H356   H     0.91091   0.67966   0.82042   0.00000  Uiso   1.00
H357   H     0.79518   0.63355   0.15201   0.00000  Uiso   1.00
H358   H     0.18270   0.81178   0.61178   0.00000  Uiso   1.00
H359   H     0.59762   0.63489   0.76454   0.00000  Uiso   1.00
O360   O     0.97970   0.55450   0.18500   0.00000  Uiso   1.00
O361   O     0.17613   0.78832   0.47623   0.00000  Uiso   1.00
O362   O     0.40852   0.55624   0.67665   0.00000  Uiso   1.00
N363   N     0.75018   0.54455   0.03427   0.00000  Uiso   1.00
N364   N     0.17759   0.71119   0.52920   0.00000  Uiso   1.00
N365   N     0.63055   0.54581   0.67200   0.00000  Uiso   1.00
N366   N     0.75418   0.60954   0.10257   0.00000  Uiso   1.00
N367   N     0.18159   0.77618   0.59750   0.00000  Uiso   1.00
N368   N     0.63455   0.61080   0.74030   0.00000  Uiso   1.00
