data_job_02724
_audit_creation_date              2018-12-19
_audit_creation_method            'Materials Studio'
_symmetry_space_group_name_H-M    'P1'
_symmetry_Int_Tables_number       1
_symmetry_cell_setting            triclinic
loop_
_symmetry_equiv_pos_as_xyz
  x,y,z
_cell_length_a                    14.9712
_cell_length_b                    15.7184
_cell_length_c                    14.7610
_cell_angle_alpha                 90.0000
_cell_angle_beta                  133.5090
_cell_angle_gamma                 90.0000
loop_
_atom_site_label
_atom_site_type_symbol
_atom_site_fract_x
_atom_site_fract_y
_atom_site_fract_z
_atom_site_U_iso_or_equiv
_atom_site_adp_type
_atom_site_occupancy
C1     C     0.55592   0.96582   0.29053   0.00000  Uiso   1.00
C2     C     0.62238   0.94162   0.42422   0.00000  Uiso   1.00
C3     C     0.62215   0.98835   0.50383   0.00000  Uiso   1.00
C4     C     0.68863   0.95542   0.62254   0.00000  Uiso   1.00
C5     C     0.78208   0.92958   0.82443   0.00000  Uiso   1.00
C6     C     0.65434   0.96788   0.28559   0.00000  Uiso   1.00
C7     C     0.68097   0.03669   0.24862   0.00000  Uiso   1.00
C8     C     0.77435   0.02585   0.25061   0.00000  Uiso   1.00
C9     C     0.91736   0.04075   0.23718   0.00000  Uiso   1.00
C10    C     0.47225   0.89092   0.20925   0.00000  Uiso   1.00
C11    C     0.34578   0.89501   0.10806   0.00000  Uiso   1.00
C12    C     0.28585   0.81938   0.04576   0.00000  Uiso   1.00
C13    C     0.14614   0.71478   0.91380   0.00000  Uiso   1.00
C14    C     0.67440   0.82422   0.35979   0.00000  Uiso   1.00
C15    C     0.68673   0.86472   0.46184   0.00000  Uiso   1.00
C16    C     0.75323   0.83170   0.58046   0.00000  Uiso   1.00
C17    C     0.75309   0.87837   0.66023   0.00000  Uiso   1.00
C18    C     0.71869   0.89098   0.32321   0.00000  Uiso   1.00
C19    C     0.81205   0.88003   0.32524   0.00000  Uiso   1.00
C20    C     0.83882   0.94881   0.28829   0.00000  Uiso   1.00
C21    C     0.53660   0.81401   0.24687   0.00000  Uiso   1.00
C22    C     0.47686   0.73836   0.18470   0.00000  Uiso   1.00
C23    C     0.35032   0.74234   0.08345   0.00000  Uiso   1.00
H24    H     0.50583   0.02569   0.26124   0.00000  Uiso   1.00
H25    H     0.57235   0.04787   0.47468   0.00000  Uiso   1.00
H26    H     0.63115   0.09619   0.21950   0.00000  Uiso   1.00
H27    H     0.29601   0.95454   0.07898   0.00000  Uiso   1.00
H28    H     0.67451   0.03856   0.72793   0.00000  Uiso   1.00
H29    H     0.79847   0.14044   0.18982   0.00000  Uiso   1.00
H30    H     0.09177   0.84174   0.89350   0.00000  Uiso   1.00
H31    H     0.72450   0.76435   0.38908   0.00000  Uiso   1.00
H32    H     0.80302   0.77218   0.60954   0.00000  Uiso   1.00
H33    H     0.86182   0.82051   0.35436   0.00000  Uiso   1.00
H34    H     0.52669   0.67886   0.21384   0.00000  Uiso   1.00
H35    H     0.86174   0.81481   0.83739   0.00000  Uiso   1.00
H36    H     0.98570   0.91668   0.29927   0.00000  Uiso   1.00
H37    H     0.27899   0.61798   0.00296   0.00000  Uiso   1.00
O38    O     0.81586   0.93657   0.92540   0.00000  Uiso   1.00
O39    O     0.97848   0.07022   0.21939   0.00000  Uiso   1.00
O40    O     0.05130   0.67833   0.83064   0.00000  Uiso   1.00
N41    N     0.70778   0.98482   0.72343   0.00000  Uiso   1.00
N42    N     0.82369   0.08007   0.22034   0.00000  Uiso   1.00
N43    N     0.16298   0.80081   0.94329   0.00000  Uiso   1.00
N44    N     0.80852   0.86442   0.78233   0.00000  Uiso   1.00
N45    N     0.92443   0.95967   0.27924   0.00000  Uiso   1.00
N46    N     0.26373   0.68041   0.00219   0.00000  Uiso   1.00
C47    C     0.44408   0.46582   0.20947   0.00000  Uiso   1.00
C48    C     0.37762   0.44162   0.07578   0.00000  Uiso   1.00
C49    C     0.37785   0.48835   0.99617   0.00000  Uiso   1.00
C50    C     0.31137   0.45542   0.87746   0.00000  Uiso   1.00
C51    C     0.21792   0.42958   0.67557   0.00000  Uiso   1.00
C52    C     0.34566   0.46788   0.21441   0.00000  Uiso   1.00
C53    C     0.31903   0.53669   0.25138   0.00000  Uiso   1.00
C54    C     0.22565   0.52585   0.24939   0.00000  Uiso   1.00
C55    C     0.08264   0.54075   0.26282   0.00000  Uiso   1.00
C56    C     0.52775   0.39092   0.29075   0.00000  Uiso   1.00
C57    C     0.65422   0.39501   0.39194   0.00000  Uiso   1.00
C58    C     0.71415   0.31938   0.45424   0.00000  Uiso   1.00
C59    C     0.85386   0.21478   0.58620   0.00000  Uiso   1.00
C60    C     0.32560   0.32422   0.14021   0.00000  Uiso   1.00
C61    C     0.31327   0.36472   0.03816   0.00000  Uiso   1.00
C62    C     0.24677   0.33170   0.91954   0.00000  Uiso   1.00
C63    C     0.24691   0.37837   0.83977   0.00000  Uiso   1.00
C64    C     0.28131   0.39098   0.17679   0.00000  Uiso   1.00
C65    C     0.18795   0.38003   0.17476   0.00000  Uiso   1.00
C66    C     0.16118   0.44881   0.21171   0.00000  Uiso   1.00
C67    C     0.46340   0.31401   0.25313   0.00000  Uiso   1.00
C68    C     0.52314   0.23836   0.31530   0.00000  Uiso   1.00
C69    C     0.64968   0.24234   0.41655   0.00000  Uiso   1.00
H70    H     0.49417   0.52569   0.23876   0.00000  Uiso   1.00
H71    H     0.42765   0.54787   0.02532   0.00000  Uiso   1.00
H72    H     0.36885   0.59619   0.28050   0.00000  Uiso   1.00
H73    H     0.70399   0.45454   0.42102   0.00000  Uiso   1.00
H74    H     0.32549   0.53856   0.77207   0.00000  Uiso   1.00
H75    H     0.20153   0.64044   0.31018   0.00000  Uiso   1.00
H76    H     0.90823   0.34174   0.60650   0.00000  Uiso   1.00
H77    H     0.27550   0.26435   0.11092   0.00000  Uiso   1.00
H78    H     0.19698   0.27218   0.89046   0.00000  Uiso   1.00
H79    H     0.13818   0.32051   0.14564   0.00000  Uiso   1.00
H80    H     0.47331   0.17886   0.28616   0.00000  Uiso   1.00
H81    H     0.13826   0.31481   0.66261   0.00000  Uiso   1.00
H82    H     0.01430   0.41668   0.20073   0.00000  Uiso   1.00
H83    H     0.72101   0.11798   0.49704   0.00000  Uiso   1.00
O84    O     0.18414   0.43657   0.57460   0.00000  Uiso   1.00
O85    O     0.02152   0.57022   0.28061   0.00000  Uiso   1.00
O86    O     0.94870   0.17833   0.66936   0.00000  Uiso   1.00
N87    N     0.29222   0.48482   0.77657   0.00000  Uiso   1.00
N88    N     0.17631   0.58007   0.27966   0.00000  Uiso   1.00
N89    N     0.83702   0.30081   0.55671   0.00000  Uiso   1.00
N90    N     0.19148   0.36442   0.71767   0.00000  Uiso   1.00
N91    N     0.07557   0.45967   0.22076   0.00000  Uiso   1.00
N92    N     0.73627   0.18041   0.49781   0.00000  Uiso   1.00
C93    C     0.44408   0.03418   0.70947   0.00000  Uiso   1.00
C94    C     0.37762   0.05838   0.57578   0.00000  Uiso   1.00
C95    C     0.37785   0.01165   0.49617   0.00000  Uiso   1.00
C96    C     0.31137   0.04458   0.37746   0.00000  Uiso   1.00
C97    C     0.21792   0.07042   0.17557   0.00000  Uiso   1.00
C98    C     0.34566   0.03212   0.71441   0.00000  Uiso   1.00
C99    C     0.31903   0.96331   0.75138   0.00000  Uiso   1.00
C100   C     0.22565   0.97415   0.74939   0.00000  Uiso   1.00
C101   C     0.08264   0.95925   0.76282   0.00000  Uiso   1.00
C102   C     0.52775   0.10908   0.79075   0.00000  Uiso   1.00
C103   C     0.65422   0.10499   0.89194   0.00000  Uiso   1.00
C104   C     0.71415   0.18062   0.95424   0.00000  Uiso   1.00
C105   C     0.85386   0.28522   0.08620   0.00000  Uiso   1.00
C106   C     0.32560   0.17578   0.64021   0.00000  Uiso   1.00
C107   C     0.31327   0.13528   0.53816   0.00000  Uiso   1.00
C108   C     0.24677   0.16830   0.41954   0.00000  Uiso   1.00
C109   C     0.24691   0.12163   0.33977   0.00000  Uiso   1.00
C110   C     0.28131   0.10902   0.67679   0.00000  Uiso   1.00
C111   C     0.18795   0.11997   0.67476   0.00000  Uiso   1.00
C112   C     0.16118   0.05119   0.71171   0.00000  Uiso   1.00
C113   C     0.46340   0.18599   0.75313   0.00000  Uiso   1.00
C114   C     0.52314   0.26164   0.81530   0.00000  Uiso   1.00
C115   C     0.64968   0.25766   0.91655   0.00000  Uiso   1.00
H116   H     0.49417   0.97431   0.73876   0.00000  Uiso   1.00
H117   H     0.42765   0.95213   0.52532   0.00000  Uiso   1.00
H118   H     0.36885   0.90381   0.78050   0.00000  Uiso   1.00
H119   H     0.70399   0.04546   0.92102   0.00000  Uiso   1.00
H120   H     0.32549   0.96144   0.27207   0.00000  Uiso   1.00
H121   H     0.20153   0.85956   0.81018   0.00000  Uiso   1.00
H122   H     0.90823   0.15826   0.10650   0.00000  Uiso   1.00
H123   H     0.27550   0.23565   0.61092   0.00000  Uiso   1.00
H124   H     0.19698   0.22782   0.39046   0.00000  Uiso   1.00
H125   H     0.13818   0.17949   0.64564   0.00000  Uiso   1.00
H126   H     0.47331   0.32114   0.78616   0.00000  Uiso   1.00
H127   H     0.13826   0.18519   0.16261   0.00000  Uiso   1.00
H128   H     0.01430   0.08332   0.70073   0.00000  Uiso   1.00
H129   H     0.72101   0.38202   0.99704   0.00000  Uiso   1.00
O130   O     0.18414   0.06343   0.07460   0.00000  Uiso   1.00
O131   O     0.02152   0.92978   0.78061   0.00000  Uiso   1.00
O132   O     0.94870   0.32167   0.16936   0.00000  Uiso   1.00
N133   N     0.29222   0.01518   0.27657   0.00000  Uiso   1.00
N134   N     0.17631   0.91993   0.77966   0.00000  Uiso   1.00
N135   N     0.83702   0.19919   0.05671   0.00000  Uiso   1.00
N136   N     0.19148   0.13558   0.21767   0.00000  Uiso   1.00
N137   N     0.07557   0.04033   0.72076   0.00000  Uiso   1.00
N138   N     0.73627   0.31959   0.99781   0.00000  Uiso   1.00
C139   C     0.55592   0.53418   0.79053   0.00000  Uiso   1.00
C140   C     0.62238   0.55838   0.92422   0.00000  Uiso   1.00
C141   C     0.62215   0.51165   0.00383   0.00000  Uiso   1.00
C142   C     0.68863   0.54458   0.12254   0.00000  Uiso   1.00
C143   C     0.78208   0.57042   0.32443   0.00000  Uiso   1.00
C144   C     0.65434   0.53212   0.78559   0.00000  Uiso   1.00
C145   C     0.68097   0.46331   0.74862   0.00000  Uiso   1.00
C146   C     0.77435   0.47415   0.75061   0.00000  Uiso   1.00
C147   C     0.91736   0.45925   0.73718   0.00000  Uiso   1.00
C148   C     0.47225   0.60908   0.70925   0.00000  Uiso   1.00
C149   C     0.34578   0.60499   0.60806   0.00000  Uiso   1.00
C150   C     0.28585   0.68062   0.54576   0.00000  Uiso   1.00
C151   C     0.14614   0.78522   0.41380   0.00000  Uiso   1.00
C152   C     0.67440   0.67578   0.85979   0.00000  Uiso   1.00
C153   C     0.68673   0.63528   0.96184   0.00000  Uiso   1.00
C154   C     0.75323   0.66830   0.08046   0.00000  Uiso   1.00
C155   C     0.75309   0.62163   0.16023   0.00000  Uiso   1.00
C156   C     0.71869   0.60902   0.82321   0.00000  Uiso   1.00
C157   C     0.81205   0.61997   0.82524   0.00000  Uiso   1.00
C158   C     0.83882   0.55119   0.78829   0.00000  Uiso   1.00
C159   C     0.53660   0.68599   0.74687   0.00000  Uiso   1.00
C160   C     0.47686   0.76164   0.68470   0.00000  Uiso   1.00
C161   C     0.35032   0.75766   0.58345   0.00000  Uiso   1.00
H162   H     0.50583   0.47431   0.76124   0.00000  Uiso   1.00
H163   H     0.57235   0.45213   0.97468   0.00000  Uiso   1.00
H164   H     0.63115   0.40381   0.71950   0.00000  Uiso   1.00
H165   H     0.29601   0.54546   0.57898   0.00000  Uiso   1.00
H166   H     0.67451   0.46144   0.22793   0.00000  Uiso   1.00
H167   H     0.79847   0.35956   0.68982   0.00000  Uiso   1.00
H168   H     0.09177   0.65826   0.39350   0.00000  Uiso   1.00
H169   H     0.72450   0.73565   0.88908   0.00000  Uiso   1.00
H170   H     0.80302   0.72782   0.10954   0.00000  Uiso   1.00
H171   H     0.86182   0.67949   0.85436   0.00000  Uiso   1.00
H172   H     0.52669   0.82114   0.71384   0.00000  Uiso   1.00
H173   H     0.86174   0.68519   0.33739   0.00000  Uiso   1.00
H174   H     0.98570   0.58332   0.79927   0.00000  Uiso   1.00
H175   H     0.27899   0.88202   0.50296   0.00000  Uiso   1.00
O176   O     0.81586   0.56343   0.42540   0.00000  Uiso   1.00
O177   O     0.97848   0.42978   0.71939   0.00000  Uiso   1.00
O178   O     0.05130   0.82167   0.33064   0.00000  Uiso   1.00
N179   N     0.70778   0.51518   0.22343   0.00000  Uiso   1.00
N180   N     0.82369   0.41993   0.72034   0.00000  Uiso   1.00
N181   N     0.16298   0.69919   0.44329   0.00000  Uiso   1.00
N182   N     0.80852   0.63558   0.28233   0.00000  Uiso   1.00
N183   N     0.92443   0.54033   0.77924   0.00000  Uiso   1.00
N184   N     0.26373   0.81959   0.50219   0.00000  Uiso   1.00
