data_job_05475
_audit_creation_date              2018-12-19
_audit_creation_method            'Materials Studio'
_symmetry_space_group_name_H-M    'P1'
_symmetry_Int_Tables_number       1
_symmetry_cell_setting            triclinic
loop_
_symmetry_equiv_pos_as_xyz
  x,y,z
_cell_length_a                    12.8203
_cell_length_b                    18.3639
_cell_length_c                    12.4498
_cell_angle_alpha                 90.0000
_cell_angle_beta                  57.1688
_cell_angle_gamma                 90.0000
loop_
_atom_site_label
_atom_site_type_symbol
_atom_site_fract_x
_atom_site_fract_y
_atom_site_fract_z
_atom_site_U_iso_or_equiv
_atom_site_adp_type
_atom_site_occupancy
C1     C     0.62023   0.04030   0.68944   0.00000  Uiso   1.00
C2     C     0.58308   0.07319   0.60240   0.00000  Uiso   1.00
C3     C     0.48446   0.05062   0.59393   0.00000  Uiso   1.00
C4     C     0.46584   0.08772   0.50850   0.00000  Uiso   1.00
C5     C     0.39644   0.13000   0.38460   0.00000  Uiso   1.00
C6     C     0.75559   0.01736   0.60214   0.00000  Uiso   1.00
C7     C     0.80202   0.94784   0.59347   0.00000  Uiso   1.00
C8     C     0.92863   0.93793   0.50784   0.00000  Uiso   1.00
C9     C     0.12708   0.89354   0.38360   0.00000  Uiso   1.00
C10    C     0.61952   0.10301   0.77011   0.00000  Uiso   1.00
C11    C     0.55156   0.10551   0.90269   0.00000  Uiso   1.00
C12    C     0.56362   0.16772   0.95848   0.00000  Uiso   1.00
C13    C     0.55079   0.25632   0.09505   0.00000  Uiso   1.00
C14    C     0.76251   0.14633   0.55278   0.00000  Uiso   1.00
C15    C     0.66037   0.13078   0.52817   0.00000  Uiso   1.00
C16    C     0.64188   0.16792   0.44274   0.00000  Uiso   1.00
C17    C     0.54325   0.14541   0.43415   0.00000  Uiso   1.00
C18    C     0.83288   0.07494   0.52791   0.00000  Uiso   1.00
C19    C     0.95944   0.06514   0.44228   0.00000  Uiso   1.00
C20    C     0.00605   0.99562   0.43348   0.00000  Uiso   1.00
C21    C     0.69680   0.16060   0.69589   0.00000  Uiso   1.00
C22    C     0.70898   0.22281   0.75149   0.00000  Uiso   1.00
C23    C     0.64105   0.22541   0.88412   0.00000  Uiso   1.00
H24    H     0.56007   0.99547   0.74722   0.00000  Uiso   1.00
H25    H     0.42468   0.00605   0.65138   0.00000  Uiso   1.00
H26    H     0.74220   0.90329   0.65093   0.00000  Uiso   1.00
H27    H     0.49177   0.06093   0.96009   0.00000  Uiso   1.00
H28    H     0.30869   0.04316   0.51235   0.00000  Uiso   1.00
H29    H     0.97820   0.82648   0.51144   0.00000  Uiso   1.00
H30    H     0.45012   0.15891   0.16338   0.00000  Uiso   1.00
H31    H     0.82268   0.19116   0.49499   0.00000  Uiso   1.00
H32    H     0.70170   0.21249   0.38531   0.00000  Uiso   1.00
H33    H     0.01922   0.10972   0.38486   0.00000  Uiso   1.00
H34    H     0.76879   0.26737   0.69402   0.00000  Uiso   1.00
H35    H     0.53354   0.21071   0.29640   0.00000  Uiso   1.00
H36    H     0.20305   0.99403   0.29549   0.00000  Uiso   1.00
H37    H     0.67497   0.32646   0.94742   0.00000  Uiso   1.00
O38    O     0.33682   0.13741   0.33674   0.00000  Uiso   1.00
O39    O     0.21518   0.85314   0.33557   0.00000  Uiso   1.00
O40    O     0.52235   0.28929   0.19089   0.00000  Uiso   1.00
N41    N     0.37820   0.07968   0.47660   0.00000  Uiso   1.00
N42    N     0.00414   0.87709   0.47573   0.00000  Uiso   1.00
N43    N     0.51046   0.18788   0.08524   0.00000  Uiso   1.00
N44    N     0.49918   0.16983   0.36040   0.00000  Uiso   1.00
N45    N     0.12513   0.96725   0.35953   0.00000  Uiso   1.00
N46    N     0.63144   0.27804   0.96904   0.00000  Uiso   1.00
C47    C     0.12023   0.54030   0.68944   0.00000  Uiso   1.00
C48    C     0.08308   0.57319   0.60240   0.00000  Uiso   1.00
C49    C     0.98446   0.55062   0.59393   0.00000  Uiso   1.00
C50    C     0.96584   0.58772   0.50850   0.00000  Uiso   1.00
C51    C     0.89644   0.63000   0.38460   0.00000  Uiso   1.00
C52    C     0.25559   0.51736   0.60214   0.00000  Uiso   1.00
C53    C     0.30202   0.44784   0.59347   0.00000  Uiso   1.00
C54    C     0.42863   0.43793   0.50784   0.00000  Uiso   1.00
C55    C     0.62708   0.39354   0.38360   0.00000  Uiso   1.00
C56    C     0.11952   0.60301   0.77011   0.00000  Uiso   1.00
C57    C     0.05156   0.60551   0.90269   0.00000  Uiso   1.00
C58    C     0.06362   0.66772   0.95848   0.00000  Uiso   1.00
C59    C     0.05079   0.75632   0.09505   0.00000  Uiso   1.00
C60    C     0.26251   0.64633   0.55278   0.00000  Uiso   1.00
C61    C     0.16037   0.63078   0.52817   0.00000  Uiso   1.00
C62    C     0.14188   0.66792   0.44274   0.00000  Uiso   1.00
C63    C     0.04325   0.64541   0.43415   0.00000  Uiso   1.00
C64    C     0.33288   0.57494   0.52791   0.00000  Uiso   1.00
C65    C     0.45944   0.56514   0.44228   0.00000  Uiso   1.00
C66    C     0.50605   0.49562   0.43348   0.00000  Uiso   1.00
C67    C     0.19680   0.66060   0.69589   0.00000  Uiso   1.00
C68    C     0.20898   0.72281   0.75149   0.00000  Uiso   1.00
C69    C     0.14105   0.72541   0.88412   0.00000  Uiso   1.00
H70    H     0.06007   0.49547   0.74722   0.00000  Uiso   1.00
H71    H     0.92468   0.50605   0.65138   0.00000  Uiso   1.00
H72    H     0.24220   0.40329   0.65093   0.00000  Uiso   1.00
H73    H     0.99177   0.56093   0.96009   0.00000  Uiso   1.00
H74    H     0.80869   0.54316   0.51235   0.00000  Uiso   1.00
H75    H     0.47820   0.32648   0.51144   0.00000  Uiso   1.00
H76    H     0.95012   0.65891   0.16338   0.00000  Uiso   1.00
H77    H     0.32268   0.69116   0.49499   0.00000  Uiso   1.00
H78    H     0.20170   0.71249   0.38531   0.00000  Uiso   1.00
H79    H     0.51922   0.60972   0.38486   0.00000  Uiso   1.00
H80    H     0.26879   0.76737   0.69402   0.00000  Uiso   1.00
H81    H     0.03354   0.71071   0.29640   0.00000  Uiso   1.00
H82    H     0.70305   0.49403   0.29549   0.00000  Uiso   1.00
H83    H     0.17497   0.82646   0.94742   0.00000  Uiso   1.00
O84    O     0.83682   0.63741   0.33674   0.00000  Uiso   1.00
O85    O     0.71518   0.35314   0.33557   0.00000  Uiso   1.00
O86    O     0.02235   0.78929   0.19089   0.00000  Uiso   1.00
N87    N     0.87820   0.57968   0.47660   0.00000  Uiso   1.00
N88    N     0.50414   0.37709   0.47573   0.00000  Uiso   1.00
N89    N     0.01046   0.68788   0.08524   0.00000  Uiso   1.00
N90    N     0.99918   0.66983   0.36040   0.00000  Uiso   1.00
N91    N     0.62513   0.46725   0.35953   0.00000  Uiso   1.00
N92    N     0.13144   0.77804   0.96904   0.00000  Uiso   1.00
C93    C     0.62023   0.95970   0.18944   0.00000  Uiso   1.00
C94    C     0.58308   0.92681   0.10240   0.00000  Uiso   1.00
C95    C     0.48446   0.94938   0.09393   0.00000  Uiso   1.00
C96    C     0.46584   0.91228   0.00850   0.00000  Uiso   1.00
C97    C     0.39644   0.87000   0.88460   0.00000  Uiso   1.00
C98    C     0.75559   0.98264   0.10214   0.00000  Uiso   1.00
C99    C     0.80202   0.05216   0.09347   0.00000  Uiso   1.00
C100   C     0.92863   0.06207   0.00784   0.00000  Uiso   1.00
C101   C     0.12708   0.10646   0.88360   0.00000  Uiso   1.00
C102   C     0.61952   0.89699   0.27011   0.00000  Uiso   1.00
C103   C     0.55156   0.89449   0.40269   0.00000  Uiso   1.00
C104   C     0.56362   0.83228   0.45848   0.00000  Uiso   1.00
C105   C     0.55079   0.74368   0.59505   0.00000  Uiso   1.00
C106   C     0.76251   0.85367   0.05278   0.00000  Uiso   1.00
C107   C     0.66037   0.86922   0.02817   0.00000  Uiso   1.00
C108   C     0.64188   0.83208   0.94274   0.00000  Uiso   1.00
C109   C     0.54325   0.85459   0.93415   0.00000  Uiso   1.00
C110   C     0.83288   0.92506   0.02791   0.00000  Uiso   1.00
C111   C     0.95944   0.93486   0.94228   0.00000  Uiso   1.00
C112   C     0.00605   0.00438   0.93348   0.00000  Uiso   1.00
C113   C     0.69680   0.83940   0.19589   0.00000  Uiso   1.00
C114   C     0.70898   0.77719   0.25149   0.00000  Uiso   1.00
C115   C     0.64105   0.77459   0.38412   0.00000  Uiso   1.00
H116   H     0.56007   0.00453   0.24722   0.00000  Uiso   1.00
H117   H     0.42468   0.99395   0.15138   0.00000  Uiso   1.00
H118   H     0.74220   0.09671   0.15093   0.00000  Uiso   1.00
H119   H     0.49177   0.93907   0.46009   0.00000  Uiso   1.00
H120   H     0.30869   0.95684   0.01235   0.00000  Uiso   1.00
H121   H     0.97820   0.17352   0.01144   0.00000  Uiso   1.00
H122   H     0.45012   0.84109   0.66338   0.00000  Uiso   1.00
H123   H     0.82268   0.80884   0.99499   0.00000  Uiso   1.00
H124   H     0.70170   0.78751   0.88531   0.00000  Uiso   1.00
H125   H     0.01922   0.89028   0.88486   0.00000  Uiso   1.00
H126   H     0.76879   0.73263   0.19402   0.00000  Uiso   1.00
H127   H     0.53354   0.78929   0.79640   0.00000  Uiso   1.00
H128   H     0.20305   0.00597   0.79549   0.00000  Uiso   1.00
H129   H     0.67497   0.67354   0.44742   0.00000  Uiso   1.00
O130   O     0.33682   0.86259   0.83674   0.00000  Uiso   1.00
O131   O     0.21518   0.14686   0.83557   0.00000  Uiso   1.00
O132   O     0.52235   0.71071   0.69089   0.00000  Uiso   1.00
N133   N     0.37820   0.92032   0.97660   0.00000  Uiso   1.00
N134   N     0.00414   0.12291   0.97573   0.00000  Uiso   1.00
N135   N     0.51046   0.81212   0.58524   0.00000  Uiso   1.00
N136   N     0.49918   0.83017   0.86040   0.00000  Uiso   1.00
N137   N     0.12513   0.03275   0.85953   0.00000  Uiso   1.00
N138   N     0.63144   0.72196   0.46904   0.00000  Uiso   1.00
C139   C     0.12023   0.45970   0.18944   0.00000  Uiso   1.00
C140   C     0.08308   0.42681   0.10240   0.00000  Uiso   1.00
C141   C     0.98446   0.44938   0.09393   0.00000  Uiso   1.00
C142   C     0.96584   0.41228   0.00850   0.00000  Uiso   1.00
C143   C     0.89644   0.37000   0.88460   0.00000  Uiso   1.00
C144   C     0.25559   0.48264   0.10214   0.00000  Uiso   1.00
C145   C     0.30202   0.55216   0.09347   0.00000  Uiso   1.00
C146   C     0.42863   0.56207   0.00784   0.00000  Uiso   1.00
C147   C     0.62708   0.60646   0.88360   0.00000  Uiso   1.00
C148   C     0.11952   0.39699   0.27011   0.00000  Uiso   1.00
C149   C     0.05156   0.39449   0.40269   0.00000  Uiso   1.00
C150   C     0.06362   0.33228   0.45848   0.00000  Uiso   1.00
C151   C     0.05079   0.24368   0.59505   0.00000  Uiso   1.00
C152   C     0.26251   0.35367   0.05278   0.00000  Uiso   1.00
C153   C     0.16037   0.36922   0.02817   0.00000  Uiso   1.00
C154   C     0.14188   0.33208   0.94274   0.00000  Uiso   1.00
C155   C     0.04325   0.35459   0.93415   0.00000  Uiso   1.00
C156   C     0.33288   0.42506   0.02791   0.00000  Uiso   1.00
C157   C     0.45944   0.43486   0.94228   0.00000  Uiso   1.00
C158   C     0.50605   0.50438   0.93348   0.00000  Uiso   1.00
C159   C     0.19680   0.33940   0.19589   0.00000  Uiso   1.00
C160   C     0.20898   0.27719   0.25149   0.00000  Uiso   1.00
C161   C     0.14105   0.27459   0.38412   0.00000  Uiso   1.00
H162   H     0.06007   0.50453   0.24722   0.00000  Uiso   1.00
H163   H     0.92468   0.49395   0.15138   0.00000  Uiso   1.00
H164   H     0.24220   0.59671   0.15093   0.00000  Uiso   1.00
H165   H     0.99177   0.43907   0.46009   0.00000  Uiso   1.00
H166   H     0.80869   0.45684   0.01235   0.00000  Uiso   1.00
H167   H     0.47820   0.67352   0.01144   0.00000  Uiso   1.00
H168   H     0.95012   0.34109   0.66338   0.00000  Uiso   1.00
H169   H     0.32268   0.30884   0.99499   0.00000  Uiso   1.00
H170   H     0.20170   0.28751   0.88531   0.00000  Uiso   1.00
H171   H     0.51922   0.39028   0.88486   0.00000  Uiso   1.00
H172   H     0.26879   0.23263   0.19402   0.00000  Uiso   1.00
H173   H     0.03354   0.28929   0.79640   0.00000  Uiso   1.00
H174   H     0.70305   0.50597   0.79549   0.00000  Uiso   1.00
H175   H     0.17497   0.17354   0.44742   0.00000  Uiso   1.00
O176   O     0.83682   0.36259   0.83674   0.00000  Uiso   1.00
O177   O     0.71518   0.64686   0.83557   0.00000  Uiso   1.00
O178   O     0.02235   0.21071   0.69089   0.00000  Uiso   1.00
N179   N     0.87820   0.42032   0.97660   0.00000  Uiso   1.00
N180   N     0.50414   0.62291   0.97573   0.00000  Uiso   1.00
N181   N     0.01046   0.31212   0.58524   0.00000  Uiso   1.00
N182   N     0.99918   0.33017   0.86040   0.00000  Uiso   1.00
N183   N     0.62513   0.53275   0.85953   0.00000  Uiso   1.00
N184   N     0.13144   0.22196   0.46904   0.00000  Uiso   1.00
