data_job_06462
_audit_creation_date              2018-12-19
_audit_creation_method            'Materials Studio'
_symmetry_space_group_name_H-M    'P1'
_symmetry_Int_Tables_number       1
_symmetry_cell_setting            triclinic
loop_
_symmetry_equiv_pos_as_xyz
  x,y,z
_cell_length_a                    23.4164
_cell_length_b                    23.8335
_cell_length_c                    23.9351
_cell_angle_alpha                 118.1362
_cell_angle_beta                  88.3816
_cell_angle_gamma                 61.2293
loop_
_atom_site_label
_atom_site_type_symbol
_atom_site_fract_x
_atom_site_fract_y
_atom_site_fract_z
_atom_site_U_iso_or_equiv
_atom_site_adp_type
_atom_site_occupancy
C1     C     0.92048   0.88040   0.87727   0.00000  Uiso   1.00
C2     C     0.86093   0.89715   0.84920   0.00000  Uiso   1.00
C3     C     0.79140   0.95123   0.88684   0.00000  Uiso   1.00
C4     C     0.74491   0.95782   0.85173   0.00000  Uiso   1.00
C5     C     0.64904   0.99079   0.81882   0.00000  Uiso   1.00
C6     C     0.96086   0.79474   0.84922   0.00000  Uiso   1.00
C7     C     0.97535   0.76274   0.88688   0.00000  Uiso   1.00
C8     C     0.01299   0.68312   0.85177   0.00000  Uiso   1.00
C9     C     0.07231   0.55710   0.81889   0.00000  Uiso   1.00
C10    C     0.96781   0.89140   0.84479   0.00000  Uiso   1.00
C11    C     0.98817   0.94065   0.87873   0.00000  Uiso   1.00
C12    C     0.03169   0.94240   0.83990   0.00000  Uiso   1.00
C13    C     0.10181   0.96646   0.80015   0.00000  Uiso   1.00
C14    C     0.96157   0.79592   0.74797   0.00000  Uiso   1.00
C15    C     0.88325   0.85126   0.77897   0.00000  Uiso   1.00
C16    C     0.83686   0.85777   0.74379   0.00000  Uiso   1.00
C17    C     0.76727   0.91186   0.78137   0.00000  Uiso   1.00
C18    C     0.98318   0.74886   0.77899   0.00000  Uiso   1.00
C19    C     0.02081   0.66928   0.74382   0.00000  Uiso   1.00
C20    C     0.03535   0.63716   0.78142   0.00000  Uiso   1.00
C21    C     0.99013   0.84552   0.77456   0.00000  Uiso   1.00
C22    C     0.03363   0.84719   0.73567   0.00000  Uiso   1.00
C23    C     0.05405   0.89644   0.76954   0.00000  Uiso   1.00
H24    H     0.90311   0.91611   0.93195   0.00000  Uiso   1.00
H25    H     0.77414   0.98672   0.94119   0.00000  Uiso   1.00
H26    H     0.95807   0.79826   0.94122   0.00000  Uiso   1.00
H27    H     0.97089   0.97615   0.93308   0.00000  Uiso   1.00
H28    H     0.64101   0.04476   0.92047   0.00000  Uiso   1.00
H29    H     0.02885   0.64737   0.92054   0.00000  Uiso   1.00
H30    H     0.05588   0.02248   0.90336   0.00000  Uiso   1.00
H31    H     0.97895   0.76020   0.69329   0.00000  Uiso   1.00
H32    H     0.85414   0.82226   0.68944   0.00000  Uiso   1.00
H33    H     0.03807   0.63379   0.68947   0.00000  Uiso   1.00
H34    H     0.05089   0.81168   0.68133   0.00000  Uiso   1.00
H35    H     0.70594   0.91127   0.71614   0.00000  Uiso   1.00
H36    H     0.09379   0.51387   0.71620   0.00000  Uiso   1.00
H37    H     0.12081   0.88899   0.69903   0.00000  Uiso   1.00
O38    O     0.59000   0.02163   0.82008   0.00000  Uiso   1.00
O39    O     0.09885   0.50027   0.82016   0.00000  Uiso   1.00
O40    O     0.13431   0.99241   0.79763   0.00000  Uiso   1.00
N41    N     0.67342   0.00484   0.87291   0.00000  Uiso   1.00
N42    N     0.03602   0.63330   0.87297   0.00000  Uiso   1.00
N43    N     0.06131   0.98398   0.85691   0.00000  Uiso   1.00
N44    N     0.70835   0.93301   0.76296   0.00000  Uiso   1.00
N45    N     0.07096   0.56147   0.76302   0.00000  Uiso   1.00
N46    N     0.09624   0.91215   0.74696   0.00000  Uiso   1.00
C47    C     0.44671   0.83620   0.76424   0.00000  Uiso   1.00
C48    C     0.49387   0.80499   0.69730   0.00000  Uiso   1.00
C49    C     0.49104   0.76238   0.63450   0.00000  Uiso   1.00
C50    C     0.53872   0.73916   0.57936   0.00000  Uiso   1.00
C51    C     0.60456   0.68781   0.47428   0.00000  Uiso   1.00
C52    C     0.49416   0.80456   0.79887   0.00000  Uiso   1.00
C53    C     0.49156   0.76160   0.82149   0.00000  Uiso   1.00
C54    C     0.53947   0.73803   0.85187   0.00000  Uiso   1.00
C55    C     0.60572   0.68606   0.90453   0.00000  Uiso   1.00
C56    C     0.41358   0.92272   0.80597   0.00000  Uiso   1.00
C57    C     0.34323   0.97911   0.83457   0.00000  Uiso   1.00
C58    C     0.32330   0.05502   0.87094   0.00000  Uiso   1.00
C59    C     0.26445   0.18650   0.93462   0.00000  Uiso   1.00
C60    C     0.53642   0.87075   0.77799   0.00000  Uiso   1.00
C61    C     0.54260   0.82376   0.70477   0.00000  Uiso   1.00
C62    C     0.59030   0.80060   0.64971   0.00000  Uiso   1.00
C63    C     0.58753   0.75796   0.58684   0.00000  Uiso   1.00
C64    C     0.54289   0.82332   0.80634   0.00000  Uiso   1.00
C65    C     0.59081   0.79982   0.83670   0.00000  Uiso   1.00
C66    C     0.58829   0.75682   0.85935   0.00000  Uiso   1.00
C67    C     0.46231   0.94149   0.81344   0.00000  Uiso   1.00
C68    C     0.44249   0.01732   0.84978   0.00000  Uiso   1.00
C69    C     0.37212   0.07381   0.87843   0.00000  Uiso   1.00
H70    H     0.40878   0.82159   0.75843   0.00000  Uiso   1.00
H71    H     0.45333   0.74786   0.62874   0.00000  Uiso   1.00
H72    H     0.45384   0.74709   0.81570   0.00000  Uiso   1.00
H73    H     0.30554   0.96456   0.82878   0.00000  Uiso   1.00
H74    H     0.52423   0.67437   0.48825   0.00000  Uiso   1.00
H75    H     0.52529   0.67277   0.88249   0.00000  Uiso   1.00
H76    H     0.21256   0.13135   0.91007   0.00000  Uiso   1.00
H77    H     0.57436   0.88536   0.78381   0.00000  Uiso   1.00
H78    H     0.62800   0.81513   0.65551   0.00000  Uiso   1.00
H79    H     0.62851   0.81435   0.84248   0.00000  Uiso   1.00
H80    H     0.48021   0.03182   0.85555   0.00000  Uiso   1.00
H81    H     0.66600   0.72896   0.50998   0.00000  Uiso   1.00
H82    H     0.66706   0.72736   0.90423   0.00000  Uiso   1.00
H83    H     0.35434   0.18594   0.93180   0.00000  Uiso   1.00
O84    O     0.62742   0.65430   0.41425   0.00000  Uiso   1.00
O85    O     0.62881   0.65220   0.93150   0.00000  Uiso   1.00
O86    O     0.21852   0.25385   0.96768   0.00000  Uiso   1.00
N87    N     0.55022   0.69687   0.51097   0.00000  Uiso   1.00
N88    N     0.55122   0.69536   0.87956   0.00000  Uiso   1.00
N89    N     0.25885   0.12409   0.90535   0.00000  Uiso   1.00
N90    N     0.62651   0.72625   0.52266   0.00000  Uiso   1.00
N91    N     0.62751   0.72474   0.89125   0.00000  Uiso   1.00
N92    N     0.33514   0.15347   0.91705   0.00000  Uiso   1.00
C93    C     0.00045   0.28616   0.31261   0.00000  Uiso   1.00
C94    C     0.94973   0.37314   0.35901   0.00000  Uiso   1.00
C95    C     0.96722   0.42601   0.38806   0.00000  Uiso   1.00
C96    C     0.91324   0.50303   0.42900   0.00000  Uiso   1.00
C97    C     0.84496   0.63455   0.49934   0.00000  Uiso   1.00
C98    C     0.98242   0.25240   0.34502   0.00000  Uiso   1.00
C99    C     0.02741   0.20375   0.36230   0.00000  Uiso   1.00
C100   C     0.00094   0.17912   0.39146   0.00000  Uiso   1.00
C101   C     0.98344   0.12313   0.44003   0.00000  Uiso   1.00
C102   C     0.98220   0.26226   0.24823   0.00000  Uiso   1.00
C103   C     0.02701   0.22187   0.18412   0.00000  Uiso   1.00
C104   C     0.00036   0.20553   0.13178   0.00000  Uiso   1.00
C105   C     0.98252   0.16485   0.03008   0.00000  Uiso   1.00
C106   C     0.87347   0.32892   0.33367   0.00000  Uiso   1.00
C107   C     0.88076   0.39636   0.37045   0.00000  Uiso   1.00
C108   C     0.82673   0.47332   0.41136   0.00000  Uiso   1.00
C109   C     0.84414   0.52630   0.44046   0.00000  Uiso   1.00
C110   C     0.91345   0.27562   0.35646   0.00000  Uiso   1.00
C111   C     0.88692   0.25106   0.38560   0.00000  Uiso   1.00
C112   C     0.93185   0.20238   0.40292   0.00000  Uiso   1.00
C113   C     0.91323   0.28548   0.25967   0.00000  Uiso   1.00
C114   C     0.88651   0.26919   0.20743   0.00000  Uiso   1.00
C115   C     0.93127   0.22879   0.14325   0.00000  Uiso   1.00
H116   H     0.05415   0.26808   0.30370   0.00000  Uiso   1.00
H117   H     0.02060   0.40802   0.37919   0.00000  Uiso   1.00
H118   H     0.08078   0.18578   0.35343   0.00000  Uiso   1.00
H119   H     0.08037   0.20391   0.17528   0.00000  Uiso   1.00
H120   H     0.95299   0.57340   0.46796   0.00000  Uiso   1.00
H121   H     0.07988   0.10478   0.41361   0.00000  Uiso   1.00
H122   H     0.07903   0.14301   0.03795   0.00000  Uiso   1.00
H123   H     0.81978   0.34701   0.34258   0.00000  Uiso   1.00
H124   H     0.77336   0.49128   0.42021   0.00000  Uiso   1.00
H125   H     0.83354   0.26904   0.39445   0.00000  Uiso   1.00
H126   H     0.83314   0.28717   0.21630   0.00000  Uiso   1.00
H127   H     0.75233   0.64098   0.50125   0.00000  Uiso   1.00
H128   H     0.87922   0.17235   0.44690   0.00000  Uiso   1.00
H129   H     0.87837   0.21058   0.07124   0.00000  Uiso   1.00
O130   O     0.82636   0.70067   0.53499   0.00000  Uiso   1.00
O131   O     0.99284   0.08584   0.46367   0.00000  Uiso   1.00
O132   O     0.99172   0.13600   0.97082   0.00000  Uiso   1.00
N133   N     0.91213   0.56951   0.46513   0.00000  Uiso   1.00
N134   N     0.03077   0.13138   0.41433   0.00000  Uiso   1.00
N135   N     0.02998   0.16710   0.06311   0.00000  Uiso   1.00
N136   N     0.80416   0.60587   0.48304   0.00000  Uiso   1.00
N137   N     0.92279   0.16775   0.43224   0.00000  Uiso   1.00
N138   N     0.92200   0.20347   0.08103   0.00000  Uiso   1.00
C139   C     0.91063   0.81919   0.36841   0.00000  Uiso   1.00
C140   C     0.95846   0.83360   0.34151   0.00000  Uiso   1.00
C141   C     0.97678   0.88342   0.38014   0.00000  Uiso   1.00
C142   C     0.02117   0.88847   0.34601   0.00000  Uiso   1.00
C143   C     0.09165   0.91740   0.31492   0.00000  Uiso   1.00
C144   C     0.95190   0.73283   0.33739   0.00000  Uiso   1.00
C145   C     0.96468   0.69792   0.37257   0.00000  Uiso   1.00
C146   C     0.00354   0.61814   0.33497   0.00000  Uiso   1.00
C147   C     0.06378   0.49061   0.29750   0.00000  Uiso   1.00
C148   C     0.85323   0.83658   0.33770   0.00000  Uiso   1.00
C149   C     0.78305   0.88890   0.37314   0.00000  Uiso   1.00
C150   C     0.73883   0.89646   0.33581   0.00000  Uiso   1.00
C151   C     0.64588   0.93003   0.29882   0.00000  Uiso   1.00
C152   C     0.95688   0.73958   0.23909   0.00000  Uiso   1.00
C153   C     0.98359   0.79036   0.27126   0.00000  Uiso   1.00
C154   C     0.02796   0.79534   0.23706   0.00000  Uiso   1.00
C155   C     0.04633   0.84516   0.27564   0.00000  Uiso   1.00
C156   C     0.97702   0.68959   0.26715   0.00000  Uiso   1.00
C157   C     0.01586   0.60984   0.22949   0.00000  Uiso   1.00
C158   C     0.02871   0.57482   0.26460   0.00000  Uiso   1.00
C159   C     0.87835   0.79334   0.26746   0.00000  Uiso   1.00
C160   C     0.83423   0.80082   0.23006   0.00000  Uiso   1.00
C161   C     0.76400   0.85314   0.26544   0.00000  Uiso   1.00
H162   H     0.89107   0.85285   0.42309   0.00000  Uiso   1.00
H163   H     0.95733   0.91687   0.43450   0.00000  Uiso   1.00
H164   H     0.94523   0.73140   0.42693   0.00000  Uiso   1.00
H165   H     0.76363   0.92235   0.42750   0.00000  Uiso   1.00
H166   H     0.04189   0.96875   0.41617   0.00000  Uiso   1.00
H167   H     0.01636   0.57767   0.40020   0.00000  Uiso   1.00
H168   H     0.63341   0.98033   0.40141   0.00000  Uiso   1.00
H169   H     0.97645   0.70591   0.18440   0.00000  Uiso   1.00
H170   H     0.04739   0.76187   0.18270   0.00000  Uiso   1.00
H171   H     0.03529   0.57639   0.17513   0.00000  Uiso   1.00
H172   H     0.85369   0.76735   0.17571   0.00000  Uiso   1.00
H173   H     0.11499   0.84295   0.21180   0.00000  Uiso   1.00
H174   H     0.08946   0.45186   0.19584   0.00000  Uiso   1.00
H175   H     0.70651   0.85453   0.19704   0.00000  Uiso   1.00
O176   O     0.12359   0.94529   0.31718   0.00000  Uiso   1.00
O177   O     0.09008   0.43221   0.29623   0.00000  Uiso   1.00
O178   O     0.58767   0.96050   0.29782   0.00000  Uiso   1.00
N179   N     0.04935   0.93148   0.36830   0.00000  Uiso   1.00
N180   N     0.02548   0.56584   0.35338   0.00000  Uiso   1.00
N181   N     0.66746   0.94228   0.35451   0.00000  Uiso   1.00
N182   N     0.08868   0.86378   0.25834   0.00000  Uiso   1.00
N183   N     0.06482   0.49814   0.24341   0.00000  Uiso   1.00
N184   N     0.70680   0.87459   0.24454   0.00000  Uiso   1.00
C185   C     0.47661   0.81885   0.26058   0.00000  Uiso   1.00
C186   C     0.46240   0.78682   0.19458   0.00000  Uiso   1.00
C187   C     0.50885   0.74525   0.13104   0.00000  Uiso   1.00
C188   C     0.48595   0.72102   0.07699   0.00000  Uiso   1.00
C189   C     0.47408   0.66869   0.97311   0.00000  Uiso   1.00
C190   C     0.46182   0.78591   0.29595   0.00000  Uiso   1.00
C191   C     0.50778   0.74358   0.31764   0.00000  Uiso   1.00
C192   C     0.48438   0.71859   0.34893   0.00000  Uiso   1.00
C193   C     0.47160   0.66489   0.40247   0.00000  Uiso   1.00
C194   C     0.42112   0.90498   0.30285   0.00000  Uiso   1.00
C195   C     0.43286   0.96278   0.33037   0.00000  Uiso   1.00
C196   C     0.37519   0.03804   0.36748   0.00000  Uiso   1.00
C197   C     0.29921   0.16923   0.43173   0.00000  Uiso   1.00
C198   C     0.35332   0.84973   0.27758   0.00000  Uiso   1.00
C199   C     0.39543   0.80359   0.20382   0.00000  Uiso   1.00
C200   C     0.37245   0.77941   0.14985   0.00000  Uiso   1.00
C201   C     0.41886   0.73782   0.08624   0.00000  Uiso   1.00
C202   C     0.39486   0.80267   0.30518   0.00000  Uiso   1.00
C203   C     0.37138   0.77774   0.33645   0.00000  Uiso   1.00
C204   C     0.41730   0.73539   0.35819   0.00000  Uiso   1.00
C205   C     0.35415   0.92175   0.31209   0.00000  Uiso   1.00
C206   C     0.29645   0.99694   0.34917   0.00000  Uiso   1.00
C207   C     0.30810   0.05484   0.37673   0.00000  Uiso   1.00
H208   H     0.52874   0.80579   0.25339   0.00000  Uiso   1.00
H209   H     0.56067   0.73228   0.12392   0.00000  Uiso   1.00
H210   H     0.55960   0.73062   0.31050   0.00000  Uiso   1.00
H211   H     0.48468   0.94978   0.32321   0.00000  Uiso   1.00
H212   H     0.56655   0.65815   0.98444   0.00000  Uiso   1.00
H213   H     0.56428   0.65466   0.37787   0.00000  Uiso   1.00
H214   H     0.40631   0.11681   0.40469   0.00000  Uiso   1.00
H215   H     0.30118   0.86279   0.28477   0.00000  Uiso   1.00
H216   H     0.32063   0.79240   0.15701   0.00000  Uiso   1.00
H217   H     0.31955   0.79073   0.34359   0.00000  Uiso   1.00
H218   H     0.24464   0.00990   0.35631   0.00000  Uiso   1.00
H219   H     0.37172   0.70694   0.01130   0.00000  Uiso   1.00
H220   H     0.36945   0.70346   0.40474   0.00000  Uiso   1.00
H221   H     0.21148   0.16561   0.43155   0.00000  Uiso   1.00
O222   O     0.48604   0.63519   0.91326   0.00000  Uiso   1.00
O223   O     0.48306   0.63064   0.42944   0.00000  Uiso   1.00
O224   O     0.27580   0.23696   0.46461   0.00000  Uiso   1.00
N225   N     0.51803   0.67931   0.00830   0.00000  Uiso   1.00
N226   N     0.51591   0.67604   0.37612   0.00000  Uiso   1.00
N227   N     0.36822   0.10811   0.40120   0.00000  Uiso   1.00
N228   N     0.41319   0.70556   0.02275   0.00000  Uiso   1.00
N229   N     0.41107   0.70229   0.39058   0.00000  Uiso   1.00
N230   N     0.26338   0.13436   0.41566   0.00000  Uiso   1.00
C231   C     0.42555   0.33154   0.80437   0.00000  Uiso   1.00
C232   C     0.35948   0.41155   0.85029   0.00000  Uiso   1.00
C233   C     0.29327   0.43180   0.84957   0.00000  Uiso   1.00
C234   C     0.23963   0.50797   0.89562   0.00000  Uiso   1.00
C235   C     0.13517   0.62399   0.96010   0.00000  Uiso   1.00
C236   C     0.46023   0.31009   0.85053   0.00000  Uiso   1.00
C237   C     0.47874   0.24503   0.85000   0.00000  Uiso   1.00
C238   C     0.50993   0.23579   0.89624   0.00000  Uiso   1.00
C239   C     0.56193   0.19426   0.96105   0.00000  Uiso   1.00
C240   C     0.47237   0.34099   0.76920   0.00000  Uiso   1.00
C241   C     0.50110   0.30191   0.70029   0.00000  Uiso   1.00
C242   C     0.54252   0.31867   0.67806   0.00000  Uiso   1.00
C243   C     0.61337   0.32513   0.61659   0.00000  Uiso   1.00
C244   C     0.44804   0.43078   0.88743   0.00000  Uiso   1.00
C245   C     0.37169   0.46545   0.89541   0.00000  Uiso   1.00
C246   C     0.31815   0.54161   0.94147   0.00000  Uiso   1.00
C247   C     0.25187   0.56198   0.94082   0.00000  Uiso   1.00
C248   C     0.47244   0.36399   0.89565   0.00000  Uiso   1.00
C249   C     0.50362   0.35483   0.94190   0.00000  Uiso   1.00
C250   C     0.52216   0.28979   0.94144   0.00000  Uiso   1.00
C251   C     0.48458   0.39490   0.81432   0.00000  Uiso   1.00
C252   C     0.52597   0.41171   0.79219   0.00000  Uiso   1.00
C253   C     0.55476   0.37267   0.72325   0.00000  Uiso   1.00
H254   H     0.41605   0.28957   0.76924   0.00000  Uiso   1.00
H255   H     0.28383   0.39007   0.81465   0.00000  Uiso   1.00
H256   H     0.46928   0.20332   0.81508   0.00000  Uiso   1.00
H257   H     0.49163   0.26020   0.66539   0.00000  Uiso   1.00
H258   H     0.14264   0.52526   0.88491   0.00000  Uiso   1.00
H259   H     0.53369   0.13148   0.88578   0.00000  Uiso   1.00
H260   H     0.58082   0.25141   0.57014   0.00000  Uiso   1.00
H261   H     0.45755   0.47275   0.92256   0.00000  Uiso   1.00
H262   H     0.32762   0.58331   0.97638   0.00000  Uiso   1.00
H263   H     0.51306   0.39656   0.97680   0.00000  Uiso   1.00
H264   H     0.53542   0.45343   0.82712   0.00000  Uiso   1.00
H265   H     0.17817   0.68210   0.01618   0.00000  Uiso   1.00
H266   H     0.56923   0.28832   0.01705   0.00000  Uiso   1.00
H267   H     0.61636   0.40825   0.70141   0.00000  Uiso   1.00
O268   O     0.07418   0.67310   0.98320   0.00000  Uiso   1.00
O269   O     0.58723   0.15647   0.98433   0.00000  Uiso   1.00
O270   O     0.64907   0.31381   0.57022   0.00000  Uiso   1.00
N271   N     0.16883   0.54700   0.90841   0.00000  Uiso   1.00
N272   N     0.53443   0.17885   0.90923   0.00000  Uiso   1.00
N273   N     0.57852   0.29095   0.61413   0.00000  Uiso   1.00
N274   N     0.18796   0.63140   0.97904   0.00000  Uiso   1.00
N275   N     0.55355   0.26324   0.97986   0.00000  Uiso   1.00
N276   N     0.59764   0.37535   0.68476   0.00000  Uiso   1.00
C277   C     0.33900   0.96923   0.07070   0.00000  Uiso   1.00
C278   C     0.39822   0.95871   0.09905   0.00000  Uiso   1.00
C279   C     0.46788   0.91030   0.06162   0.00000  Uiso   1.00
C280   C     0.51401   0.90888   0.09697   0.00000  Uiso   1.00
C281   C     0.60944   0.88567   0.13031   0.00000  Uiso   1.00
C282   C     0.29192   0.05496   0.09953   0.00000  Uiso   1.00
C283   C     0.27220   0.08747   0.06249   0.00000  Uiso   1.00
C284   C     0.22884   0.16707   0.09825   0.00000  Uiso   1.00
C285   C     0.15918   0.29329   0.13233   0.00000  Uiso   1.00
C286   C     0.29810   0.95127   0.10217   0.00000  Uiso   1.00
C287   C     0.28356   0.89662   0.06735   0.00000  Uiso   1.00
C288   C     0.24539   0.88893   0.10534   0.00000  Uiso   1.00
C289   C     0.18534   0.85416   0.14352   0.00000  Uiso   1.00
C290   C     0.29704   0.05277   0.20007   0.00000  Uiso   1.00
C291   C     0.37542   0.00409   0.16932   0.00000  Uiso   1.00
C292   C     0.42146   0.00274   0.20474   0.00000  Uiso   1.00
C293   C     0.49119   0.95434   0.16736   0.00000  Uiso   1.00
C294   C     0.26913   0.10034   0.16979   0.00000  Uiso   1.00
C295   C     0.22578   0.17991   0.20562   0.00000  Uiso   1.00
C296   C     0.20600   0.21253   0.16865   0.00000  Uiso   1.00
C297   C     0.27531   0.99665   0.17244   0.00000  Uiso   1.00
C298   C     0.23715   0.98905   0.21048   0.00000  Uiso   1.00
C299   C     0.22256   0.93440   0.17573   0.00000  Uiso   1.00
H300   H     0.35673   0.93390   0.01600   0.00000  Uiso   1.00
H301   H     0.48550   0.87520   0.00724   0.00000  Uiso   1.00
H302   H     0.28984   0.05234   0.00812   0.00000  Uiso   1.00
H303   H     0.30121   0.86151   0.01298   0.00000  Uiso   1.00
H304   H     0.61821   0.83015   0.02851   0.00000  Uiso   1.00
H305   H     0.20563   0.20366   0.03037   0.00000  Uiso   1.00
H306   H     0.22960   0.80126   0.04062   0.00000  Uiso   1.00
H307   H     0.27929   0.08811   0.25477   0.00000  Uiso   1.00
H308   H     0.40381   0.03786   0.25912   0.00000  Uiso   1.00
H309   H     0.20815   0.21500   0.25999   0.00000  Uiso   1.00
H310   H     0.21952   0.02418   0.26486   0.00000  Uiso   1.00
H311   H     0.55191   0.96218   0.23295   0.00000  Uiso   1.00
H312   H     0.13932   0.33568   0.23480   0.00000  Uiso   1.00
H313   H     0.16330   0.93329   0.24506   0.00000  Uiso   1.00
O314   O     0.66836   0.86035   0.12928   0.00000  Uiso   1.00
O315   O     0.12706   0.35037   0.13171   0.00000  Uiso   1.00
O316   O     0.15852   0.82244   0.14516   0.00000  Uiso   1.00
N317   N     0.58551   0.86811   0.07603   0.00000  Uiso   1.00
N318   N     0.19979   0.21731   0.07776   0.00000  Uiso   1.00
N319   N     0.22218   0.84112   0.08735   0.00000  Uiso   1.00
N320   N     0.54984   0.93915   0.18604   0.00000  Uiso   1.00
N321   N     0.16411   0.28836   0.18777   0.00000  Uiso   1.00
N322   N     0.18651   0.91217   0.19735   0.00000  Uiso   1.00
C323   C     0.81671   0.13124   0.21967   0.00000  Uiso   1.00
C324   C     0.77778   0.12336   0.26465   0.00000  Uiso   1.00
C325   C     0.76146   0.16117   0.33384   0.00000  Uiso   1.00
C326   C     0.72560   0.14622   0.36583   0.00000  Uiso   1.00
C327   C     0.66798   0.14177   0.44116   0.00000  Uiso   1.00
C328   C     0.76985   0.15597   0.18155   0.00000  Uiso   1.00
C329   C     0.74688   0.22120   0.18085   0.00000  Uiso   1.00
C330   C     0.70435   0.23369   0.14288   0.00000  Uiso   1.00
C331   C     0.63447   0.27984   0.08913   0.00000  Uiso   1.00
C332   C     0.87872   0.05011   0.16743   0.00000  Uiso   1.00
C333   C     0.94730   0.02633   0.15485   0.00000  Uiso   1.00
C334   C     0.99643   0.94969   0.10498   0.00000  Uiso   1.00
C335   C     0.09560   0.83148   0.02932   0.00000  Uiso   1.00
C336   C     0.78202   0.03744   0.15345   0.00000  Uiso   1.00
C337   C     0.75894   0.07242   0.22868   0.00000  Uiso   1.00
C338   C     0.72309   0.05740   0.26058   0.00000  Uiso   1.00
C339   C     0.70673   0.09519   0.32980   0.00000  Uiso   1.00
C340   C     0.75101   0.10503   0.14558   0.00000  Uiso   1.00
C341   C     0.70851   0.11743   0.10759   0.00000  Uiso   1.00
C342   C     0.68547   0.18266   0.10684   0.00000  Uiso   1.00
C343   C     0.85989   0.99916   0.13146   0.00000  Uiso   1.00
C344   C     0.90892   0.92256   0.08159   0.00000  Uiso   1.00
C345   C     0.97756   0.89866   0.06894   0.00000  Uiso   1.00
H346   H     0.83137   0.17090   0.24767   0.00000  Uiso   1.00
H347   H     0.77605   0.20060   0.36166   0.00000  Uiso   1.00
H348   H     0.76147   0.26061   0.20869   0.00000  Uiso   1.00
H349   H     0.96186   0.06576   0.18270   0.00000  Uiso   1.00
H350   H     0.70638   0.21108   0.47218   0.00000  Uiso   1.00
H351   H     0.67567   0.33760   0.14961   0.00000  Uiso   1.00
H352   H     0.09822   0.92674   0.09480   0.00000  Uiso   1.00
H353   H     0.76736   0.99778   0.12544   0.00000  Uiso   1.00
H354   H     0.70852   0.01798   0.23273   0.00000  Uiso   1.00
H355   H     0.69394   0.07799   0.07976   0.00000  Uiso   1.00
H356   H     0.89433   0.88315   0.05377   0.00000  Uiso   1.00
H357   H     0.65156   0.06286   0.36753   0.00000  Uiso   1.00
H358   H     0.62085   0.18938   0.04496   0.00000  Uiso   1.00
H359   H     0.04341   0.77852   0.99016   0.00000  Uiso   1.00
O360   O     0.64140   0.15340   0.49264   0.00000  Uiso   1.00
O361   O     0.60112   0.31938   0.06944   0.00000  Uiso   1.00
O362   O     0.15550   0.78034   0.99753   0.00000  Uiso   1.00
N363   N     0.70156   0.17341   0.43283   0.00000  Uiso   1.00
N364   N     0.67284   0.29171   0.13126   0.00000  Uiso   1.00
N365   N     0.06789   0.90759   0.08000   0.00000  Uiso   1.00
N366   N     0.67207   0.09366   0.37652   0.00000  Uiso   1.00
N367   N     0.64335   0.21195   0.07495   0.00000  Uiso   1.00
N368   N     0.03840   0.82783   0.02369   0.00000  Uiso   1.00
C369   C     0.29493   0.54729   0.63271   0.00000  Uiso   1.00
C370   C     0.34465   0.46006   0.58762   0.00000  Uiso   1.00
C371   C     0.32603   0.40795   0.56217   0.00000  Uiso   1.00
C372   C     0.37922   0.33053   0.52187   0.00000  Uiso   1.00
C373   C     0.44588   0.19879   0.45401   0.00000  Uiso   1.00
C374   C     0.31210   0.57855   0.59684   0.00000  Uiso   1.00
C375   C     0.26611   0.62608   0.57916   0.00000  Uiso   1.00
C376   C     0.29189   0.64841   0.54663   0.00000  Uiso   1.00
C377   C     0.30801   0.70068   0.49313   0.00000  Uiso   1.00
C378   C     0.31545   0.57253   0.69562   0.00000  Uiso   1.00
C379   C     0.27228   0.61502   0.76098   0.00000  Uiso   1.00
C380   C     0.30089   0.63231   0.81161   0.00000  Uiso   1.00
C381   C     0.32221   0.67523   0.91148   0.00000  Uiso   1.00
C382   C     0.42249   0.50245   0.60640   0.00000  Uiso   1.00
C383   C     0.41394   0.43570   0.57333   0.00000  Uiso   1.00
C384   C     0.46717   0.35834   0.53306   0.00000  Uiso   1.00
C385   C     0.44863   0.30613   0.50756   0.00000  Uiso   1.00
C386   C     0.38139   0.55419   0.58256   0.00000  Uiso   1.00
C387   C     0.40725   0.57647   0.55005   0.00000  Uiso   1.00
C388   C     0.36131   0.62401   0.53231   0.00000  Uiso   1.00
C389   C     0.38474   0.54817   0.68133   0.00000  Uiso   1.00
C390   C     0.41342   0.56540   0.73187   0.00000  Uiso   1.00
C391   C     0.37030   0.60791   0.79730   0.00000  Uiso   1.00
H392   H     0.24098   0.56625   0.64383   0.00000  Uiso   1.00
H393   H     0.27240   0.42683   0.57323   0.00000  Uiso   1.00
H394   H     0.21249   0.64492   0.59022   0.00000  Uiso   1.00
H395   H     0.21867   0.63386   0.77202   0.00000  Uiso   1.00
H396   H     0.33779   0.26151   0.48864   0.00000  Uiso   1.00
H397   H     0.21146   0.72140   0.52449   0.00000  Uiso   1.00
H398   H     0.22448   0.69808   0.90784   0.00000  Uiso   1.00
H399   H     0.47644   0.48348   0.59528   0.00000  Uiso   1.00
H400   H     0.52078   0.33951   0.52202   0.00000  Uiso   1.00
H401   H     0.46087   0.55761   0.53901   0.00000  Uiso   1.00
H402   H     0.46704   0.54655   0.72080   0.00000  Uiso   1.00
H403   H     0.53939   0.19064   0.44707   0.00000  Uiso   1.00
H404   H     0.41305   0.65053   0.48292   0.00000  Uiso   1.00
H405   H     0.42607   0.62721   0.86627   0.00000  Uiso   1.00
O406   O     0.46351   0.13286   0.42052   0.00000  Uiso   1.00
O407   O     0.29776   0.73623   0.46757   0.00000  Uiso   1.00
O408   O     0.31484   0.70563   0.97051   0.00000  Uiso   1.00
N409   N     0.37915   0.26458   0.48892   0.00000  Uiso   1.00
N410   N     0.26104   0.69455   0.52243   0.00000  Uiso   1.00
N411   N     0.27321   0.67276   0.88083   0.00000  Uiso   1.00
N412   N     0.48763   0.22645   0.46656   0.00000  Uiso   1.00
N413   N     0.36951   0.65641   0.50006   0.00000  Uiso   1.00
N414   N     0.38168   0.63463   0.85846   0.00000  Uiso   1.00
C415   C     0.35825   0.02457   0.57805   0.00000  Uiso   1.00
C416   C     0.31505   0.00502   0.60421   0.00000  Uiso   1.00
C417   C     0.30033   0.95179   0.56498   0.00000  Uiso   1.00
C418   C     0.25990   0.94224   0.59848   0.00000  Uiso   1.00
C419   C     0.19656   0.90550   0.62843   0.00000  Uiso   1.00
C420   C     0.31242   0.11109   0.60995   0.00000  Uiso   1.00
C421   C     0.29550   0.14703   0.57554   0.00000  Uiso   1.00
C422   C     0.25286   0.22678   0.61388   0.00000  Uiso   1.00
C423   C     0.18549   0.35471   0.65273   0.00000  Uiso   1.00
C424   C     0.41601   0.01086   0.60857   0.00000  Uiso   1.00
C425   C     0.48619   0.96254   0.57301   0.00000  Uiso   1.00
C426   C     0.53077   0.95790   0.61019   0.00000  Uiso   1.00
C427   C     0.62423   0.93020   0.64690   0.00000  Uiso   1.00
C428   C     0.31263   0.10228   0.70731   0.00000  Uiso   1.00
C429   C     0.29027   0.04724   0.67442   0.00000  Uiso   1.00
C430   C     0.24985   0.03776   0.70799   0.00000  Uiso   1.00
C431   C     0.23508   0.98452   0.66882   0.00000  Uiso   1.00
C432   C     0.28764   0.15330   0.68016   0.00000  Uiso   1.00
C433   C     0.24502   0.23301   0.71855   0.00000  Uiso   1.00
C434   C     0.22804   0.26906   0.68421   0.00000  Uiso   1.00
C435   C     0.39123   0.05306   0.67878   0.00000  Uiso   1.00
C436   C     0.43571   0.04851   0.71602   0.00000  Uiso   1.00
C437   C     0.50594   0.00019   0.68052   0.00000  Uiso   1.00
H438   H     0.37754   0.99172   0.52339   0.00000  Uiso   1.00
H439   H     0.31951   0.91914   0.51065   0.00000  Uiso   1.00
H440   H     0.31469   0.11436   0.52121   0.00000  Uiso   1.00
H441   H     0.50535   0.92988   0.51868   0.00000  Uiso   1.00
H442   H     0.24423   0.85732   0.52749   0.00000  Uiso   1.00
H443   H     0.23408   0.26894   0.54976   0.00000  Uiso   1.00
H444   H     0.63612   0.87994   0.54442   0.00000  Uiso   1.00
H445   H     0.29333   0.13514   0.76197   0.00000  Uiso   1.00
H446   H     0.23068   0.07044   0.76232   0.00000  Uiso   1.00
H447   H     0.22586   0.26565   0.77288   0.00000  Uiso   1.00
H448   H     0.41652   0.08118   0.77035   0.00000  Uiso   1.00
H449   H     0.17213   0.98011   0.73175   0.00000  Uiso   1.00
H450   H     0.16198   0.39173   0.75402   0.00000  Uiso   1.00
H451   H     0.56402   0.00274   0.74868   0.00000  Uiso   1.00
O452   O     0.16846   0.87358   0.62555   0.00000  Uiso   1.00
O453   O     0.15516   0.41361   0.65476   0.00000  Uiso   1.00
O454   O     0.68262   0.90325   0.64775   0.00000  Uiso   1.00
N455   N     0.23587   0.89509   0.57551   0.00000  Uiso   1.00
N456   N     0.22637   0.27992   0.59633   0.00000  Uiso   1.00
N457   N     0.60224   0.91626   0.59134   0.00000  Uiso   1.00
N458   N     0.19707   0.96116   0.68543   0.00000  Uiso   1.00
N459   N     0.18757   0.34600   0.70624   0.00000  Uiso   1.00
N460   N     0.56345   0.98234   0.70125   0.00000  Uiso   1.00
C461   C     0.81541   0.01763   0.67839   0.00000  Uiso   1.00
C462   C     0.83213   0.05122   0.74249   0.00000  Uiso   1.00
C463   C     0.78736   0.09548   0.80745   0.00000  Uiso   1.00
C464   C     0.81246   0.12078   0.85934   0.00000  Uiso   1.00
C465   C     0.82816   0.17577   0.96080   0.00000  Uiso   1.00
C466   C     0.82938   0.04730   0.63908   0.00000  Uiso   1.00
C467   C     0.78231   0.08825   0.61709   0.00000  Uiso   1.00
C468   C     0.80510   0.11023   0.58193   0.00000  Uiso   1.00
C469   C     0.81654   0.15908   0.52280   0.00000  Uiso   1.00
C470   C     0.86982   0.93122   0.63759   0.00000  Uiso   1.00
C471   C     0.85674   0.87456   0.61432   0.00000  Uiso   1.00
C472   C     0.91358   0.79881   0.57788   0.00000  Uiso   1.00
C473   C     0.98780   0.66742   0.51643   0.00000  Uiso   1.00
C474   C     0.93960   0.98386   0.65502   0.00000  Uiso   1.00
C475   C     0.89958   0.03288   0.72980   0.00000  Uiso   1.00
C476   C     0.92476   0.05811   0.78160   0.00000  Uiso   1.00
C477   C     0.88004   0.10240   0.84663   0.00000  Uiso   1.00
C478   C     0.89683   0.02896   0.62639   0.00000  Uiso   1.00
C479   C     0.91970   0.05088   0.59124   0.00000  Uiso   1.00
C480   C     0.87267   0.09186   0.56921   0.00000  Uiso   1.00
C481   C     0.93727   0.91288   0.62489   0.00000  Uiso   1.00
C482   C     0.99414   0.83720   0.58847   0.00000  Uiso   1.00
C483   C     0.98115   0.78043   0.56516   0.00000  Uiso   1.00
H484   H     0.76289   0.03191   0.68827   0.00000  Uiso   1.00
H485   H     0.73516   0.10967   0.81725   0.00000  Uiso   1.00
H486   H     0.73011   0.10243   0.62692   0.00000  Uiso   1.00
H487   H     0.80453   0.88877   0.62415   0.00000  Uiso   1.00
H488   H     0.73416   0.18781   0.95466   0.00000  Uiso   1.00
H489   H     0.72351   0.17252   0.55331   0.00000  Uiso   1.00
H490   H     0.88044   0.72199   0.54747   0.00000  Uiso   1.00
H491   H     0.99211   0.96958   0.64514   0.00000  Uiso   1.00
H492   H     0.97696   0.04391   0.77176   0.00000  Uiso   1.00
H493   H     0.97191   0.03668   0.58143   0.00000  Uiso   1.00
H494   H     0.04633   0.82302   0.57866   0.00000  Uiso   1.00
H495   H     0.93041   0.13444   0.91774   0.00000  Uiso   1.00
H496   H     0.91976   0.11916   0.51638   0.00000  Uiso   1.00
H497   H     0.07670   0.66863   0.51055   0.00000  Uiso   1.00
O498   O     0.81817   0.21117   0.02027   0.00000  Uiso   1.00
O499   O     0.80421   0.19111   0.49370   0.00000  Uiso   1.00
O500   O     0.01010   0.60002   0.48605   0.00000  Uiso   1.00
N501   N     0.78243   0.16503   0.92859   0.00000  Uiso   1.00
N502   N     0.77247   0.15076   0.55336   0.00000  Uiso   1.00
N503   N     0.91919   0.72954   0.54789   0.00000  Uiso   1.00
N504   N     0.88803   0.13632   0.90873   0.00000  Uiso   1.00
N505   N     0.87808   0.12204   0.53350   0.00000  Uiso   1.00
N506   N     0.02479   0.70083   0.52802   0.00000  Uiso   1.00
C507   C     0.89659   0.56908   0.12508   0.00000  Uiso   1.00
C508   C     0.93261   0.48208   0.08457   0.00000  Uiso   1.00
C509   C     0.00344   0.42808   0.05854   0.00000  Uiso   1.00
C510   C     0.02617   0.35124   0.02292   0.00000  Uiso   1.00
C511   C     0.08918   0.21949   0.96139   0.00000  Uiso   1.00
C512   C     0.85054   0.59715   0.08786   0.00000  Uiso   1.00
C513   C     0.85236   0.63992   0.06461   0.00000  Uiso   1.00
C514   C     0.80600   0.65996   0.03178   0.00000  Uiso   1.00
C515   C     0.74155   0.70691   0.97541   0.00000  Uiso   1.00
C516   C     0.84796   0.60030   0.19116   0.00000  Uiso   1.00
C517   C     0.84759   0.64573   0.25478   0.00000  Uiso   1.00
C518   C     0.79903   0.66843   0.30891   0.00000  Uiso   1.00
C519   C     0.73058   0.72026   0.41294   0.00000  Uiso   1.00
C520   C     0.81100   0.52863   0.10811   0.00000  Uiso   1.00
C521   C     0.88612   0.46011   0.07535   0.00000  Uiso   1.00
C522   C     0.90875   0.38333   0.03976   0.00000  Uiso   1.00
C523   C     0.97960   0.32923   0.01369   0.00000  Uiso   1.00
C524   C     0.80406   0.57518   0.07865   0.00000  Uiso   1.00
C525   C     0.75767   0.59517   0.04584   0.00000  Uiso   1.00
C526   C     0.75942   0.63795   0.02254   0.00000  Uiso   1.00
C527   C     0.80147   0.57832   0.18195   0.00000  Uiso   1.00
C528   C     0.75290   0.60097   0.23600   0.00000  Uiso   1.00
C529   C     0.75246   0.64642   0.29968   0.00000  Uiso   1.00
H530   H     0.93278   0.58619   0.13225   0.00000  Uiso   1.00
H531   H     0.03940   0.44511   0.06568   0.00000  Uiso   1.00
H532   H     0.88834   0.65693   0.07176   0.00000  Uiso   1.00
H533   H     0.88357   0.66272   0.26189   0.00000  Uiso   1.00
H534   H     0.13711   0.27901   0.98778   0.00000  Uiso   1.00
H535   H     0.81857   0.72565   0.00063   0.00000  Uiso   1.00
H536   H     0.80852   0.73788   0.40155   0.00000  Uiso   1.00
H537   H     0.77481   0.51152   0.10093   0.00000  Uiso   1.00
H538   H     0.87277   0.36634   0.03264   0.00000  Uiso   1.00
H539   H     0.72170   0.57816   0.03872   0.00000  Uiso   1.00
H540   H     0.71694   0.58395   0.22885   0.00000  Uiso   1.00
H541   H     0.00187   0.21507   0.96096   0.00000  Uiso   1.00
H542   H     0.68332   0.66172   0.97381   0.00000  Uiso   1.00
H543   H     0.67327   0.67394   0.37473   0.00000  Uiso   1.00
O544   O     0.13678   0.15288   0.92999   0.00000  Uiso   1.00
O545   O     0.71886   0.73888   0.94686   0.00000  Uiso   1.00
O546   O     0.70567   0.75491   0.47286   0.00000  Uiso   1.00
N547   N     0.09184   0.28388   0.99085   0.00000  Uiso   1.00
N548   N     0.79403   0.70146   0.00285   0.00000  Uiso   1.00
N549   N     0.78462   0.71291   0.37768   0.00000  Uiso   1.00
N550   N     0.01906   0.24948   0.97642   0.00000  Uiso   1.00
N551   N     0.72125   0.66706   0.98842   0.00000  Uiso   1.00
N552   N     0.71184   0.67850   0.36325   0.00000  Uiso   1.00
