data_job_02581
_audit_creation_date              2018-12-19
_audit_creation_method            'Materials Studio'
_symmetry_space_group_name_H-M    'P1'
_symmetry_Int_Tables_number       1
_symmetry_cell_setting            triclinic
loop_
_symmetry_equiv_pos_as_xyz
  x,y,z
_cell_length_a                    10.5714
_cell_length_b                    11.4508
_cell_length_c                    14.6733
_cell_angle_alpha                 111.5044
_cell_angle_beta                  110.8025
_cell_angle_gamma                 70.6111
loop_
_atom_site_label
_atom_site_type_symbol
_atom_site_fract_x
_atom_site_fract_y
_atom_site_fract_z
_atom_site_U_iso_or_equiv
_atom_site_adp_type
_atom_site_occupancy
C1     C     0.28744   0.29415   0.65000   0.00000  Uiso   1.00
C2     C     0.35877   0.28659   0.57344   0.00000  Uiso   1.00
C3     C     0.33486   0.21244   0.47273   0.00000  Uiso   1.00
C4     C     0.41065   0.21877   0.41509   0.00000  Uiso   1.00
C5     C     0.50683   0.19517   0.28989   0.00000  Uiso   1.00
C6     C     0.40380   0.25735   0.73937   0.00000  Uiso   1.00
C7     C     0.41772   0.15861   0.77817   0.00000  Uiso   1.00
C8     C     0.53142   0.14034   0.86023   0.00000  Uiso   1.00
C9     C     0.69744   0.07139   0.99267   0.00000  Uiso   1.00
C10    C     0.22115   0.43657   0.68978   0.00000  Uiso   1.00
C11    C     0.08151   0.48853   0.68692   0.00000  Uiso   1.00
C12    C     0.04143   0.62115   0.72724   0.00000  Uiso   1.00
C13    C     0.92386   0.83046   0.78269   0.00000  Uiso   1.00
C14    C     0.46457   0.43727   0.72673   0.00000  Uiso   1.00
C15    C     0.45498   0.36433   0.61512   0.00000  Uiso   1.00
C16    C     0.53083   0.37079   0.55762   0.00000  Uiso   1.00
C17    C     0.50704   0.29665   0.45684   0.00000  Uiso   1.00
C18    C     0.50001   0.33508   0.78104   0.00000  Uiso   1.00
C19    C     0.61370   0.31696   0.86306   0.00000  Uiso   1.00
C20    C     0.62780   0.21821   0.90198   0.00000  Uiso   1.00
C21    C     0.31736   0.51431   0.73145   0.00000  Uiso   1.00
C22    C     0.27749   0.64687   0.77180   0.00000  Uiso   1.00
C23    C     0.13782   0.69902   0.76899   0.00000  Uiso   1.00
H24    H     0.21254   0.23362   0.61756   0.00000  Uiso   1.00
H25    H     0.26040   0.15228   0.44051   0.00000  Uiso   1.00
H26    H     0.34325   0.09848   0.74591   0.00000  Uiso   1.00
H27    H     0.00709   0.42834   0.65466   0.00000  Uiso   1.00
H28    H     0.35593   0.09635   0.26260   0.00000  Uiso   1.00
H29    H     0.53059   0.98292   0.90658   0.00000  Uiso   1.00
H30    H     0.82173   0.67850   0.71417   0.00000  Uiso   1.00
H31    H     0.53948   0.49779   0.75918   0.00000  Uiso   1.00
H32    H     0.60528   0.43095   0.58989   0.00000  Uiso   1.00
H33    H     0.68813   0.37714   0.89530   0.00000  Uiso   1.00
H34    H     0.35197   0.70700   0.80405   0.00000  Uiso   1.00
H35    H     0.63585   0.32252   0.38385   0.00000  Uiso   1.00
H36    H     0.81051   0.20909   0.02784   0.00000  Uiso   1.00
H37    H     0.10165   0.90467   0.83541   0.00000  Uiso   1.00
O38    O     0.53331   0.16066   0.20932   0.00000  Uiso   1.00
O39    O     0.76244   0.01187   0.05421   0.00000  Uiso   1.00
O40    O     0.83244   0.92445   0.80175   0.00000  Uiso   1.00
N41    N     0.41276   0.15877   0.31437   0.00000  Uiso   1.00
N42    N     0.57607   0.05271   0.91644   0.00000  Uiso   1.00
N43    N     0.91335   0.70301   0.73657   0.00000  Uiso   1.00
N44    N     0.56338   0.28047   0.37961   0.00000  Uiso   1.00
N45    N     0.72669   0.17441   0.98168   0.00000  Uiso   1.00
N46    N     0.06397   0.82471   0.80181   0.00000  Uiso   1.00
C47    C     0.71256   0.70585   0.35000   0.00000  Uiso   1.00
C48    C     0.64123   0.71341   0.42656   0.00000  Uiso   1.00
C49    C     0.66514   0.78756   0.52727   0.00000  Uiso   1.00
C50    C     0.58935   0.78123   0.58491   0.00000  Uiso   1.00
C51    C     0.49317   0.80483   0.71011   0.00000  Uiso   1.00
C52    C     0.59620   0.74265   0.26063   0.00000  Uiso   1.00
C53    C     0.58228   0.84139   0.22183   0.00000  Uiso   1.00
C54    C     0.46858   0.85966   0.13977   0.00000  Uiso   1.00
C55    C     0.30256   0.92861   0.00733   0.00000  Uiso   1.00
C56    C     0.77885   0.56343   0.31022   0.00000  Uiso   1.00
C57    C     0.91849   0.51147   0.31308   0.00000  Uiso   1.00
C58    C     0.95857   0.37885   0.27276   0.00000  Uiso   1.00
C59    C     0.07614   0.16954   0.21731   0.00000  Uiso   1.00
C60    C     0.53543   0.56273   0.27327   0.00000  Uiso   1.00
C61    C     0.54502   0.63567   0.38488   0.00000  Uiso   1.00
C62    C     0.46917   0.62921   0.44238   0.00000  Uiso   1.00
C63    C     0.49296   0.70335   0.54316   0.00000  Uiso   1.00
C64    C     0.49999   0.66492   0.21896   0.00000  Uiso   1.00
C65    C     0.38630   0.68304   0.13694   0.00000  Uiso   1.00
C66    C     0.37220   0.78179   0.09802   0.00000  Uiso   1.00
C67    C     0.68264   0.48569   0.26855   0.00000  Uiso   1.00
C68    C     0.72251   0.35313   0.22820   0.00000  Uiso   1.00
C69    C     0.86218   0.30098   0.23101   0.00000  Uiso   1.00
H70    H     0.78746   0.76638   0.38244   0.00000  Uiso   1.00
H71    H     0.73960   0.84772   0.55949   0.00000  Uiso   1.00
H72    H     0.65675   0.90152   0.25409   0.00000  Uiso   1.00
H73    H     0.99291   0.57166   0.34534   0.00000  Uiso   1.00
H74    H     0.64407   0.90365   0.73740   0.00000  Uiso   1.00
H75    H     0.46941   0.01708   0.09342   0.00000  Uiso   1.00
H76    H     0.17827   0.32150   0.28583   0.00000  Uiso   1.00
H77    H     0.46052   0.50221   0.24082   0.00000  Uiso   1.00
H78    H     0.39472   0.56905   0.41011   0.00000  Uiso   1.00
H79    H     0.31187   0.62286   0.10470   0.00000  Uiso   1.00
H80    H     0.64803   0.29300   0.19595   0.00000  Uiso   1.00
H81    H     0.36415   0.67748   0.61615   0.00000  Uiso   1.00
H82    H     0.18949   0.79091   0.97216   0.00000  Uiso   1.00
H83    H     0.89835   0.09533   0.16459   0.00000  Uiso   1.00
O84    O     0.46669   0.83934   0.79068   0.00000  Uiso   1.00
O85    O     0.23756   0.98813   0.94579   0.00000  Uiso   1.00
O86    O     0.16756   0.07555   0.19825   0.00000  Uiso   1.00
N87    N     0.58724   0.84123   0.68563   0.00000  Uiso   1.00
N88    N     0.42393   0.94729   0.08356   0.00000  Uiso   1.00
N89    N     0.08665   0.29699   0.26343   0.00000  Uiso   1.00
N90    N     0.43662   0.71953   0.62039   0.00000  Uiso   1.00
N91    N     0.27331   0.82559   0.01832   0.00000  Uiso   1.00
N92    N     0.93603   0.17529   0.19819   0.00000  Uiso   1.00
