data_job_04163
_audit_creation_date              2018-12-19
_audit_creation_method            'Materials Studio'
_symmetry_space_group_name_H-M    'P1'
_symmetry_Int_Tables_number       1
_symmetry_cell_setting            triclinic
loop_
_symmetry_equiv_pos_as_xyz
  x,y,z
_cell_length_a                    9.7080
_cell_length_b                    16.6303
_cell_length_c                    23.6824
_cell_angle_alpha                 90.0000
_cell_angle_beta                  123.6790
_cell_angle_gamma                 90.0000
loop_
_atom_site_label
_atom_site_type_symbol
_atom_site_fract_x
_atom_site_fract_y
_atom_site_fract_z
_atom_site_U_iso_or_equiv
_atom_site_adp_type
_atom_site_occupancy
C1     C     0.35100   0.86654   0.44968   0.00000  Uiso   1.00
C2     C     0.28244   0.79084   0.46191   0.00000  Uiso   1.00
C3     C     0.35564   0.74906   0.52271   0.00000  Uiso   1.00
C4     C     0.27341   0.68122   0.52353   0.00000  Uiso   1.00
C5     C     0.18982   0.56747   0.55132   0.00000  Uiso   1.00
C6     C     0.36605   0.84725   0.39036   0.00000  Uiso   1.00
C7     C     0.50954   0.85292   0.39100   0.00000  Uiso   1.00
C8     C     0.49768   0.83258   0.33159   0.00000  Uiso   1.00
C9     C     0.54386   0.80648   0.24828   0.00000  Uiso   1.00
C10    C     0.21524   0.92986   0.42369   0.00000  Uiso   1.00
C11    C     0.23193   0.00501   0.45233   0.00000  Uiso   1.00
C12    C     0.09311   0.05423   0.42096   0.00000  Uiso   1.00
C13    C     0.90515   0.15639   0.38940   0.00000  Uiso   1.00
C14    C     0.07480   0.82035   0.34303   0.00000  Uiso   1.00
C15    C     0.13243   0.76575   0.40398   0.00000  Uiso   1.00
C16    C     0.05006   0.69796   0.40471   0.00000  Uiso   1.00
C17    C     0.12312   0.65609   0.46550   0.00000  Uiso   1.00
C18    C     0.21604   0.82217   0.33244   0.00000  Uiso   1.00
C19    C     0.20396   0.80182   0.27301   0.00000  Uiso   1.00
C20    C     0.34739   0.80745   0.27355   0.00000  Uiso   1.00
C21    C     0.06522   0.90478   0.36576   0.00000  Uiso   1.00
C22    C     0.92635   0.95390   0.33434   0.00000  Uiso   1.00
C23    C     0.94283   0.02910   0.36293   0.00000  Uiso   1.00
H24    H     0.46780   0.88607   0.49478   0.00000  Uiso   1.00
H25    H     0.47175   0.76849   0.56752   0.00000  Uiso   1.00
H26    H     0.62561   0.87234   0.43584   0.00000  Uiso   1.00
H27    H     0.34804   0.02440   0.49716   0.00000  Uiso   1.00
H28    H     0.40999   0.62705   0.62262   0.00000  Uiso   1.00
H29    H     0.73441   0.84606   0.34494   0.00000  Uiso   1.00
H30    H     0.14912   0.16670   0.47425   0.00000  Uiso   1.00
H31    H     0.95801   0.80082   0.29793   0.00000  Uiso   1.00
H32    H     0.93397   0.67856   0.35987   0.00000  Uiso   1.00
H33    H     0.08784   0.78242   0.22819   0.00000  Uiso   1.00
H34    H     0.81028   0.93447   0.28951   0.00000  Uiso   1.00
H35    H     0.97352   0.55406   0.45408   0.00000  Uiso   1.00
H36    H     0.29794   0.77307   0.17641   0.00000  Uiso   1.00
H37    H     0.71265   0.09371   0.30572   0.00000  Uiso   1.00
O38    O     0.18517   0.51165   0.58265   0.00000  Uiso   1.00
O39    O     0.61080   0.79900   0.21834   0.00000  Uiso   1.00
O40    O     0.84290   0.21967   0.38800   0.00000  Uiso   1.00
N41    N     0.31055   0.62666   0.57446   0.00000  Uiso   1.00
N42    N     0.61387   0.83141   0.31485   0.00000  Uiso   1.00
N43    N     0.06668   0.13119   0.43573   0.00000  Uiso   1.00
N44    N     0.07569   0.58739   0.48377   0.00000  Uiso   1.00
N45    N     0.37901   0.79213   0.22416   0.00000  Uiso   1.00
N46    N     0.83182   0.09191   0.34504   0.00000  Uiso   1.00
C47    C     0.64900   0.36654   0.05032   0.00000  Uiso   1.00
C48    C     0.71756   0.29084   0.03809   0.00000  Uiso   1.00
C49    C     0.64436   0.24906   0.97729   0.00000  Uiso   1.00
C50    C     0.72659   0.18122   0.97647   0.00000  Uiso   1.00
C51    C     0.81018   0.06747   0.94868   0.00000  Uiso   1.00
C52    C     0.63395   0.34725   0.10964   0.00000  Uiso   1.00
C53    C     0.49046   0.35292   0.10900   0.00000  Uiso   1.00
C54    C     0.50232   0.33258   0.16841   0.00000  Uiso   1.00
C55    C     0.45614   0.30648   0.25172   0.00000  Uiso   1.00
C56    C     0.78476   0.42986   0.07631   0.00000  Uiso   1.00
C57    C     0.76807   0.50501   0.04767   0.00000  Uiso   1.00
C58    C     0.90689   0.55423   0.07904   0.00000  Uiso   1.00
C59    C     0.09485   0.65639   0.11060   0.00000  Uiso   1.00
C60    C     0.92520   0.32035   0.15697   0.00000  Uiso   1.00
C61    C     0.86757   0.26575   0.09602   0.00000  Uiso   1.00
C62    C     0.94994   0.19796   0.09529   0.00000  Uiso   1.00
C63    C     0.87688   0.15609   0.03450   0.00000  Uiso   1.00
C64    C     0.78396   0.32217   0.16756   0.00000  Uiso   1.00
C65    C     0.79604   0.30182   0.22699   0.00000  Uiso   1.00
C66    C     0.65261   0.30745   0.22645   0.00000  Uiso   1.00
C67    C     0.93478   0.40478   0.13424   0.00000  Uiso   1.00
C68    C     0.07365   0.45390   0.16566   0.00000  Uiso   1.00
C69    C     0.05717   0.52910   0.13707   0.00000  Uiso   1.00
H70    H     0.53220   0.38607   0.00522   0.00000  Uiso   1.00
H71    H     0.52825   0.26849   0.93248   0.00000  Uiso   1.00
H72    H     0.37439   0.37234   0.06416   0.00000  Uiso   1.00
H73    H     0.65196   0.52440   0.00284   0.00000  Uiso   1.00
H74    H     0.59001   0.12705   0.87738   0.00000  Uiso   1.00
H75    H     0.26559   0.34606   0.15506   0.00000  Uiso   1.00
H76    H     0.85088   0.66670   0.02575   0.00000  Uiso   1.00
H77    H     0.04199   0.30082   0.20207   0.00000  Uiso   1.00
H78    H     0.06603   0.17856   0.14013   0.00000  Uiso   1.00
H79    H     0.91216   0.28242   0.27181   0.00000  Uiso   1.00
H80    H     0.18972   0.43447   0.21049   0.00000  Uiso   1.00
H81    H     0.02648   0.05406   0.04592   0.00000  Uiso   1.00
H82    H     0.70206   0.27307   0.32359   0.00000  Uiso   1.00
H83    H     0.28735   0.59371   0.19428   0.00000  Uiso   1.00
O84    O     0.81483   0.01165   0.91735   0.00000  Uiso   1.00
O85    O     0.38920   0.29900   0.28166   0.00000  Uiso   1.00
O86    O     0.15710   0.71967   0.11200   0.00000  Uiso   1.00
N87    N     0.68945   0.12666   0.92554   0.00000  Uiso   1.00
N88    N     0.38613   0.33141   0.18515   0.00000  Uiso   1.00
N89    N     0.93332   0.63119   0.06427   0.00000  Uiso   1.00
N90    N     0.92431   0.08739   0.01623   0.00000  Uiso   1.00
N91    N     0.62099   0.29213   0.27584   0.00000  Uiso   1.00
N92    N     0.16818   0.59191   0.15496   0.00000  Uiso   1.00
C93    C     0.64900   0.13346   0.55032   0.00000  Uiso   1.00
C94    C     0.71756   0.20916   0.53809   0.00000  Uiso   1.00
C95    C     0.64436   0.25094   0.47729   0.00000  Uiso   1.00
C96    C     0.72659   0.31878   0.47647   0.00000  Uiso   1.00
C97    C     0.81018   0.43253   0.44868   0.00000  Uiso   1.00
C98    C     0.63395   0.15275   0.60964   0.00000  Uiso   1.00
C99    C     0.49046   0.14708   0.60900   0.00000  Uiso   1.00
C100   C     0.50232   0.16742   0.66841   0.00000  Uiso   1.00
C101   C     0.45614   0.19352   0.75172   0.00000  Uiso   1.00
C102   C     0.78476   0.07014   0.57631   0.00000  Uiso   1.00
C103   C     0.76807   0.99499   0.54767   0.00000  Uiso   1.00
C104   C     0.90689   0.94577   0.57904   0.00000  Uiso   1.00
C105   C     0.09485   0.84361   0.61060   0.00000  Uiso   1.00
C106   C     0.92520   0.17965   0.65697   0.00000  Uiso   1.00
C107   C     0.86757   0.23425   0.59602   0.00000  Uiso   1.00
C108   C     0.94994   0.30204   0.59529   0.00000  Uiso   1.00
C109   C     0.87688   0.34391   0.53450   0.00000  Uiso   1.00
C110   C     0.78396   0.17783   0.66756   0.00000  Uiso   1.00
C111   C     0.79604   0.19818   0.72699   0.00000  Uiso   1.00
C112   C     0.65261   0.19255   0.72645   0.00000  Uiso   1.00
C113   C     0.93478   0.09522   0.63424   0.00000  Uiso   1.00
C114   C     0.07365   0.04610   0.66566   0.00000  Uiso   1.00
C115   C     0.05717   0.97090   0.63707   0.00000  Uiso   1.00
H116   H     0.53220   0.11393   0.50522   0.00000  Uiso   1.00
H117   H     0.52825   0.23151   0.43248   0.00000  Uiso   1.00
H118   H     0.37439   0.12766   0.56416   0.00000  Uiso   1.00
H119   H     0.65196   0.97560   0.50284   0.00000  Uiso   1.00
H120   H     0.59001   0.37295   0.37738   0.00000  Uiso   1.00
H121   H     0.26559   0.15394   0.65506   0.00000  Uiso   1.00
H122   H     0.85088   0.83330   0.52575   0.00000  Uiso   1.00
H123   H     0.04199   0.19918   0.70207   0.00000  Uiso   1.00
H124   H     0.06603   0.32144   0.64013   0.00000  Uiso   1.00
H125   H     0.91216   0.21758   0.77181   0.00000  Uiso   1.00
H126   H     0.18972   0.06553   0.71049   0.00000  Uiso   1.00
H127   H     0.02648   0.44594   0.54592   0.00000  Uiso   1.00
H128   H     0.70206   0.22693   0.82359   0.00000  Uiso   1.00
H129   H     0.28735   0.90629   0.69428   0.00000  Uiso   1.00
O130   O     0.81483   0.48835   0.41735   0.00000  Uiso   1.00
O131   O     0.38920   0.20100   0.78166   0.00000  Uiso   1.00
O132   O     0.15710   0.78033   0.61200   0.00000  Uiso   1.00
N133   N     0.68945   0.37334   0.42554   0.00000  Uiso   1.00
N134   N     0.38613   0.16859   0.68515   0.00000  Uiso   1.00
N135   N     0.93332   0.86881   0.56427   0.00000  Uiso   1.00
N136   N     0.92431   0.41261   0.51623   0.00000  Uiso   1.00
N137   N     0.62099   0.20787   0.77584   0.00000  Uiso   1.00
N138   N     0.16818   0.90809   0.65496   0.00000  Uiso   1.00
C139   C     0.35100   0.63346   0.94968   0.00000  Uiso   1.00
C140   C     0.28244   0.70916   0.96191   0.00000  Uiso   1.00
C141   C     0.35564   0.75094   0.02271   0.00000  Uiso   1.00
C142   C     0.27341   0.81878   0.02353   0.00000  Uiso   1.00
C143   C     0.18982   0.93253   0.05132   0.00000  Uiso   1.00
C144   C     0.36605   0.65275   0.89036   0.00000  Uiso   1.00
C145   C     0.50954   0.64708   0.89100   0.00000  Uiso   1.00
C146   C     0.49768   0.66742   0.83159   0.00000  Uiso   1.00
C147   C     0.54386   0.69352   0.74828   0.00000  Uiso   1.00
C148   C     0.21524   0.57014   0.92369   0.00000  Uiso   1.00
C149   C     0.23193   0.49499   0.95233   0.00000  Uiso   1.00
C150   C     0.09311   0.44577   0.92096   0.00000  Uiso   1.00
C151   C     0.90515   0.34361   0.88940   0.00000  Uiso   1.00
C152   C     0.07480   0.67965   0.84303   0.00000  Uiso   1.00
C153   C     0.13243   0.73425   0.90398   0.00000  Uiso   1.00
C154   C     0.05006   0.80204   0.90471   0.00000  Uiso   1.00
C155   C     0.12312   0.84391   0.96550   0.00000  Uiso   1.00
C156   C     0.21604   0.67783   0.83244   0.00000  Uiso   1.00
C157   C     0.20396   0.69818   0.77301   0.00000  Uiso   1.00
C158   C     0.34739   0.69255   0.77355   0.00000  Uiso   1.00
C159   C     0.06522   0.59522   0.86576   0.00000  Uiso   1.00
C160   C     0.92635   0.54610   0.83434   0.00000  Uiso   1.00
C161   C     0.94283   0.47090   0.86293   0.00000  Uiso   1.00
H162   H     0.46780   0.61393   0.99478   0.00000  Uiso   1.00
H163   H     0.47175   0.73151   0.06752   0.00000  Uiso   1.00
H164   H     0.62561   0.62766   0.93584   0.00000  Uiso   1.00
H165   H     0.34804   0.47560   0.99716   0.00000  Uiso   1.00
H166   H     0.40999   0.87295   0.12262   0.00000  Uiso   1.00
H167   H     0.73441   0.65394   0.84494   0.00000  Uiso   1.00
H168   H     0.14912   0.33330   0.97425   0.00000  Uiso   1.00
H169   H     0.95801   0.69918   0.79793   0.00000  Uiso   1.00
H170   H     0.93397   0.82144   0.85987   0.00000  Uiso   1.00
H171   H     0.08784   0.71758   0.72819   0.00000  Uiso   1.00
H172   H     0.81028   0.56553   0.78951   0.00000  Uiso   1.00
H173   H     0.97352   0.94594   0.95408   0.00000  Uiso   1.00
H174   H     0.29794   0.72693   0.67641   0.00000  Uiso   1.00
H175   H     0.71265   0.40629   0.80572   0.00000  Uiso   1.00
O176   O     0.18517   0.98835   0.08265   0.00000  Uiso   1.00
O177   O     0.61080   0.70100   0.71834   0.00000  Uiso   1.00
O178   O     0.84290   0.28033   0.88800   0.00000  Uiso   1.00
N179   N     0.31055   0.87334   0.07446   0.00000  Uiso   1.00
N180   N     0.61387   0.66859   0.81485   0.00000  Uiso   1.00
N181   N     0.06668   0.36881   0.93573   0.00000  Uiso   1.00
N182   N     0.07569   0.91261   0.98377   0.00000  Uiso   1.00
N183   N     0.37901   0.70787   0.72416   0.00000  Uiso   1.00
N184   N     0.83182   0.40809   0.84504   0.00000  Uiso   1.00
