data_job_03434
_audit_creation_date              2018-12-19
_audit_creation_method            'Materials Studio'
_symmetry_space_group_name_H-M    'P1'
_symmetry_Int_Tables_number       1
_symmetry_cell_setting            triclinic
loop_
_symmetry_equiv_pos_as_xyz
  x,y,z
_cell_length_a                    7.8802
_cell_length_b                    24.5493
_cell_length_c                    16.4901
_cell_angle_alpha                 90.0000
_cell_angle_beta                  119.7172
_cell_angle_gamma                 90.0000
loop_
_atom_site_label
_atom_site_type_symbol
_atom_site_fract_x
_atom_site_fract_y
_atom_site_fract_z
_atom_site_U_iso_or_equiv
_atom_site_adp_type
_atom_site_occupancy
C1     C     0.94194   0.36580   0.84204   0.00000  Uiso   1.00
C2     C     0.04651   0.38357   0.78955   0.00000  Uiso   1.00
C3     C     0.96489   0.41394   0.70784   0.00000  Uiso   1.00
C4     C     0.08469   0.42600   0.67069   0.00000  Uiso   1.00
C5     C     0.21745   0.45627   0.58262   0.00000  Uiso   1.00
C6     C     0.96038   0.30393   0.84973   0.00000  Uiso   1.00
C7     C     0.80633   0.26734   0.81862   0.00000  Uiso   1.00
C8     C     0.85364   0.21237   0.83215   0.00000  Uiso   1.00
C9     C     0.85269   0.11900   0.83756   0.00000  Uiso   1.00
C10    C     0.06421   0.38756   0.94119   0.00000  Uiso   1.00
C11    C     0.99746   0.42127   0.98700   0.00000  Uiso   1.00
C12    C     0.13218   0.43669   0.07753   0.00000  Uiso   1.00
C13    C     0.29244   0.47316   0.22495   0.00000  Uiso   1.00
C14    C     0.29986   0.33322   0.92138   0.00000  Uiso   1.00
C15    C     0.24091   0.36588   0.83265   0.00000  Uiso   1.00
C16    C     0.36088   0.37790   0.79562   0.00000  Uiso   1.00
C17    C     0.27945   0.40828   0.71386   0.00000  Uiso   1.00
C18    C     0.15477   0.28624   0.89282   0.00000  Uiso   1.00
C19    C     0.20232   0.23130   0.90640   0.00000  Uiso   1.00
C20    C     0.04840   0.19464   0.87532   0.00000  Uiso   1.00
C21    C     0.25862   0.36987   0.98428   0.00000  Uiso   1.00
C22    C     0.39346   0.38523   0.07477   0.00000  Uiso   1.00
C23    C     0.32693   0.41896   0.12070   0.00000  Uiso   1.00
H24    H     0.79059   0.37957   0.80849   0.00000  Uiso   1.00
H25    H     0.81443   0.42762   0.67451   0.00000  Uiso   1.00
H26    H     0.65591   0.28105   0.78529   0.00000  Uiso   1.00
H27    H     0.84701   0.43495   0.95363   0.00000  Uiso   1.00
H28    H     0.92657   0.47307   0.54495   0.00000  Uiso   1.00
H29    H     0.59232   0.16402   0.77856   0.00000  Uiso   1.00
H30    H     0.99530   0.48856   0.13354   0.00000  Uiso   1.00
H31    H     0.45121   0.31944   0.95493   0.00000  Uiso   1.00
H32    H     0.51131   0.36420   0.82898   0.00000  Uiso   1.00
H33    H     0.35278   0.21763   0.93976   0.00000  Uiso   1.00
H34    H     0.54389   0.37153   0.10810   0.00000  Uiso   1.00
H35    H     0.49218   0.42160   0.67032   0.00000  Uiso   1.00
H36    H     0.15793   0.11254   0.90394   0.00000  Uiso   1.00
H37    H     0.56091   0.43708   0.25892   0.00000  Uiso   1.00
O38    O     0.23697   0.47784   0.52213   0.00000  Uiso   1.00
O39    O     0.79845   0.07238   0.82863   0.00000  Uiso   1.00
O40    O     0.32714   0.49817   0.29435   0.00000  Uiso   1.00
N41    N     0.05145   0.45483   0.59175   0.00000  Uiso   1.00
N42    N     0.73895   0.16588   0.81015   0.00000  Uiso   1.00
N43    N     0.11568   0.46928   0.14204   0.00000  Uiso   1.00
N44    N     0.35581   0.42713   0.65922   0.00000  Uiso   1.00
N45    N     0.04330   0.13818   0.87761   0.00000  Uiso   1.00
N46    N     0.42003   0.44158   0.20950   0.00000  Uiso   1.00
C47    C     0.05806   0.86580   0.65796   0.00000  Uiso   1.00
C48    C     0.95349   0.88357   0.71045   0.00000  Uiso   1.00
C49    C     0.03511   0.91394   0.79216   0.00000  Uiso   1.00
C50    C     0.91531   0.92600   0.82931   0.00000  Uiso   1.00
C51    C     0.78255   0.95627   0.91738   0.00000  Uiso   1.00
C52    C     0.03962   0.80393   0.65027   0.00000  Uiso   1.00
C53    C     0.19367   0.76734   0.68138   0.00000  Uiso   1.00
C54    C     0.14636   0.71237   0.66785   0.00000  Uiso   1.00
C55    C     0.14731   0.61900   0.66244   0.00000  Uiso   1.00
C56    C     0.93579   0.88756   0.55881   0.00000  Uiso   1.00
C57    C     0.00254   0.92127   0.51300   0.00000  Uiso   1.00
C58    C     0.86782   0.93669   0.42247   0.00000  Uiso   1.00
C59    C     0.70756   0.97316   0.27505   0.00000  Uiso   1.00
C60    C     0.70014   0.83322   0.57862   0.00000  Uiso   1.00
C61    C     0.75909   0.86588   0.66735   0.00000  Uiso   1.00
C62    C     0.63912   0.87790   0.70438   0.00000  Uiso   1.00
C63    C     0.72055   0.90828   0.78614   0.00000  Uiso   1.00
C64    C     0.84523   0.78624   0.60718   0.00000  Uiso   1.00
C65    C     0.79768   0.73130   0.59360   0.00000  Uiso   1.00
C66    C     0.95160   0.69464   0.62468   0.00000  Uiso   1.00
C67    C     0.74138   0.86987   0.51572   0.00000  Uiso   1.00
C68    C     0.60654   0.88523   0.42523   0.00000  Uiso   1.00
C69    C     0.67307   0.91896   0.37930   0.00000  Uiso   1.00
H70    H     0.20941   0.87957   0.69151   0.00000  Uiso   1.00
H71    H     0.18557   0.92762   0.82549   0.00000  Uiso   1.00
H72    H     0.34409   0.78105   0.71471   0.00000  Uiso   1.00
H73    H     0.15299   0.93495   0.54637   0.00000  Uiso   1.00
H74    H     0.07343   0.97307   0.95505   0.00000  Uiso   1.00
H75    H     0.40768   0.66402   0.72144   0.00000  Uiso   1.00
H76    H     0.00470   0.98856   0.36646   0.00000  Uiso   1.00
H77    H     0.54879   0.81944   0.54507   0.00000  Uiso   1.00
H78    H     0.48869   0.86420   0.67102   0.00000  Uiso   1.00
H79    H     0.64722   0.71763   0.56024   0.00000  Uiso   1.00
H80    H     0.45611   0.87153   0.39190   0.00000  Uiso   1.00
H81    H     0.50782   0.92160   0.82968   0.00000  Uiso   1.00
H82    H     0.84207   0.61254   0.59606   0.00000  Uiso   1.00
H83    H     0.43909   0.93708   0.24108   0.00000  Uiso   1.00
O84    O     0.76303   0.97784   0.97787   0.00000  Uiso   1.00
O85    O     0.20155   0.57238   0.67137   0.00000  Uiso   1.00
O86    O     0.67286   0.99817   0.20565   0.00000  Uiso   1.00
N87    N     0.94855   0.95483   0.90825   0.00000  Uiso   1.00
N88    N     0.26105   0.66588   0.68985   0.00000  Uiso   1.00
N89    N     0.88432   0.96928   0.35796   0.00000  Uiso   1.00
N90    N     0.64419   0.92713   0.84078   0.00000  Uiso   1.00
N91    N     0.95670   0.63818   0.62239   0.00000  Uiso   1.00
N92    N     0.57997   0.94158   0.29050   0.00000  Uiso   1.00
C93    C     0.05806   0.63420   0.15796   0.00000  Uiso   1.00
C94    C     0.95349   0.61643   0.21045   0.00000  Uiso   1.00
C95    C     0.03511   0.58606   0.29216   0.00000  Uiso   1.00
C96    C     0.91531   0.57400   0.32931   0.00000  Uiso   1.00
C97    C     0.78255   0.54373   0.41738   0.00000  Uiso   1.00
C98    C     0.03962   0.69607   0.15027   0.00000  Uiso   1.00
C99    C     0.19367   0.73266   0.18138   0.00000  Uiso   1.00
C100   C     0.14636   0.78763   0.16785   0.00000  Uiso   1.00
C101   C     0.14731   0.88100   0.16244   0.00000  Uiso   1.00
C102   C     0.93579   0.61244   0.05881   0.00000  Uiso   1.00
C103   C     0.00254   0.57873   0.01300   0.00000  Uiso   1.00
C104   C     0.86782   0.56331   0.92247   0.00000  Uiso   1.00
C105   C     0.70756   0.52684   0.77505   0.00000  Uiso   1.00
C106   C     0.70014   0.66678   0.07862   0.00000  Uiso   1.00
C107   C     0.75909   0.63412   0.16735   0.00000  Uiso   1.00
C108   C     0.63912   0.62210   0.20438   0.00000  Uiso   1.00
C109   C     0.72055   0.59172   0.28614   0.00000  Uiso   1.00
C110   C     0.84523   0.71376   0.10718   0.00000  Uiso   1.00
C111   C     0.79768   0.76870   0.09360   0.00000  Uiso   1.00
C112   C     0.95160   0.80536   0.12468   0.00000  Uiso   1.00
C113   C     0.74138   0.63013   0.01572   0.00000  Uiso   1.00
C114   C     0.60654   0.61477   0.92523   0.00000  Uiso   1.00
C115   C     0.67307   0.58104   0.87930   0.00000  Uiso   1.00
H116   H     0.20941   0.62043   0.19151   0.00000  Uiso   1.00
H117   H     0.18557   0.57238   0.32549   0.00000  Uiso   1.00
H118   H     0.34409   0.71895   0.21471   0.00000  Uiso   1.00
H119   H     0.15299   0.56505   0.04637   0.00000  Uiso   1.00
H120   H     0.07343   0.52693   0.45505   0.00000  Uiso   1.00
H121   H     0.40768   0.83598   0.22144   0.00000  Uiso   1.00
H122   H     0.00470   0.51144   0.86646   0.00000  Uiso   1.00
H123   H     0.54879   0.68056   0.04507   0.00000  Uiso   1.00
H124   H     0.48869   0.63580   0.17102   0.00000  Uiso   1.00
H125   H     0.64722   0.78237   0.06024   0.00000  Uiso   1.00
H126   H     0.45611   0.62847   0.89190   0.00000  Uiso   1.00
H127   H     0.50782   0.57840   0.32968   0.00000  Uiso   1.00
H128   H     0.84207   0.88746   0.09606   0.00000  Uiso   1.00
H129   H     0.43909   0.56292   0.74108   0.00000  Uiso   1.00
O130   O     0.76303   0.52216   0.47787   0.00000  Uiso   1.00
O131   O     0.20155   0.92762   0.17137   0.00000  Uiso   1.00
O132   O     0.67286   0.50183   0.70565   0.00000  Uiso   1.00
N133   N     0.94855   0.54517   0.40825   0.00000  Uiso   1.00
N134   N     0.26105   0.83412   0.18985   0.00000  Uiso   1.00
N135   N     0.88432   0.53072   0.85796   0.00000  Uiso   1.00
N136   N     0.64419   0.57287   0.34078   0.00000  Uiso   1.00
N137   N     0.95670   0.86182   0.12239   0.00000  Uiso   1.00
N138   N     0.57997   0.55842   0.79050   0.00000  Uiso   1.00
C139   C     0.94194   0.13420   0.34204   0.00000  Uiso   1.00
C140   C     0.04651   0.11643   0.28955   0.00000  Uiso   1.00
C141   C     0.96489   0.08606   0.20784   0.00000  Uiso   1.00
C142   C     0.08469   0.07400   0.17069   0.00000  Uiso   1.00
C143   C     0.21745   0.04373   0.08262   0.00000  Uiso   1.00
C144   C     0.96038   0.19607   0.34973   0.00000  Uiso   1.00
C145   C     0.80633   0.23266   0.31862   0.00000  Uiso   1.00
C146   C     0.85364   0.28763   0.33215   0.00000  Uiso   1.00
C147   C     0.85269   0.38100   0.33756   0.00000  Uiso   1.00
C148   C     0.06421   0.11244   0.44119   0.00000  Uiso   1.00
C149   C     0.99746   0.07873   0.48700   0.00000  Uiso   1.00
C150   C     0.13218   0.06331   0.57753   0.00000  Uiso   1.00
C151   C     0.29244   0.02684   0.72495   0.00000  Uiso   1.00
C152   C     0.29986   0.16678   0.42138   0.00000  Uiso   1.00
C153   C     0.24091   0.13412   0.33265   0.00000  Uiso   1.00
C154   C     0.36088   0.12210   0.29562   0.00000  Uiso   1.00
C155   C     0.27945   0.09172   0.21386   0.00000  Uiso   1.00
C156   C     0.15477   0.21376   0.39282   0.00000  Uiso   1.00
C157   C     0.20232   0.26870   0.40640   0.00000  Uiso   1.00
C158   C     0.04840   0.30536   0.37532   0.00000  Uiso   1.00
C159   C     0.25862   0.13013   0.48428   0.00000  Uiso   1.00
C160   C     0.39346   0.11477   0.57477   0.00000  Uiso   1.00
C161   C     0.32693   0.08104   0.62070   0.00000  Uiso   1.00
H162   H     0.79059   0.12043   0.30849   0.00000  Uiso   1.00
H163   H     0.81443   0.07238   0.17451   0.00000  Uiso   1.00
H164   H     0.65591   0.21895   0.28529   0.00000  Uiso   1.00
H165   H     0.84701   0.06505   0.45363   0.00000  Uiso   1.00
H166   H     0.92657   0.02693   0.04495   0.00000  Uiso   1.00
H167   H     0.59232   0.33598   0.27856   0.00000  Uiso   1.00
H168   H     0.99530   0.01144   0.63354   0.00000  Uiso   1.00
H169   H     0.45121   0.18056   0.45493   0.00000  Uiso   1.00
H170   H     0.51131   0.13580   0.32898   0.00000  Uiso   1.00
H171   H     0.35278   0.28237   0.43976   0.00000  Uiso   1.00
H172   H     0.54389   0.12847   0.60810   0.00000  Uiso   1.00
H173   H     0.49218   0.07840   0.17032   0.00000  Uiso   1.00
H174   H     0.15793   0.38746   0.40394   0.00000  Uiso   1.00
H175   H     0.56091   0.06292   0.75892   0.00000  Uiso   1.00
O176   O     0.23697   0.02216   0.02213   0.00000  Uiso   1.00
O177   O     0.79845   0.42762   0.32863   0.00000  Uiso   1.00
O178   O     0.32714   0.00183   0.79435   0.00000  Uiso   1.00
N179   N     0.05145   0.04517   0.09175   0.00000  Uiso   1.00
N180   N     0.73895   0.33412   0.31015   0.00000  Uiso   1.00
N181   N     0.11568   0.03072   0.64204   0.00000  Uiso   1.00
N182   N     0.35581   0.07287   0.15922   0.00000  Uiso   1.00
N183   N     0.04330   0.36182   0.37761   0.00000  Uiso   1.00
N184   N     0.42003   0.05842   0.70950   0.00000  Uiso   1.00
