data_job_02223
_audit_creation_date              2018-12-19
_audit_creation_method            'Materials Studio'
_symmetry_space_group_name_H-M    'P1'
_symmetry_Int_Tables_number       1
_symmetry_cell_setting            triclinic
loop_
_symmetry_equiv_pos_as_xyz
  x,y,z
_cell_length_a                    22.3776
_cell_length_b                    13.4297
_cell_length_c                    27.4339
_cell_angle_alpha                 90.0000
_cell_angle_beta                  141.6250
_cell_angle_gamma                 90.0000
loop_
_atom_site_label
_atom_site_type_symbol
_atom_site_fract_x
_atom_site_fract_y
_atom_site_fract_z
_atom_site_U_iso_or_equiv
_atom_site_adp_type
_atom_site_occupancy
C1     C     0.42949   0.94906   0.12460   0.00000  Uiso   1.00
C2     C     0.44064   0.85876   0.09850   0.00000  Uiso   1.00
C3     C     0.44242   0.76008   0.11464   0.00000  Uiso   1.00
C4     C     0.45325   0.68832   0.08555   0.00000  Uiso   1.00
C5     C     0.46928   0.54414   0.05171   0.00000  Uiso   1.00
C6     C     0.51654   0.01521   0.17035   0.00000  Uiso   1.00
C7     C     0.58213   0.04809   0.24689   0.00000  Uiso   1.00
C8     C     0.65684   0.10804   0.27827   0.00000  Uiso   1.00
C9     C     0.79066   0.20682   0.35595   0.00000  Uiso   1.00
C10    C     0.34231   0.00613   0.04987   0.00000  Uiso   1.00
C11    C     0.26141   0.03140   0.02512   0.00000  Uiso   1.00
C12    C     0.18944   0.08373   0.95507   0.00000  Uiso   1.00
C13    C     0.05275   0.16839   0.84569   0.00000  Uiso   1.00
C14    C     0.44554   0.99708   0.04423   0.00000  Uiso   1.00
C15    C     0.44936   0.88484   0.05485   0.00000  Uiso   1.00
C16    C     0.46018   0.81321   0.02572   0.00000  Uiso   1.00
C17    C     0.46198   0.71445   0.04181   0.00000  Uiso   1.00
C18    C     0.52526   0.04129   0.12670   0.00000  Uiso   1.00
C19    C     0.59988   0.10122   0.15797   0.00000  Uiso   1.00
C20    C     0.66557   0.13418   0.23454   0.00000  Uiso   1.00
C21    C     0.35102   0.03221   0.00622   0.00000  Uiso   1.00
C22    C     0.27917   0.08452   0.93620   0.00000  Uiso   1.00
C23    C     0.19817   0.10986   0.91134   0.00000  Uiso   1.00
H24    H     0.42271   0.92876   0.15859   0.00000  Uiso   1.00
H25    H     0.43569   0.73993   0.14843   0.00000  Uiso   1.00
H26    H     0.57536   0.02790   0.28065   0.00000  Uiso   1.00
H27    H     0.25469   0.01120   0.05892   0.00000  Uiso   1.00
H28    H     0.45395   0.54208   0.11795   0.00000  Uiso   1.00
H29    H     0.74844   0.14931   0.39674   0.00000  Uiso   1.00
H30    H     0.07225   0.11410   0.92916   0.00000  Uiso   1.00
H31    H     0.45233   0.01739   0.01024   0.00000  Uiso   1.00
H32    H     0.46692   0.83342   0.99194   0.00000  Uiso   1.00
H33    H     0.60660   0.12139   0.12417   0.00000  Uiso   1.00
H34    H     0.28594   0.10469   0.90243   0.00000  Uiso   1.00
H35    H     0.47931   0.61796   0.99094   0.00000  Uiso   1.00
H36    H     0.77380   0.22520   0.26973   0.00000  Uiso   1.00
H37    H     0.09761   0.18998   0.80215   0.00000  Uiso   1.00
O38    O     0.47573   0.45740   0.04511   0.00000  Uiso   1.00
O39    O     0.86208   0.25408   0.41086   0.00000  Uiso   1.00
O40    O     0.97494   0.20788   0.79741   0.00000  Uiso   1.00
N41    N     0.45789   0.58519   0.09055   0.00000  Uiso   1.00
N42    N     0.73324   0.15290   0.35121   0.00000  Uiso   1.00
N43    N     0.10107   0.12000   0.91408   0.00000  Uiso   1.00
N44    N     0.47154   0.62602   0.02221   0.00000  Uiso   1.00
N45    N     0.74688   0.19373   0.28287   0.00000  Uiso   1.00
N46    N     0.11471   0.16083   0.84573   0.00000  Uiso   1.00
C47    C     0.92949   0.44906   0.12460   0.00000  Uiso   1.00
C48    C     0.94064   0.35876   0.09850   0.00000  Uiso   1.00
C49    C     0.94242   0.26008   0.11464   0.00000  Uiso   1.00
C50    C     0.95325   0.18832   0.08555   0.00000  Uiso   1.00
C51    C     0.96928   0.04414   0.05171   0.00000  Uiso   1.00
C52    C     0.01654   0.51521   0.17035   0.00000  Uiso   1.00
C53    C     0.08213   0.54809   0.24689   0.00000  Uiso   1.00
C54    C     0.15684   0.60804   0.27827   0.00000  Uiso   1.00
C55    C     0.29066   0.70682   0.35595   0.00000  Uiso   1.00
C56    C     0.84231   0.50613   0.04987   0.00000  Uiso   1.00
C57    C     0.76141   0.53140   0.02512   0.00000  Uiso   1.00
C58    C     0.68944   0.58373   0.95507   0.00000  Uiso   1.00
C59    C     0.55275   0.66839   0.84569   0.00000  Uiso   1.00
C60    C     0.94554   0.49708   0.04423   0.00000  Uiso   1.00
C61    C     0.94936   0.38484   0.05485   0.00000  Uiso   1.00
C62    C     0.96018   0.31321   0.02572   0.00000  Uiso   1.00
C63    C     0.96198   0.21445   0.04181   0.00000  Uiso   1.00
C64    C     0.02526   0.54129   0.12670   0.00000  Uiso   1.00
C65    C     0.09988   0.60122   0.15797   0.00000  Uiso   1.00
C66    C     0.16557   0.63418   0.23454   0.00000  Uiso   1.00
C67    C     0.85102   0.53221   0.00622   0.00000  Uiso   1.00
C68    C     0.77917   0.58452   0.93620   0.00000  Uiso   1.00
C69    C     0.69817   0.60986   0.91134   0.00000  Uiso   1.00
H70    H     0.92271   0.42876   0.15859   0.00000  Uiso   1.00
H71    H     0.93569   0.23993   0.14843   0.00000  Uiso   1.00
H72    H     0.07536   0.52790   0.28065   0.00000  Uiso   1.00
H73    H     0.75469   0.51120   0.05892   0.00000  Uiso   1.00
H74    H     0.95395   0.04208   0.11795   0.00000  Uiso   1.00
H75    H     0.24844   0.64931   0.39674   0.00000  Uiso   1.00
H76    H     0.57225   0.61410   0.92916   0.00000  Uiso   1.00
H77    H     0.95233   0.51739   0.01024   0.00000  Uiso   1.00
H78    H     0.96692   0.33342   0.99194   0.00000  Uiso   1.00
H79    H     0.10660   0.62139   0.12417   0.00000  Uiso   1.00
H80    H     0.78594   0.60469   0.90243   0.00000  Uiso   1.00
H81    H     0.97931   0.11796   0.99094   0.00000  Uiso   1.00
H82    H     0.27380   0.72520   0.26973   0.00000  Uiso   1.00
H83    H     0.59761   0.68998   0.80215   0.00000  Uiso   1.00
O84    O     0.97573   0.95740   0.04511   0.00000  Uiso   1.00
O85    O     0.36208   0.75408   0.41086   0.00000  Uiso   1.00
O86    O     0.47494   0.70788   0.79741   0.00000  Uiso   1.00
N87    N     0.95789   0.08519   0.09055   0.00000  Uiso   1.00
N88    N     0.23324   0.65290   0.35121   0.00000  Uiso   1.00
N89    N     0.60107   0.62000   0.91408   0.00000  Uiso   1.00
N90    N     0.97154   0.12602   0.02221   0.00000  Uiso   1.00
N91    N     0.24688   0.69373   0.28287   0.00000  Uiso   1.00
N92    N     0.61471   0.66083   0.84573   0.00000  Uiso   1.00
C93    C     0.57051   0.94906   0.37540   0.00000  Uiso   1.00
C94    C     0.55936   0.85876   0.40150   0.00000  Uiso   1.00
C95    C     0.55758   0.76008   0.38536   0.00000  Uiso   1.00
C96    C     0.54675   0.68832   0.41445   0.00000  Uiso   1.00
C97    C     0.53072   0.54414   0.44829   0.00000  Uiso   1.00
C98    C     0.48346   0.01521   0.32965   0.00000  Uiso   1.00
C99    C     0.41787   0.04809   0.25311   0.00000  Uiso   1.00
C100   C     0.34316   0.10804   0.22173   0.00000  Uiso   1.00
C101   C     0.20934   0.20682   0.14405   0.00000  Uiso   1.00
C102   C     0.65769   0.00613   0.45013   0.00000  Uiso   1.00
C103   C     0.73859   0.03140   0.47488   0.00000  Uiso   1.00
C104   C     0.81056   0.08373   0.54493   0.00000  Uiso   1.00
C105   C     0.94725   0.16839   0.65431   0.00000  Uiso   1.00
C106   C     0.55446   0.99708   0.45577   0.00000  Uiso   1.00
C107   C     0.55064   0.88484   0.44515   0.00000  Uiso   1.00
C108   C     0.53982   0.81321   0.47428   0.00000  Uiso   1.00
C109   C     0.53802   0.71445   0.45819   0.00000  Uiso   1.00
C110   C     0.47474   0.04129   0.37330   0.00000  Uiso   1.00
C111   C     0.40012   0.10122   0.34203   0.00000  Uiso   1.00
C112   C     0.33443   0.13418   0.26546   0.00000  Uiso   1.00
C113   C     0.64898   0.03221   0.49378   0.00000  Uiso   1.00
C114   C     0.72083   0.08452   0.56380   0.00000  Uiso   1.00
C115   C     0.80183   0.10986   0.58866   0.00000  Uiso   1.00
H116   H     0.57729   0.92876   0.34141   0.00000  Uiso   1.00
H117   H     0.56431   0.73993   0.35157   0.00000  Uiso   1.00
H118   H     0.42464   0.02790   0.21935   0.00000  Uiso   1.00
H119   H     0.74531   0.01120   0.44108   0.00000  Uiso   1.00
H120   H     0.54605   0.54208   0.38205   0.00000  Uiso   1.00
H121   H     0.25156   0.14931   0.10326   0.00000  Uiso   1.00
H122   H     0.92775   0.11410   0.57084   0.00000  Uiso   1.00
H123   H     0.54767   0.01739   0.48976   0.00000  Uiso   1.00
H124   H     0.53308   0.83342   0.50806   0.00000  Uiso   1.00
H125   H     0.39340   0.12139   0.37583   0.00000  Uiso   1.00
H126   H     0.71406   0.10469   0.59757   0.00000  Uiso   1.00
H127   H     0.52069   0.61796   0.50906   0.00000  Uiso   1.00
H128   H     0.22620   0.22520   0.23027   0.00000  Uiso   1.00
H129   H     0.90239   0.18998   0.69785   0.00000  Uiso   1.00
O130   O     0.52427   0.45740   0.45489   0.00000  Uiso   1.00
O131   O     0.13792   0.25408   0.08914   0.00000  Uiso   1.00
O132   O     0.02506   0.20788   0.70259   0.00000  Uiso   1.00
N133   N     0.54211   0.58519   0.40945   0.00000  Uiso   1.00
N134   N     0.26676   0.15290   0.14879   0.00000  Uiso   1.00
N135   N     0.89893   0.12000   0.58592   0.00000  Uiso   1.00
N136   N     0.52846   0.62602   0.47779   0.00000  Uiso   1.00
N137   N     0.25312   0.19373   0.21713   0.00000  Uiso   1.00
N138   N     0.88529   0.16083   0.65427   0.00000  Uiso   1.00
C139   C     0.07051   0.44906   0.37540   0.00000  Uiso   1.00
C140   C     0.05936   0.35876   0.40150   0.00000  Uiso   1.00
C141   C     0.05758   0.26008   0.38536   0.00000  Uiso   1.00
C142   C     0.04675   0.18832   0.41445   0.00000  Uiso   1.00
C143   C     0.03072   0.04414   0.44829   0.00000  Uiso   1.00
C144   C     0.98346   0.51521   0.32965   0.00000  Uiso   1.00
C145   C     0.91787   0.54809   0.25311   0.00000  Uiso   1.00
C146   C     0.84316   0.60804   0.22173   0.00000  Uiso   1.00
C147   C     0.70934   0.70682   0.14405   0.00000  Uiso   1.00
C148   C     0.15769   0.50613   0.45013   0.00000  Uiso   1.00
C149   C     0.23859   0.53140   0.47488   0.00000  Uiso   1.00
C150   C     0.31056   0.58373   0.54493   0.00000  Uiso   1.00
C151   C     0.44725   0.66839   0.65431   0.00000  Uiso   1.00
C152   C     0.05446   0.49708   0.45577   0.00000  Uiso   1.00
C153   C     0.05064   0.38484   0.44515   0.00000  Uiso   1.00
C154   C     0.03982   0.31321   0.47428   0.00000  Uiso   1.00
C155   C     0.03802   0.21445   0.45819   0.00000  Uiso   1.00
C156   C     0.97474   0.54129   0.37330   0.00000  Uiso   1.00
C157   C     0.90012   0.60122   0.34203   0.00000  Uiso   1.00
C158   C     0.83443   0.63418   0.26546   0.00000  Uiso   1.00
C159   C     0.14898   0.53221   0.49378   0.00000  Uiso   1.00
C160   C     0.22083   0.58452   0.56380   0.00000  Uiso   1.00
C161   C     0.30183   0.60986   0.58866   0.00000  Uiso   1.00
H162   H     0.07729   0.42876   0.34141   0.00000  Uiso   1.00
H163   H     0.06431   0.23993   0.35157   0.00000  Uiso   1.00
H164   H     0.92464   0.52790   0.21935   0.00000  Uiso   1.00
H165   H     0.24531   0.51120   0.44108   0.00000  Uiso   1.00
H166   H     0.04605   0.04208   0.38205   0.00000  Uiso   1.00
H167   H     0.75156   0.64931   0.10326   0.00000  Uiso   1.00
H168   H     0.42775   0.61410   0.57084   0.00000  Uiso   1.00
H169   H     0.04767   0.51739   0.48976   0.00000  Uiso   1.00
H170   H     0.03308   0.33342   0.50806   0.00000  Uiso   1.00
H171   H     0.89340   0.62139   0.37583   0.00000  Uiso   1.00
H172   H     0.21406   0.60469   0.59757   0.00000  Uiso   1.00
H173   H     0.02069   0.11796   0.50906   0.00000  Uiso   1.00
H174   H     0.72620   0.72520   0.23027   0.00000  Uiso   1.00
H175   H     0.40239   0.68998   0.69785   0.00000  Uiso   1.00
O176   O     0.02427   0.95740   0.45489   0.00000  Uiso   1.00
O177   O     0.63792   0.75408   0.08914   0.00000  Uiso   1.00
O178   O     0.52506   0.70788   0.70259   0.00000  Uiso   1.00
N179   N     0.04211   0.08519   0.40945   0.00000  Uiso   1.00
N180   N     0.76676   0.65290   0.14879   0.00000  Uiso   1.00
N181   N     0.39893   0.62000   0.58592   0.00000  Uiso   1.00
N182   N     0.02846   0.12602   0.47779   0.00000  Uiso   1.00
N183   N     0.75312   0.69373   0.21713   0.00000  Uiso   1.00
N184   N     0.38529   0.66083   0.65427   0.00000  Uiso   1.00
C185   C     0.57051   0.05094   0.87540   0.00000  Uiso   1.00
C186   C     0.55936   0.14124   0.90150   0.00000  Uiso   1.00
C187   C     0.55758   0.23992   0.88536   0.00000  Uiso   1.00
C188   C     0.54675   0.31168   0.91445   0.00000  Uiso   1.00
C189   C     0.53072   0.45586   0.94829   0.00000  Uiso   1.00
C190   C     0.48346   0.98479   0.82965   0.00000  Uiso   1.00
C191   C     0.41787   0.95191   0.75311   0.00000  Uiso   1.00
C192   C     0.34316   0.89196   0.72173   0.00000  Uiso   1.00
C193   C     0.20934   0.79318   0.64405   0.00000  Uiso   1.00
C194   C     0.65769   0.99387   0.95013   0.00000  Uiso   1.00
C195   C     0.73859   0.96860   0.97488   0.00000  Uiso   1.00
C196   C     0.81056   0.91627   0.04493   0.00000  Uiso   1.00
C197   C     0.94725   0.83161   0.15431   0.00000  Uiso   1.00
C198   C     0.55446   0.00292   0.95577   0.00000  Uiso   1.00
C199   C     0.55064   0.11516   0.94515   0.00000  Uiso   1.00
C200   C     0.53982   0.18679   0.97428   0.00000  Uiso   1.00
C201   C     0.53802   0.28555   0.95819   0.00000  Uiso   1.00
C202   C     0.47474   0.95871   0.87330   0.00000  Uiso   1.00
C203   C     0.40012   0.89878   0.84203   0.00000  Uiso   1.00
C204   C     0.33443   0.86582   0.76546   0.00000  Uiso   1.00
C205   C     0.64898   0.96779   0.99378   0.00000  Uiso   1.00
C206   C     0.72083   0.91548   0.06380   0.00000  Uiso   1.00
C207   C     0.80183   0.89014   0.08866   0.00000  Uiso   1.00
H208   H     0.57729   0.07124   0.84141   0.00000  Uiso   1.00
H209   H     0.56431   0.26007   0.85157   0.00000  Uiso   1.00
H210   H     0.42464   0.97210   0.71935   0.00000  Uiso   1.00
H211   H     0.74531   0.98880   0.94108   0.00000  Uiso   1.00
H212   H     0.54605   0.45792   0.88205   0.00000  Uiso   1.00
H213   H     0.25156   0.85069   0.60326   0.00000  Uiso   1.00
H214   H     0.92775   0.88590   0.07084   0.00000  Uiso   1.00
H215   H     0.54767   0.98261   0.98976   0.00000  Uiso   1.00
H216   H     0.53308   0.16658   0.00806   0.00000  Uiso   1.00
H217   H     0.39340   0.87861   0.87583   0.00000  Uiso   1.00
H218   H     0.71406   0.89531   0.09757   0.00000  Uiso   1.00
H219   H     0.52069   0.38204   0.00906   0.00000  Uiso   1.00
H220   H     0.22620   0.77480   0.73027   0.00000  Uiso   1.00
H221   H     0.90239   0.81002   0.19785   0.00000  Uiso   1.00
O222   O     0.52427   0.54260   0.95489   0.00000  Uiso   1.00
O223   O     0.13792   0.74592   0.58914   0.00000  Uiso   1.00
O224   O     0.02506   0.79212   0.20259   0.00000  Uiso   1.00
N225   N     0.54211   0.41481   0.90945   0.00000  Uiso   1.00
N226   N     0.26676   0.84710   0.64879   0.00000  Uiso   1.00
N227   N     0.89893   0.88000   0.08592   0.00000  Uiso   1.00
N228   N     0.52846   0.37398   0.97779   0.00000  Uiso   1.00
N229   N     0.25312   0.80627   0.71713   0.00000  Uiso   1.00
N230   N     0.88529   0.83917   0.15427   0.00000  Uiso   1.00
C231   C     0.07051   0.55094   0.87540   0.00000  Uiso   1.00
C232   C     0.05936   0.64124   0.90150   0.00000  Uiso   1.00
C233   C     0.05758   0.73992   0.88536   0.00000  Uiso   1.00
C234   C     0.04675   0.81168   0.91445   0.00000  Uiso   1.00
C235   C     0.03072   0.95586   0.94829   0.00000  Uiso   1.00
C236   C     0.98346   0.48479   0.82965   0.00000  Uiso   1.00
C237   C     0.91787   0.45191   0.75311   0.00000  Uiso   1.00
C238   C     0.84316   0.39196   0.72173   0.00000  Uiso   1.00
C239   C     0.70934   0.29318   0.64405   0.00000  Uiso   1.00
C240   C     0.15769   0.49387   0.95013   0.00000  Uiso   1.00
C241   C     0.23859   0.46860   0.97488   0.00000  Uiso   1.00
C242   C     0.31056   0.41627   0.04493   0.00000  Uiso   1.00
C243   C     0.44725   0.33161   0.15431   0.00000  Uiso   1.00
C244   C     0.05446   0.50292   0.95577   0.00000  Uiso   1.00
C245   C     0.05064   0.61516   0.94515   0.00000  Uiso   1.00
C246   C     0.03982   0.68679   0.97428   0.00000  Uiso   1.00
C247   C     0.03802   0.78555   0.95819   0.00000  Uiso   1.00
C248   C     0.97474   0.45871   0.87330   0.00000  Uiso   1.00
C249   C     0.90012   0.39878   0.84203   0.00000  Uiso   1.00
C250   C     0.83443   0.36582   0.76546   0.00000  Uiso   1.00
C251   C     0.14898   0.46779   0.99378   0.00000  Uiso   1.00
C252   C     0.22083   0.41548   0.06380   0.00000  Uiso   1.00
C253   C     0.30183   0.39014   0.08866   0.00000  Uiso   1.00
H254   H     0.07729   0.57124   0.84141   0.00000  Uiso   1.00
H255   H     0.06431   0.76007   0.85157   0.00000  Uiso   1.00
H256   H     0.92464   0.47210   0.71935   0.00000  Uiso   1.00
H257   H     0.24531   0.48880   0.94108   0.00000  Uiso   1.00
H258   H     0.04605   0.95792   0.88205   0.00000  Uiso   1.00
H259   H     0.75156   0.35069   0.60326   0.00000  Uiso   1.00
H260   H     0.42775   0.38590   0.07084   0.00000  Uiso   1.00
H261   H     0.04767   0.48261   0.98976   0.00000  Uiso   1.00
H262   H     0.03308   0.66658   0.00806   0.00000  Uiso   1.00
H263   H     0.89340   0.37861   0.87583   0.00000  Uiso   1.00
H264   H     0.21406   0.39531   0.09757   0.00000  Uiso   1.00
H265   H     0.02069   0.88204   0.00906   0.00000  Uiso   1.00
H266   H     0.72620   0.27480   0.73027   0.00000  Uiso   1.00
H267   H     0.40239   0.31002   0.19785   0.00000  Uiso   1.00
O268   O     0.02427   0.04260   0.95489   0.00000  Uiso   1.00
O269   O     0.63792   0.24592   0.58914   0.00000  Uiso   1.00
O270   O     0.52506   0.29212   0.20259   0.00000  Uiso   1.00
N271   N     0.04211   0.91481   0.90945   0.00000  Uiso   1.00
N272   N     0.76676   0.34710   0.64879   0.00000  Uiso   1.00
N273   N     0.39893   0.38000   0.08592   0.00000  Uiso   1.00
N274   N     0.02846   0.87398   0.97779   0.00000  Uiso   1.00
N275   N     0.75312   0.30627   0.71713   0.00000  Uiso   1.00
N276   N     0.38529   0.33917   0.15427   0.00000  Uiso   1.00
C277   C     0.42949   0.05094   0.62460   0.00000  Uiso   1.00
C278   C     0.44064   0.14124   0.59850   0.00000  Uiso   1.00
C279   C     0.44242   0.23992   0.61464   0.00000  Uiso   1.00
C280   C     0.45325   0.31168   0.58555   0.00000  Uiso   1.00
C281   C     0.46928   0.45586   0.55171   0.00000  Uiso   1.00
C282   C     0.51654   0.98479   0.67035   0.00000  Uiso   1.00
C283   C     0.58213   0.95191   0.74689   0.00000  Uiso   1.00
C284   C     0.65684   0.89196   0.77827   0.00000  Uiso   1.00
C285   C     0.79066   0.79318   0.85595   0.00000  Uiso   1.00
C286   C     0.34231   0.99387   0.54987   0.00000  Uiso   1.00
C287   C     0.26141   0.96860   0.52512   0.00000  Uiso   1.00
C288   C     0.18944   0.91627   0.45507   0.00000  Uiso   1.00
C289   C     0.05275   0.83161   0.34569   0.00000  Uiso   1.00
C290   C     0.44554   0.00292   0.54423   0.00000  Uiso   1.00
C291   C     0.44936   0.11516   0.55485   0.00000  Uiso   1.00
C292   C     0.46018   0.18679   0.52572   0.00000  Uiso   1.00
C293   C     0.46198   0.28555   0.54181   0.00000  Uiso   1.00
C294   C     0.52526   0.95871   0.62670   0.00000  Uiso   1.00
C295   C     0.59988   0.89878   0.65797   0.00000  Uiso   1.00
C296   C     0.66557   0.86582   0.73454   0.00000  Uiso   1.00
C297   C     0.35102   0.96779   0.50622   0.00000  Uiso   1.00
C298   C     0.27917   0.91548   0.43620   0.00000  Uiso   1.00
C299   C     0.19817   0.89014   0.41134   0.00000  Uiso   1.00
H300   H     0.42271   0.07124   0.65859   0.00000  Uiso   1.00
H301   H     0.43569   0.26007   0.64843   0.00000  Uiso   1.00
H302   H     0.57536   0.97210   0.78065   0.00000  Uiso   1.00
H303   H     0.25469   0.98880   0.55892   0.00000  Uiso   1.00
H304   H     0.45395   0.45792   0.61795   0.00000  Uiso   1.00
H305   H     0.74844   0.85069   0.89674   0.00000  Uiso   1.00
H306   H     0.07225   0.88590   0.42916   0.00000  Uiso   1.00
H307   H     0.45233   0.98261   0.51024   0.00000  Uiso   1.00
H308   H     0.46692   0.16658   0.49194   0.00000  Uiso   1.00
H309   H     0.60660   0.87861   0.62417   0.00000  Uiso   1.00
H310   H     0.28594   0.89531   0.40243   0.00000  Uiso   1.00
H311   H     0.47931   0.38204   0.49094   0.00000  Uiso   1.00
H312   H     0.77380   0.77480   0.76973   0.00000  Uiso   1.00
H313   H     0.09761   0.81002   0.30215   0.00000  Uiso   1.00
O314   O     0.47573   0.54260   0.54511   0.00000  Uiso   1.00
O315   O     0.86208   0.74592   0.91086   0.00000  Uiso   1.00
O316   O     0.97494   0.79212   0.29741   0.00000  Uiso   1.00
N317   N     0.45789   0.41481   0.59055   0.00000  Uiso   1.00
N318   N     0.73324   0.84710   0.85121   0.00000  Uiso   1.00
N319   N     0.10107   0.88000   0.41408   0.00000  Uiso   1.00
N320   N     0.47154   0.37398   0.52221   0.00000  Uiso   1.00
N321   N     0.74688   0.80627   0.78287   0.00000  Uiso   1.00
N322   N     0.11471   0.83917   0.34573   0.00000  Uiso   1.00
C323   C     0.92949   0.55094   0.62460   0.00000  Uiso   1.00
C324   C     0.94064   0.64124   0.59850   0.00000  Uiso   1.00
C325   C     0.94242   0.73992   0.61464   0.00000  Uiso   1.00
C326   C     0.95325   0.81168   0.58555   0.00000  Uiso   1.00
C327   C     0.96928   0.95586   0.55171   0.00000  Uiso   1.00
C328   C     0.01654   0.48479   0.67035   0.00000  Uiso   1.00
C329   C     0.08213   0.45191   0.74689   0.00000  Uiso   1.00
C330   C     0.15684   0.39196   0.77827   0.00000  Uiso   1.00
C331   C     0.29066   0.29318   0.85595   0.00000  Uiso   1.00
C332   C     0.84231   0.49387   0.54987   0.00000  Uiso   1.00
C333   C     0.76141   0.46860   0.52512   0.00000  Uiso   1.00
C334   C     0.68944   0.41627   0.45507   0.00000  Uiso   1.00
C335   C     0.55275   0.33161   0.34569   0.00000  Uiso   1.00
C336   C     0.94554   0.50292   0.54423   0.00000  Uiso   1.00
C337   C     0.94936   0.61516   0.55485   0.00000  Uiso   1.00
C338   C     0.96018   0.68679   0.52572   0.00000  Uiso   1.00
C339   C     0.96198   0.78555   0.54181   0.00000  Uiso   1.00
C340   C     0.02526   0.45871   0.62670   0.00000  Uiso   1.00
C341   C     0.09988   0.39878   0.65797   0.00000  Uiso   1.00
C342   C     0.16557   0.36582   0.73454   0.00000  Uiso   1.00
C343   C     0.85102   0.46779   0.50622   0.00000  Uiso   1.00
C344   C     0.77917   0.41548   0.43620   0.00000  Uiso   1.00
C345   C     0.69817   0.39014   0.41134   0.00000  Uiso   1.00
H346   H     0.92271   0.57124   0.65859   0.00000  Uiso   1.00
H347   H     0.93569   0.76007   0.64843   0.00000  Uiso   1.00
H348   H     0.07536   0.47210   0.78065   0.00000  Uiso   1.00
H349   H     0.75469   0.48880   0.55892   0.00000  Uiso   1.00
H350   H     0.95395   0.95792   0.61795   0.00000  Uiso   1.00
H351   H     0.24844   0.35069   0.89674   0.00000  Uiso   1.00
H352   H     0.57225   0.38590   0.42916   0.00000  Uiso   1.00
H353   H     0.95233   0.48261   0.51024   0.00000  Uiso   1.00
H354   H     0.96692   0.66658   0.49194   0.00000  Uiso   1.00
H355   H     0.10660   0.37861   0.62417   0.00000  Uiso   1.00
H356   H     0.78594   0.39531   0.40243   0.00000  Uiso   1.00
H357   H     0.97931   0.88204   0.49094   0.00000  Uiso   1.00
H358   H     0.27380   0.27480   0.76973   0.00000  Uiso   1.00
H359   H     0.59761   0.31002   0.30215   0.00000  Uiso   1.00
O360   O     0.97573   0.04260   0.54511   0.00000  Uiso   1.00
O361   O     0.36208   0.24592   0.91086   0.00000  Uiso   1.00
O362   O     0.47494   0.29212   0.29741   0.00000  Uiso   1.00
N363   N     0.95789   0.91481   0.59055   0.00000  Uiso   1.00
N364   N     0.23324   0.34710   0.85121   0.00000  Uiso   1.00
N365   N     0.60107   0.38000   0.41408   0.00000  Uiso   1.00
N366   N     0.97154   0.87398   0.52221   0.00000  Uiso   1.00
N367   N     0.24688   0.30627   0.78287   0.00000  Uiso   1.00
N368   N     0.61471   0.33917   0.34573   0.00000  Uiso   1.00
