data_job_06327
_audit_creation_date              2018-12-19
_audit_creation_method            'Materials Studio'
_symmetry_space_group_name_H-M    'P1'
_symmetry_Int_Tables_number       1
_symmetry_cell_setting            triclinic
loop_
_symmetry_equiv_pos_as_xyz
  x,y,z
_cell_length_a                    16.7524
_cell_length_b                    16.7463
_cell_length_c                    16.7338
_cell_angle_alpha                 83.9931
_cell_angle_beta                  83.9545
_cell_angle_gamma                 83.8982
loop_
_atom_site_label
_atom_site_type_symbol
_atom_site_fract_x
_atom_site_fract_y
_atom_site_fract_z
_atom_site_U_iso_or_equiv
_atom_site_adp_type
_atom_site_occupancy
C1     C     0.54495   0.72062   0.18282   0.00000  Uiso   1.00
C2     C     0.53783   0.77765   0.24908   0.00000  Uiso   1.00
C3     C     0.58476   0.77022   0.31351   0.00000  Uiso   1.00
C4     C     0.56883   0.82860   0.36767   0.00000  Uiso   1.00
C5     C     0.56698   0.90747   0.47211   0.00000  Uiso   1.00
C6     C     0.46169   0.69142   0.18348   0.00000  Uiso   1.00
C7     C     0.44461   0.61150   0.19274   0.00000  Uiso   1.00
C8     C     0.36458   0.59730   0.19167   0.00000  Uiso   1.00
C9     C     0.24453   0.54230   0.19419   0.00000  Uiso   1.00
C10    C     0.55875   0.77289   0.10329   0.00000  Uiso   1.00
C11    C     0.62328   0.76146   0.04511   0.00000  Uiso   1.00
C12    C     0.62497   0.81584   0.97651   0.00000  Uiso   1.00
C13    C     0.65562   0.88734   0.85453   0.00000  Uiso   1.00
C14    C     0.43321   0.83752   0.16442   0.00000  Uiso   1.00
C15    C     0.47713   0.84114   0.23909   0.00000  Uiso   1.00
C16    C     0.46113   0.89956   0.29316   0.00000  Uiso   1.00
C17    C     0.50803   0.89222   0.35767   0.00000  Uiso   1.00
C18    C     0.40099   0.75492   0.17349   0.00000  Uiso   1.00
C19    C     0.32098   0.74083   0.17239   0.00000  Uiso   1.00
C20    C     0.30378   0.66091   0.18166   0.00000  Uiso   1.00
C21    C     0.49806   0.83639   0.09329   0.00000  Uiso   1.00
C22    C     0.49965   0.89080   0.02477   0.00000  Uiso   1.00
C23    C     0.56416   0.87945   0.96650   0.00000  Uiso   1.00
H24    H     0.59220   0.67118   0.19059   0.00000  Uiso   1.00
H25    H     0.63172   0.72107   0.32123   0.00000  Uiso   1.00
H26    H     0.49159   0.56237   0.20047   0.00000  Uiso   1.00
H27    H     0.67023   0.71231   0.05287   0.00000  Uiso   1.00
H28    H     0.64875   0.80436   0.46167   0.00000  Uiso   1.00
H29    H     0.35328   0.46974   0.20701   0.00000  Uiso   1.00
H30    H     0.72999   0.78592   0.89576   0.00000  Uiso   1.00
H31    H     0.38595   0.88696   0.15664   0.00000  Uiso   1.00
H32    H     0.41416   0.94869   0.28542   0.00000  Uiso   1.00
H33    H     0.27402   0.78999   0.16465   0.00000  Uiso   1.00
H34    H     0.45267   0.93993   0.01705   0.00000  Uiso   1.00
H35    H     0.47217   0.98910   0.43261   0.00000  Uiso   1.00
H36    H     0.17669   0.65448   0.17794   0.00000  Uiso   1.00
H37    H     0.55340   0.97066   0.86670   0.00000  Uiso   1.00
O38    O     0.58272   0.93343   0.53248   0.00000  Uiso   1.00
O39    O     0.19508   0.49442   0.19836   0.00000  Uiso   1.00
O40    O     0.68930   0.90924   0.79001   0.00000  Uiso   1.00
N41    N     0.60333   0.83938   0.43715   0.00000  Uiso   1.00
N42    N     0.32708   0.52653   0.19907   0.00000  Uiso   1.00
N43    N     0.67926   0.82211   0.90807   0.00000  Uiso   1.00
N44    N     0.50831   0.93879   0.42151   0.00000  Uiso   1.00
N45    N     0.23206   0.62593   0.18343   0.00000  Uiso   1.00
N46    N     0.58424   0.92152   0.89243   0.00000  Uiso   1.00
C47    C     0.18272   0.54502   0.72052   0.00000  Uiso   1.00
C48    C     0.24889   0.53792   0.77757   0.00000  Uiso   1.00
C49    C     0.31323   0.58484   0.77017   0.00000  Uiso   1.00
C50    C     0.36731   0.56893   0.82857   0.00000  Uiso   1.00
C51    C     0.47159   0.56711   0.90747   0.00000  Uiso   1.00
C52    C     0.18345   0.46170   0.69123   0.00000  Uiso   1.00
C53    C     0.19276   0.44455   0.61122   0.00000  Uiso   1.00
C54    C     0.19175   0.36448   0.59694   0.00000  Uiso   1.00
C55    C     0.19438   0.24434   0.54179   0.00000  Uiso   1.00
C56    C     0.10324   0.55890   0.77286   0.00000  Uiso   1.00
C57    C     0.04509   0.62346   0.76148   0.00000  Uiso   1.00
C58    C     0.97653   0.62523   0.81592   0.00000  Uiso   1.00
C59    C     0.85461   0.65600   0.88752   0.00000  Uiso   1.00
C60    C     0.16435   0.43335   0.83741   0.00000  Uiso   1.00
C61    C     0.23891   0.47726   0.84106   0.00000  Uiso   1.00
C62    C     0.29291   0.46129   0.89949   0.00000  Uiso   1.00
C63    C     0.35732   0.50817   0.89217   0.00000  Uiso   1.00
C64    C     0.17348   0.40105   0.75471   0.00000  Uiso   1.00
C65    C     0.17244   0.32099   0.74055   0.00000  Uiso   1.00
C66    C     0.18176   0.30372   0.66054   0.00000  Uiso   1.00
C67    C     0.09326   0.49825   0.83635   0.00000  Uiso   1.00
C68    C     0.02477   0.49991   0.89081   0.00000  Uiso   1.00
C69    C     0.96653   0.56446   0.87952   0.00000  Uiso   1.00
H70    H     0.19048   0.59224   0.67109   0.00000  Uiso   1.00
H71    H     0.32093   0.63177   0.72102   0.00000  Uiso   1.00
H72    H     0.20047   0.49150   0.56211   0.00000  Uiso   1.00
H73    H     0.05283   0.67039   0.71235   0.00000  Uiso   1.00
H74    H     0.46117   0.64882   0.80436   0.00000  Uiso   1.00
H75    H     0.20715   0.35306   0.46928   0.00000  Uiso   1.00
H76    H     0.89581   0.73029   0.78609   0.00000  Uiso   1.00
H77    H     0.15659   0.38612   0.88684   0.00000  Uiso   1.00
H78    H     0.28518   0.41434   0.94861   0.00000  Uiso   1.00
H79    H     0.16472   0.27407   0.78969   0.00000  Uiso   1.00
H80    H     0.01708   0.45296   0.93993   0.00000  Uiso   1.00
H81    H     0.43215   0.47235   0.98908   0.00000  Uiso   1.00
H82    H     0.17813   0.17659   0.65399   0.00000  Uiso   1.00
H83    H     0.86679   0.55381   0.97081   0.00000  Uiso   1.00
O84    O     0.53188   0.58285   0.93345   0.00000  Uiso   1.00
O85    O     0.19860   0.19483   0.49383   0.00000  Uiso   1.00
O86    O     0.79013   0.68974   0.90948   0.00000  Uiso   1.00
N87    N     0.43668   0.60343   0.83937   0.00000  Uiso   1.00
N88    N     0.19921   0.32691   0.52608   0.00000  Uiso   1.00
N89    N     0.90812   0.67957   0.82226   0.00000  Uiso   1.00
N90    N     0.42107   0.50847   0.93876   0.00000  Uiso   1.00
N91    N     0.18359   0.23195   0.62548   0.00000  Uiso   1.00
N92    N     0.89250   0.58461   0.92166   0.00000  Uiso   1.00
C93    C     0.72064   0.18274   0.54515   0.00000  Uiso   1.00
C94    C     0.77759   0.24891   0.53810   0.00000  Uiso   1.00
C95    C     0.77013   0.31331   0.58511   0.00000  Uiso   1.00
C96    C     0.82844   0.36738   0.56923   0.00000  Uiso   1.00
C97    C     0.90719   0.47166   0.56749   0.00000  Uiso   1.00
C98    C     0.69142   0.18342   0.46178   0.00000  Uiso   1.00
C99    C     0.61151   0.19274   0.44463   0.00000  Uiso   1.00
C100   C     0.59728   0.19167   0.36452   0.00000  Uiso   1.00
C101   C     0.54225   0.19422   0.24430   0.00000  Uiso   1.00
C102   C     0.77297   0.10323   0.55896   0.00000  Uiso   1.00
C103   C     0.76161   0.04511   0.62351   0.00000  Uiso   1.00
C104   C     0.81604   0.97651   0.62521   0.00000  Uiso   1.00
C105   C     0.88763   0.85456   0.65588   0.00000  Uiso   1.00
C106   C     0.83748   0.16423   0.43336   0.00000  Uiso   1.00
C107   C     0.84105   0.23885   0.47737   0.00000  Uiso   1.00
C108   C     0.89939   0.29283   0.46142   0.00000  Uiso   1.00
C109   C     0.89202   0.35730   0.50841   0.00000  Uiso   1.00
C110   C     0.75488   0.17336   0.40106   0.00000  Uiso   1.00
C111   C     0.74077   0.17226   0.32095   0.00000  Uiso   1.00
C112   C     0.66086   0.18160   0.30368   0.00000  Uiso   1.00
C113   C     0.83643   0.09317   0.49824   0.00000  Uiso   1.00
C114   C     0.89088   0.02464   0.49983   0.00000  Uiso   1.00
C115   C     0.87961   0.96644   0.56437   0.00000  Uiso   1.00
H116   H     0.67123   0.19057   0.59242   0.00000  Uiso   1.00
H117   H     0.72100   0.32107   0.63209   0.00000  Uiso   1.00
H118   H     0.56241   0.20052   0.49164   0.00000  Uiso   1.00
H119   H     0.71250   0.05292   0.67049   0.00000  Uiso   1.00
H120   H     0.80415   0.46134   0.64927   0.00000  Uiso   1.00
H121   H     0.46975   0.20712   0.35313   0.00000  Uiso   1.00
H122   H     0.78623   0.89587   0.73027   0.00000  Uiso   1.00
H123   H     0.88688   0.15640   0.38608   0.00000  Uiso   1.00
H124   H     0.94849   0.28504   0.41443   0.00000  Uiso   1.00
H125   H     0.78990   0.16448   0.27398   0.00000  Uiso   1.00
H126   H     0.93998   0.01688   0.45283   0.00000  Uiso   1.00
H127   H     0.98879   0.43210   0.47261   0.00000  Uiso   1.00
H128   H     0.65438   0.17786   0.17646   0.00000  Uiso   1.00
H129   H     0.97087   0.86662   0.55361   0.00000  Uiso   1.00
O130   O     0.93309   0.53197   0.58329   0.00000  Uiso   1.00
O131   O     0.49437   0.19842   0.19477   0.00000  Uiso   1.00
O132   O     0.90959   0.79007   0.68957   0.00000  Uiso   1.00
N133   N     0.83916   0.43680   0.60381   0.00000  Uiso   1.00
N134   N     0.52651   0.19912   0.32693   0.00000  Uiso   1.00
N135   N     0.82239   0.90812   0.67952   0.00000  Uiso   1.00
N136   N     0.93851   0.42106   0.50875   0.00000  Uiso   1.00
N137   N     0.62587   0.18339   0.23187   0.00000  Uiso   1.00
N138   N     0.92174   0.89239   0.58446   0.00000  Uiso   1.00
C139   C     0.45505   0.27938   0.81718   0.00000  Uiso   1.00
C140   C     0.46217   0.22235   0.75092   0.00000  Uiso   1.00
C141   C     0.41524   0.22978   0.68649   0.00000  Uiso   1.00
C142   C     0.43117   0.17140   0.63233   0.00000  Uiso   1.00
C143   C     0.43302   0.09253   0.52789   0.00000  Uiso   1.00
C144   C     0.53831   0.30858   0.81652   0.00000  Uiso   1.00
C145   C     0.55539   0.38850   0.80726   0.00000  Uiso   1.00
C146   C     0.63542   0.40270   0.80833   0.00000  Uiso   1.00
C147   C     0.75547   0.45770   0.80581   0.00000  Uiso   1.00
C148   C     0.44125   0.22711   0.89671   0.00000  Uiso   1.00
C149   C     0.37672   0.23854   0.95489   0.00000  Uiso   1.00
C150   C     0.37503   0.18416   0.02349   0.00000  Uiso   1.00
C151   C     0.34438   0.11266   0.14547   0.00000  Uiso   1.00
C152   C     0.56679   0.16248   0.83558   0.00000  Uiso   1.00
C153   C     0.52287   0.15886   0.76091   0.00000  Uiso   1.00
C154   C     0.53887   0.10044   0.70684   0.00000  Uiso   1.00
C155   C     0.49197   0.10778   0.64233   0.00000  Uiso   1.00
C156   C     0.59901   0.24508   0.82651   0.00000  Uiso   1.00
C157   C     0.67902   0.25917   0.82761   0.00000  Uiso   1.00
C158   C     0.69622   0.33909   0.81834   0.00000  Uiso   1.00
C159   C     0.50194   0.16361   0.90671   0.00000  Uiso   1.00
C160   C     0.50035   0.10920   0.97523   0.00000  Uiso   1.00
C161   C     0.43584   0.12055   0.03350   0.00000  Uiso   1.00
H162   H     0.40780   0.32882   0.80941   0.00000  Uiso   1.00
H163   H     0.36828   0.27893   0.67877   0.00000  Uiso   1.00
H164   H     0.50841   0.43763   0.79953   0.00000  Uiso   1.00
H165   H     0.32977   0.28769   0.94713   0.00000  Uiso   1.00
H166   H     0.35125   0.19564   0.53833   0.00000  Uiso   1.00
H167   H     0.64672   0.53026   0.79299   0.00000  Uiso   1.00
H168   H     0.27001   0.21408   0.10424   0.00000  Uiso   1.00
H169   H     0.61405   0.11304   0.84336   0.00000  Uiso   1.00
H170   H     0.58584   0.05131   0.71458   0.00000  Uiso   1.00
H171   H     0.72598   0.21001   0.83535   0.00000  Uiso   1.00
H172   H     0.54733   0.06007   0.98295   0.00000  Uiso   1.00
H173   H     0.52783   0.01090   0.56739   0.00000  Uiso   1.00
H174   H     0.82330   0.34552   0.82206   0.00000  Uiso   1.00
H175   H     0.44660   0.02934   0.13330   0.00000  Uiso   1.00
O176   O     0.41728   0.06657   0.46752   0.00000  Uiso   1.00
O177   O     0.80492   0.50558   0.80164   0.00000  Uiso   1.00
O178   O     0.31070   0.09076   0.20999   0.00000  Uiso   1.00
N179   N     0.39667   0.16062   0.56285   0.00000  Uiso   1.00
N180   N     0.67292   0.47348   0.80093   0.00000  Uiso   1.00
N181   N     0.32074   0.17789   0.09193   0.00000  Uiso   1.00
N182   N     0.49169   0.06121   0.57849   0.00000  Uiso   1.00
N183   N     0.76794   0.37407   0.81657   0.00000  Uiso   1.00
N184   N     0.41576   0.07848   0.10757   0.00000  Uiso   1.00
C185   C     0.81728   0.45498   0.27948   0.00000  Uiso   1.00
C186   C     0.75111   0.46208   0.22243   0.00000  Uiso   1.00
C187   C     0.68677   0.41516   0.22983   0.00000  Uiso   1.00
C188   C     0.63269   0.43107   0.17143   0.00000  Uiso   1.00
C189   C     0.52841   0.43289   0.09253   0.00000  Uiso   1.00
C190   C     0.81655   0.53830   0.30877   0.00000  Uiso   1.00
C191   C     0.80724   0.55545   0.38878   0.00000  Uiso   1.00
C192   C     0.80825   0.63552   0.40306   0.00000  Uiso   1.00
C193   C     0.80562   0.75566   0.45821   0.00000  Uiso   1.00
C194   C     0.89676   0.44110   0.22714   0.00000  Uiso   1.00
C195   C     0.95491   0.37654   0.23852   0.00000  Uiso   1.00
C196   C     0.02347   0.37477   0.18408   0.00000  Uiso   1.00
C197   C     0.14539   0.34400   0.11248   0.00000  Uiso   1.00
C198   C     0.83565   0.56665   0.16259   0.00000  Uiso   1.00
C199   C     0.76109   0.52274   0.15894   0.00000  Uiso   1.00
C200   C     0.70709   0.53871   0.10051   0.00000  Uiso   1.00
C201   C     0.64268   0.49183   0.10783   0.00000  Uiso   1.00
C202   C     0.82652   0.59895   0.24529   0.00000  Uiso   1.00
C203   C     0.82756   0.67901   0.25945   0.00000  Uiso   1.00
C204   C     0.81824   0.69628   0.33946   0.00000  Uiso   1.00
C205   C     0.90674   0.50175   0.16365   0.00000  Uiso   1.00
C206   C     0.97523   0.50009   0.10919   0.00000  Uiso   1.00
C207   C     0.03347   0.43554   0.12048   0.00000  Uiso   1.00
H208   H     0.80952   0.40776   0.32891   0.00000  Uiso   1.00
H209   H     0.67907   0.36823   0.27898   0.00000  Uiso   1.00
H210   H     0.79953   0.50850   0.43789   0.00000  Uiso   1.00
H211   H     0.94717   0.32961   0.28765   0.00000  Uiso   1.00
H212   H     0.53883   0.35118   0.19564   0.00000  Uiso   1.00
H213   H     0.79285   0.64694   0.53072   0.00000  Uiso   1.00
H214   H     0.10419   0.26971   0.21391   0.00000  Uiso   1.00
H215   H     0.84341   0.61388   0.11316   0.00000  Uiso   1.00
H216   H     0.71482   0.58566   0.05139   0.00000  Uiso   1.00
H217   H     0.83528   0.72593   0.21031   0.00000  Uiso   1.00
H218   H     0.98292   0.54704   0.06007   0.00000  Uiso   1.00
H219   H     0.56785   0.52765   0.01092   0.00000  Uiso   1.00
H220   H     0.82187   0.82341   0.34601   0.00000  Uiso   1.00
H221   H     0.13321   0.44619   0.02919   0.00000  Uiso   1.00
O222   O     0.46812   0.41715   0.06655   0.00000  Uiso   1.00
O223   O     0.80140   0.80517   0.50617   0.00000  Uiso   1.00
O224   O     0.20987   0.31026   0.09052   0.00000  Uiso   1.00
N225   N     0.56332   0.39657   0.16063   0.00000  Uiso   1.00
N226   N     0.80079   0.67309   0.47392   0.00000  Uiso   1.00
N227   N     0.09188   0.32043   0.17774   0.00000  Uiso   1.00
N228   N     0.57893   0.49153   0.06124   0.00000  Uiso   1.00
N229   N     0.81641   0.76805   0.37452   0.00000  Uiso   1.00
N230   N     0.10750   0.41539   0.07834   0.00000  Uiso   1.00
C231   C     0.27936   0.81726   0.45485   0.00000  Uiso   1.00
C232   C     0.22241   0.75109   0.46190   0.00000  Uiso   1.00
C233   C     0.22987   0.68669   0.41489   0.00000  Uiso   1.00
C234   C     0.17156   0.63262   0.43077   0.00000  Uiso   1.00
C235   C     0.09281   0.52834   0.43251   0.00000  Uiso   1.00
C236   C     0.30858   0.81658   0.53822   0.00000  Uiso   1.00
C237   C     0.38849   0.80726   0.55537   0.00000  Uiso   1.00
C238   C     0.40272   0.80833   0.63548   0.00000  Uiso   1.00
C239   C     0.45775   0.80578   0.75570   0.00000  Uiso   1.00
C240   C     0.22703   0.89677   0.44104   0.00000  Uiso   1.00
C241   C     0.23839   0.95488   0.37649   0.00000  Uiso   1.00
C242   C     0.18396   0.02349   0.37479   0.00000  Uiso   1.00
C243   C     0.11237   0.14544   0.34412   0.00000  Uiso   1.00
C244   C     0.16252   0.83577   0.56664   0.00000  Uiso   1.00
C245   C     0.15895   0.76115   0.52263   0.00000  Uiso   1.00
C246   C     0.10061   0.70717   0.53858   0.00000  Uiso   1.00
C247   C     0.10798   0.64270   0.49159   0.00000  Uiso   1.00
C248   C     0.24512   0.82664   0.59894   0.00000  Uiso   1.00
C249   C     0.25923   0.82774   0.67905   0.00000  Uiso   1.00
C250   C     0.33914   0.81840   0.69631   0.00000  Uiso   1.00
C251   C     0.16357   0.90683   0.50176   0.00000  Uiso   1.00
C252   C     0.10912   0.97536   0.50017   0.00000  Uiso   1.00
C253   C     0.12039   0.03356   0.43563   0.00000  Uiso   1.00
H254   H     0.32877   0.80943   0.40758   0.00000  Uiso   1.00
H255   H     0.27900   0.67893   0.36791   0.00000  Uiso   1.00
H256   H     0.43759   0.79948   0.50836   0.00000  Uiso   1.00
H257   H     0.28750   0.94708   0.32951   0.00000  Uiso   1.00
H258   H     0.19585   0.53866   0.35073   0.00000  Uiso   1.00
H259   H     0.53025   0.79288   0.64687   0.00000  Uiso   1.00
H260   H     0.21377   0.10413   0.26973   0.00000  Uiso   1.00
H261   H     0.11312   0.84360   0.61392   0.00000  Uiso   1.00
H262   H     0.05151   0.71496   0.58557   0.00000  Uiso   1.00
H263   H     0.21010   0.83552   0.72602   0.00000  Uiso   1.00
H264   H     0.06002   0.98312   0.54717   0.00000  Uiso   1.00
H265   H     0.01121   0.56790   0.52739   0.00000  Uiso   1.00
H266   H     0.34562   0.82214   0.82354   0.00000  Uiso   1.00
H267   H     0.02913   0.13338   0.44639   0.00000  Uiso   1.00
O268   O     0.06691   0.46803   0.41671   0.00000  Uiso   1.00
O269   O     0.50563   0.80158   0.80523   0.00000  Uiso   1.00
O270   O     0.09041   0.20993   0.31043   0.00000  Uiso   1.00
N271   N     0.16084   0.56320   0.39619   0.00000  Uiso   1.00
N272   N     0.47349   0.80088   0.67307   0.00000  Uiso   1.00
N273   N     0.17761   0.09188   0.32048   0.00000  Uiso   1.00
N274   N     0.06149   0.57894   0.49125   0.00000  Uiso   1.00
N275   N     0.37413   0.81661   0.76813   0.00000  Uiso   1.00
N276   N     0.07826   0.10761   0.41554   0.00000  Uiso   1.00
