data_job_05147
_audit_creation_date              2018-12-19
_audit_creation_method            'Materials Studio'
_symmetry_space_group_name_H-M    'P1'
_symmetry_Int_Tables_number       1
_symmetry_cell_setting            triclinic
loop_
_symmetry_equiv_pos_as_xyz
  x,y,z
_cell_length_a                    13.3665
_cell_length_b                    14.4307
_cell_length_c                    12.1734
_cell_angle_alpha                 90.0000
_cell_angle_beta                  90.0000
_cell_angle_gamma                 90.0000
loop_
_atom_site_label
_atom_site_type_symbol
_atom_site_fract_x
_atom_site_fract_y
_atom_site_fract_z
_atom_site_U_iso_or_equiv
_atom_site_adp_type
_atom_site_occupancy
C1     C     0.93726   0.71320   0.83203   0.00000  Uiso   1.00
C2     C     0.99500   0.76907   0.74667   0.00000  Uiso   1.00
C3     C     0.95789   0.79913   0.64634   0.00000  Uiso   1.00
C4     C     0.02256   0.84932   0.57983   0.00000  Uiso   1.00
C5     C     0.09729   0.93309   0.44228   0.00000  Uiso   1.00
C6     C     0.99868   0.62585   0.85255   0.00000  Uiso   1.00
C7     C     0.96466   0.53549   0.84126   0.00000  Uiso   1.00
C8     C     0.03243   0.46512   0.86389   0.00000  Uiso   1.00
C9     C     0.11285   0.32653   0.89081   0.00000  Uiso   1.00
C10    C     0.94203   0.76914   0.93817   0.00000  Uiso   1.00
C11    C     0.86038   0.79923   0.99889   0.00000  Uiso   1.00
C12    C     0.88046   0.84948   0.09363   0.00000  Uiso   1.00
C13    C     0.87293   0.93336   0.25348   0.00000  Uiso   1.00
C14    C     0.11811   0.74890   0.89232   0.00000  Uiso   1.00
C15    C     0.09323   0.78846   0.77942   0.00000  Uiso   1.00
C16    C     0.15798   0.83863   0.71304   0.00000  Uiso   1.00
C17    C     0.12097   0.86875   0.61263   0.00000  Uiso   1.00
C18    C     0.09691   0.64524   0.88530   0.00000  Uiso   1.00
C19    C     0.16475   0.57499   0.90796   0.00000  Uiso   1.00
C20    C     0.13084   0.48454   0.89670   0.00000  Uiso   1.00
C21    C     0.04026   0.78853   0.97092   0.00000  Uiso   1.00
C22    C     0.06047   0.83874   0.06559   0.00000  Uiso   1.00
C23    C     0.97887   0.86891   0.12643   0.00000  Uiso   1.00
H24    H     0.86078   0.69810   0.80654   0.00000  Uiso   1.00
H25    H     0.88187   0.78410   0.62102   0.00000  Uiso   1.00
H26    H     0.88863   0.52050   0.81593   0.00000  Uiso   1.00
H27    H     0.78438   0.78421   0.97352   0.00000  Uiso   1.00
H28    H     0.94857   0.88797   0.42977   0.00000  Uiso   1.00
H29    H     0.96283   0.33216   0.84077   0.00000  Uiso   1.00
H30    H     0.74298   0.88824   0.17310   0.00000  Uiso   1.00
H31    H     0.19459   0.76400   0.91782   0.00000  Uiso   1.00
H32    H     0.23399   0.85362   0.73841   0.00000  Uiso   1.00
H33    H     0.24076   0.59002   0.93331   0.00000  Uiso   1.00
H34    H     0.13650   0.85373   0.09091   0.00000  Uiso   1.00
H35    H     0.23437   0.94439   0.52504   0.00000  Uiso   1.00
H36    H     0.24863   0.38858   0.93605   0.00000  Uiso   1.00
H37    H     0.02878   0.94466   0.26837   0.00000  Uiso   1.00
O38    O     0.11138   0.97392   0.35736   0.00000  Uiso   1.00
O39    O     0.13008   0.24473   0.89660   0.00000  Uiso   1.00
O40    O     0.84164   0.97429   0.33260   0.00000  Uiso   1.00
N41    N     0.01042   0.88897   0.47683   0.00000  Uiso   1.00
N42    N     0.02376   0.36932   0.86107   0.00000  Uiso   1.00
N43    N     0.81822   0.88918   0.17178   0.00000  Uiso   1.00
N44    N     0.16421   0.91933   0.52809   0.00000  Uiso   1.00
N45    N     0.17754   0.39968   0.91233   0.00000  Uiso   1.00
N46    N     0.97200   0.91954   0.22305   0.00000  Uiso   1.00
C47    C     0.06274   0.28680   0.33203   0.00000  Uiso   1.00
C48    C     0.00500   0.23093   0.24667   0.00000  Uiso   1.00
C49    C     0.04211   0.20087   0.14634   0.00000  Uiso   1.00
C50    C     0.97744   0.15068   0.07983   0.00000  Uiso   1.00
C51    C     0.90271   0.06691   0.94228   0.00000  Uiso   1.00
C52    C     0.00132   0.37415   0.35255   0.00000  Uiso   1.00
C53    C     0.03534   0.46451   0.34126   0.00000  Uiso   1.00
C54    C     0.96757   0.53488   0.36389   0.00000  Uiso   1.00
C55    C     0.88715   0.67347   0.39081   0.00000  Uiso   1.00
C56    C     0.05797   0.23086   0.43817   0.00000  Uiso   1.00
C57    C     0.13962   0.20077   0.49889   0.00000  Uiso   1.00
C58    C     0.11954   0.15052   0.59363   0.00000  Uiso   1.00
C59    C     0.12707   0.06664   0.75348   0.00000  Uiso   1.00
C60    C     0.88189   0.25110   0.39232   0.00000  Uiso   1.00
C61    C     0.90677   0.21154   0.27942   0.00000  Uiso   1.00
C62    C     0.84202   0.16137   0.21304   0.00000  Uiso   1.00
C63    C     0.87903   0.13125   0.11263   0.00000  Uiso   1.00
C64    C     0.90309   0.35476   0.38530   0.00000  Uiso   1.00
C65    C     0.83525   0.42501   0.40796   0.00000  Uiso   1.00
C66    C     0.86916   0.51546   0.39670   0.00000  Uiso   1.00
C67    C     0.95974   0.21147   0.47092   0.00000  Uiso   1.00
C68    C     0.93953   0.16126   0.56559   0.00000  Uiso   1.00
C69    C     0.02113   0.13109   0.62643   0.00000  Uiso   1.00
H70    H     0.13922   0.30190   0.30654   0.00000  Uiso   1.00
H71    H     0.11813   0.21590   0.12102   0.00000  Uiso   1.00
H72    H     0.11137   0.47950   0.31593   0.00000  Uiso   1.00
H73    H     0.21562   0.21579   0.47352   0.00000  Uiso   1.00
H74    H     0.05143   0.11203   0.92977   0.00000  Uiso   1.00
H75    H     0.03717   0.66784   0.34077   0.00000  Uiso   1.00
H76    H     0.25702   0.11176   0.67310   0.00000  Uiso   1.00
H77    H     0.80541   0.23600   0.41782   0.00000  Uiso   1.00
H78    H     0.76601   0.14638   0.23841   0.00000  Uiso   1.00
H79    H     0.75924   0.40998   0.43331   0.00000  Uiso   1.00
H80    H     0.86350   0.14627   0.59091   0.00000  Uiso   1.00
H81    H     0.76563   0.05561   0.02504   0.00000  Uiso   1.00
H82    H     0.75137   0.61142   0.43605   0.00000  Uiso   1.00
H83    H     0.97122   0.05534   0.76837   0.00000  Uiso   1.00
O84    O     0.88862   0.02608   0.85736   0.00000  Uiso   1.00
O85    O     0.86992   0.75527   0.39660   0.00000  Uiso   1.00
O86    O     0.15836   0.02571   0.83260   0.00000  Uiso   1.00
N87    N     0.98958   0.11103   0.97683   0.00000  Uiso   1.00
N88    N     0.97624   0.63068   0.36107   0.00000  Uiso   1.00
N89    N     0.18178   0.11082   0.67178   0.00000  Uiso   1.00
N90    N     0.83579   0.08067   0.02809   0.00000  Uiso   1.00
N91    N     0.82246   0.60032   0.41233   0.00000  Uiso   1.00
N92    N     0.02800   0.08046   0.72305   0.00000  Uiso   1.00
C93    C     0.43726   0.28680   0.83203   0.00000  Uiso   1.00
C94    C     0.49500   0.23093   0.74667   0.00000  Uiso   1.00
C95    C     0.45789   0.20087   0.64634   0.00000  Uiso   1.00
C96    C     0.52256   0.15068   0.57983   0.00000  Uiso   1.00
C97    C     0.59729   0.06691   0.44228   0.00000  Uiso   1.00
C98    C     0.49868   0.37415   0.85255   0.00000  Uiso   1.00
C99    C     0.46466   0.46451   0.84126   0.00000  Uiso   1.00
C100   C     0.53243   0.53488   0.86389   0.00000  Uiso   1.00
C101   C     0.61285   0.67347   0.89081   0.00000  Uiso   1.00
C102   C     0.44203   0.23086   0.93817   0.00000  Uiso   1.00
C103   C     0.36038   0.20077   0.99889   0.00000  Uiso   1.00
C104   C     0.38046   0.15052   0.09363   0.00000  Uiso   1.00
C105   C     0.37293   0.06664   0.25348   0.00000  Uiso   1.00
C106   C     0.61811   0.25110   0.89232   0.00000  Uiso   1.00
C107   C     0.59323   0.21154   0.77942   0.00000  Uiso   1.00
C108   C     0.65798   0.16137   0.71304   0.00000  Uiso   1.00
C109   C     0.62097   0.13125   0.61263   0.00000  Uiso   1.00
C110   C     0.59691   0.35476   0.88530   0.00000  Uiso   1.00
C111   C     0.66475   0.42501   0.90796   0.00000  Uiso   1.00
C112   C     0.63084   0.51546   0.89670   0.00000  Uiso   1.00
C113   C     0.54026   0.21147   0.97092   0.00000  Uiso   1.00
C114   C     0.56047   0.16126   0.06559   0.00000  Uiso   1.00
C115   C     0.47887   0.13109   0.12643   0.00000  Uiso   1.00
H116   H     0.36078   0.30190   0.80654   0.00000  Uiso   1.00
H117   H     0.38187   0.21590   0.62102   0.00000  Uiso   1.00
H118   H     0.38863   0.47950   0.81593   0.00000  Uiso   1.00
H119   H     0.28438   0.21579   0.97352   0.00000  Uiso   1.00
H120   H     0.44857   0.11203   0.42977   0.00000  Uiso   1.00
H121   H     0.46283   0.66784   0.84077   0.00000  Uiso   1.00
H122   H     0.24298   0.11176   0.17310   0.00000  Uiso   1.00
H123   H     0.69459   0.23600   0.91782   0.00000  Uiso   1.00
H124   H     0.73399   0.14638   0.73841   0.00000  Uiso   1.00
H125   H     0.74076   0.40998   0.93331   0.00000  Uiso   1.00
H126   H     0.63650   0.14627   0.09091   0.00000  Uiso   1.00
H127   H     0.73437   0.05561   0.52504   0.00000  Uiso   1.00
H128   H     0.74863   0.61142   0.93605   0.00000  Uiso   1.00
H129   H     0.52878   0.05534   0.26837   0.00000  Uiso   1.00
O130   O     0.61138   0.02608   0.35736   0.00000  Uiso   1.00
O131   O     0.63008   0.75527   0.89660   0.00000  Uiso   1.00
O132   O     0.34164   0.02571   0.33260   0.00000  Uiso   1.00
N133   N     0.51042   0.11103   0.47683   0.00000  Uiso   1.00
N134   N     0.52376   0.63068   0.86107   0.00000  Uiso   1.00
N135   N     0.31822   0.11082   0.17178   0.00000  Uiso   1.00
N136   N     0.66421   0.08067   0.52809   0.00000  Uiso   1.00
N137   N     0.67754   0.60032   0.91233   0.00000  Uiso   1.00
N138   N     0.47200   0.08046   0.22305   0.00000  Uiso   1.00
C139   C     0.56274   0.71320   0.33203   0.00000  Uiso   1.00
C140   C     0.50500   0.76907   0.24667   0.00000  Uiso   1.00
C141   C     0.54211   0.79913   0.14634   0.00000  Uiso   1.00
C142   C     0.47744   0.84932   0.07983   0.00000  Uiso   1.00
C143   C     0.40271   0.93309   0.94228   0.00000  Uiso   1.00
C144   C     0.50132   0.62585   0.35255   0.00000  Uiso   1.00
C145   C     0.53534   0.53549   0.34126   0.00000  Uiso   1.00
C146   C     0.46757   0.46512   0.36389   0.00000  Uiso   1.00
C147   C     0.38715   0.32653   0.39081   0.00000  Uiso   1.00
C148   C     0.55797   0.76914   0.43817   0.00000  Uiso   1.00
C149   C     0.63962   0.79923   0.49889   0.00000  Uiso   1.00
C150   C     0.61954   0.84948   0.59363   0.00000  Uiso   1.00
C151   C     0.62707   0.93336   0.75348   0.00000  Uiso   1.00
C152   C     0.38189   0.74890   0.39232   0.00000  Uiso   1.00
C153   C     0.40677   0.78846   0.27942   0.00000  Uiso   1.00
C154   C     0.34202   0.83863   0.21304   0.00000  Uiso   1.00
C155   C     0.37903   0.86875   0.11263   0.00000  Uiso   1.00
C156   C     0.40309   0.64524   0.38530   0.00000  Uiso   1.00
C157   C     0.33525   0.57499   0.40796   0.00000  Uiso   1.00
C158   C     0.36916   0.48454   0.39670   0.00000  Uiso   1.00
C159   C     0.45974   0.78853   0.47092   0.00000  Uiso   1.00
C160   C     0.43953   0.83874   0.56559   0.00000  Uiso   1.00
C161   C     0.52113   0.86891   0.62643   0.00000  Uiso   1.00
H162   H     0.63922   0.69810   0.30654   0.00000  Uiso   1.00
H163   H     0.61813   0.78410   0.12102   0.00000  Uiso   1.00
H164   H     0.61137   0.52050   0.31593   0.00000  Uiso   1.00
H165   H     0.71562   0.78421   0.47352   0.00000  Uiso   1.00
H166   H     0.55143   0.88797   0.92977   0.00000  Uiso   1.00
H167   H     0.53717   0.33216   0.34077   0.00000  Uiso   1.00
H168   H     0.75702   0.88824   0.67310   0.00000  Uiso   1.00
H169   H     0.30541   0.76400   0.41782   0.00000  Uiso   1.00
H170   H     0.26601   0.85362   0.23841   0.00000  Uiso   1.00
H171   H     0.25924   0.59002   0.43331   0.00000  Uiso   1.00
H172   H     0.36350   0.85373   0.59091   0.00000  Uiso   1.00
H173   H     0.26563   0.94439   0.02504   0.00000  Uiso   1.00
H174   H     0.25137   0.38858   0.43605   0.00000  Uiso   1.00
H175   H     0.47122   0.94466   0.76837   0.00000  Uiso   1.00
O176   O     0.38862   0.97392   0.85736   0.00000  Uiso   1.00
O177   O     0.36992   0.24473   0.39660   0.00000  Uiso   1.00
O178   O     0.65836   0.97429   0.83260   0.00000  Uiso   1.00
N179   N     0.48958   0.88897   0.97683   0.00000  Uiso   1.00
N180   N     0.47624   0.36932   0.36107   0.00000  Uiso   1.00
N181   N     0.68178   0.88918   0.67178   0.00000  Uiso   1.00
N182   N     0.33579   0.91933   0.02809   0.00000  Uiso   1.00
N183   N     0.32246   0.39968   0.41233   0.00000  Uiso   1.00
N184   N     0.52800   0.91954   0.72305   0.00000  Uiso   1.00
