data_job_03270
_audit_creation_date              2018-12-19
_audit_creation_method            'Materials Studio'
_symmetry_space_group_name_H-M    'P1'
_symmetry_Int_Tables_number       1
_symmetry_cell_setting            triclinic
loop_
_symmetry_equiv_pos_as_xyz
  x,y,z
_cell_length_a                    10.5880
_cell_length_b                    11.2653
_cell_length_c                    20.5412
_cell_angle_alpha                 83.7567
_cell_angle_beta                  97.3293
_cell_angle_gamma                 89.3274
loop_
_atom_site_label
_atom_site_type_symbol
_atom_site_fract_x
_atom_site_fract_y
_atom_site_fract_z
_atom_site_U_iso_or_equiv
_atom_site_adp_type
_atom_site_occupancy
C1     C     0.20023   0.89243   0.16722   0.00000  Uiso   1.00
C2     C     0.25969   0.91248   0.23665   0.00000  Uiso   1.00
C3     C     0.22276   0.85904   0.29511   0.00000  Uiso   1.00
C4     C     0.28909   0.88912   0.35354   0.00000  Uiso   1.00
C5     C     0.36621   0.90803   0.46136   0.00000  Uiso   1.00
C6     C     0.15775   0.01560   0.13246   0.00000  Uiso   1.00
C7     C     0.03512   0.04885   0.10331   0.00000  Uiso   1.00
C8     C     0.01565   0.16573   0.07403   0.00000  Uiso   1.00
C9     C     0.93454   0.34471   0.02004   0.00000  Uiso   1.00
C10    C     0.30899   0.85095   0.13243   0.00000  Uiso   1.00
C11    C     0.31350   0.74578   0.10324   0.00000  Uiso   1.00
C12    C     0.42135   0.72405   0.07391   0.00000  Uiso   1.00
C13    C     0.57504   0.64739   0.01988   0.00000  Uiso   1.00
C14    C     0.38372   0.04088   0.16702   0.00000  Uiso   1.00
C15    C     0.35935   0.99312   0.23654   0.00000  Uiso   1.00
C16    C     0.42576   0.02328   0.29489   0.00000  Uiso   1.00
C17    C     0.38893   0.96989   0.35343   0.00000  Uiso   1.00
C18    C     0.25741   0.09623   0.13235   0.00000  Uiso   1.00
C19    C     0.23812   0.21309   0.10309   0.00000  Uiso   1.00
C20    C     0.11549   0.24651   0.07392   0.00000  Uiso   1.00
C21    C     0.40865   0.93158   0.13232   0.00000  Uiso   1.00
C22    C     0.51651   0.91002   0.10302   0.00000  Uiso   1.00
C23    C     0.52119   0.80483   0.07380   0.00000  Uiso   1.00
H24    H     0.12264   0.82967   0.16730   0.00000  Uiso   1.00
H25    H     0.14561   0.79665   0.29518   0.00000  Uiso   1.00
H26    H     0.95802   0.98643   0.10340   0.00000  Uiso   1.00
H27    H     0.23636   0.68341   0.10333   0.00000  Uiso   1.00
H28    H     0.21501   0.79565   0.43690   0.00000  Uiso   1.00
H29    H     0.81946   0.19579   0.03251   0.00000  Uiso   1.00
H30    H     0.40639   0.55680   0.03236   0.00000  Uiso   1.00
H31    H     0.46131   0.10366   0.16693   0.00000  Uiso   1.00
H32    H     0.50288   0.08568   0.29479   0.00000  Uiso   1.00
H33    H     0.31527   0.27546   0.10301   0.00000  Uiso   1.00
H34    H     0.59361   0.97243   0.10295   0.00000  Uiso   1.00
H35    H     0.50498   0.03023   0.43659   0.00000  Uiso   1.00
H36    H     0.10942   0.43038   0.03219   0.00000  Uiso   1.00
H37    H     0.69635   0.79139   0.03205   0.00000  Uiso   1.00
O38    O     0.38120   0.89620   0.52086   0.00000  Uiso   1.00
O39    O     0.86225   0.42116   0.99030   0.00000  Uiso   1.00
O40    O     0.63229   0.58282   0.99011   0.00000  Uiso   1.00
N41    N     0.27757   0.85331   0.41928   0.00000  Uiso   1.00
N42    N     0.90774   0.22742   0.04121   0.00000  Uiso   1.00
N43    N     0.45646   0.63003   0.04105   0.00000  Uiso   1.00
N44    N     0.43360   0.97953   0.41911   0.00000  Uiso   1.00
N45    N     0.06377   0.35365   0.04104   0.00000  Uiso   1.00
N46    N     0.61249   0.75626   0.04089   0.00000  Uiso   1.00
C47    C     0.79977   0.10757   0.83278   0.00000  Uiso   1.00
C48    C     0.74031   0.08752   0.76335   0.00000  Uiso   1.00
C49    C     0.77724   0.14096   0.70489   0.00000  Uiso   1.00
C50    C     0.71091   0.11088   0.64646   0.00000  Uiso   1.00
C51    C     0.63379   0.09197   0.53864   0.00000  Uiso   1.00
C52    C     0.84225   0.98440   0.86754   0.00000  Uiso   1.00
C53    C     0.96488   0.95115   0.89669   0.00000  Uiso   1.00
C54    C     0.98435   0.83427   0.92597   0.00000  Uiso   1.00
C55    C     0.06546   0.65529   0.97996   0.00000  Uiso   1.00
C56    C     0.69101   0.14905   0.86757   0.00000  Uiso   1.00
C57    C     0.68650   0.25422   0.89676   0.00000  Uiso   1.00
C58    C     0.57865   0.27595   0.92609   0.00000  Uiso   1.00
C59    C     0.42496   0.35261   0.98012   0.00000  Uiso   1.00
C60    C     0.61628   0.95912   0.83298   0.00000  Uiso   1.00
C61    C     0.64065   0.00688   0.76346   0.00000  Uiso   1.00
C62    C     0.57424   0.97672   0.70511   0.00000  Uiso   1.00
C63    C     0.61107   0.03011   0.64657   0.00000  Uiso   1.00
C64    C     0.74259   0.90377   0.86765   0.00000  Uiso   1.00
C65    C     0.76188   0.78691   0.89691   0.00000  Uiso   1.00
C66    C     0.88451   0.75349   0.92608   0.00000  Uiso   1.00
C67    C     0.59135   0.06842   0.86768   0.00000  Uiso   1.00
C68    C     0.48349   0.08998   0.89698   0.00000  Uiso   1.00
C69    C     0.47881   0.19517   0.92620   0.00000  Uiso   1.00
H70    H     0.87736   0.17033   0.83270   0.00000  Uiso   1.00
H71    H     0.85439   0.20335   0.70482   0.00000  Uiso   1.00
H72    H     0.04198   0.01357   0.89660   0.00000  Uiso   1.00
H73    H     0.76364   0.31659   0.89667   0.00000  Uiso   1.00
H74    H     0.78499   0.20435   0.56310   0.00000  Uiso   1.00
H75    H     0.18054   0.80421   0.96749   0.00000  Uiso   1.00
H76    H     0.59361   0.44320   0.96764   0.00000  Uiso   1.00
H77    H     0.53869   0.89634   0.83307   0.00000  Uiso   1.00
H78    H     0.49712   0.91432   0.70521   0.00000  Uiso   1.00
H79    H     0.68473   0.72454   0.89699   0.00000  Uiso   1.00
H80    H     0.40639   0.02757   0.89705   0.00000  Uiso   1.00
H81    H     0.49502   0.96977   0.56341   0.00000  Uiso   1.00
H82    H     0.89058   0.56962   0.96781   0.00000  Uiso   1.00
H83    H     0.30365   0.20861   0.96795   0.00000  Uiso   1.00
O84    O     0.61880   0.10380   0.47914   0.00000  Uiso   1.00
O85    O     0.13775   0.57884   0.00970   0.00000  Uiso   1.00
O86    O     0.36771   0.41718   0.00989   0.00000  Uiso   1.00
N87    N     0.72243   0.14669   0.58072   0.00000  Uiso   1.00
N88    N     0.09226   0.77258   0.95879   0.00000  Uiso   1.00
N89    N     0.54354   0.36997   0.95895   0.00000  Uiso   1.00
N90    N     0.56640   0.02047   0.58089   0.00000  Uiso   1.00
N91    N     0.93623   0.64635   0.95896   0.00000  Uiso   1.00
N92    N     0.38751   0.24374   0.95911   0.00000  Uiso   1.00
