data_job_03993
_audit_creation_date              2018-12-19
_audit_creation_method            'Materials Studio'
_symmetry_space_group_name_H-M    'P1'
_symmetry_Int_Tables_number       1
_symmetry_cell_setting            triclinic
loop_
_symmetry_equiv_pos_as_xyz
  x,y,z
_cell_length_a                    15.6908
_cell_length_b                    15.9201
_cell_length_c                    15.6540
_cell_angle_alpha                 90.0000
_cell_angle_beta                  65.4477
_cell_angle_gamma                 90.0000
loop_
_atom_site_label
_atom_site_type_symbol
_atom_site_fract_x
_atom_site_fract_y
_atom_site_fract_z
_atom_site_U_iso_or_equiv
_atom_site_adp_type
_atom_site_occupancy
C1     C     0.73298   0.06876   0.81791   0.00000  Uiso   1.00
C2     C     0.71037   0.99063   0.87977   0.00000  Uiso   1.00
C3     C     0.66875   0.98988   0.97722   0.00000  Uiso   1.00
C4     C     0.65397   0.91192   0.02078   0.00000  Uiso   1.00
C5     C     0.61495   0.80192   0.12475   0.00000  Uiso   1.00
C6     C     0.83768   0.06455   0.75535   0.00000  Uiso   1.00
C7     C     0.90309   0.12596   0.74818   0.00000  Uiso   1.00
C8     C     0.99548   0.11023   0.68699   0.00000  Uiso   1.00
C9     C     0.15411   0.11502   0.59775   0.00000  Uiso   1.00
C10    C     0.68364   0.05715   0.75287   0.00000  Uiso   1.00
C11    C     0.61955   0.11236   0.74360   0.00000  Uiso   1.00
C12    C     0.58227   0.09041   0.68031   0.00000  Uiso   1.00
C13    C     0.50172   0.08372   0.58722   0.00000  Uiso   1.00
C14    C     0.78075   0.93164   0.72197   0.00000  Uiso   1.00
C15    C     0.73632   0.91615   0.82765   0.00000  Uiso   1.00
C16    C     0.72160   0.83817   0.87107   0.00000  Uiso   1.00
C17    C     0.67995   0.83731   0.96857   0.00000  Uiso   1.00
C18    C     0.86363   0.99007   0.70324   0.00000  Uiso   1.00
C19    C     0.95594   0.97425   0.64203   0.00000  Uiso   1.00
C20    C     0.02148   0.03562   0.63478   0.00000  Uiso   1.00
C21    C     0.70959   0.98267   0.70076   0.00000  Uiso   1.00
C22    C     0.67240   0.96064   0.63746   0.00000  Uiso   1.00
C23    C     0.60826   0.01580   0.62810   0.00000  Uiso   1.00
H24    H     0.71279   0.12675   0.85848   0.00000  Uiso   1.00
H25    H     0.64868   0.04754   0.01752   0.00000  Uiso   1.00
H26    H     0.88299   0.18359   0.78851   0.00000  Uiso   1.00
H27    H     0.59949   0.16999   0.78394   0.00000  Uiso   1.00
H28    H     0.58909   0.92686   0.17087   0.00000  Uiso   1.00
H29    H     0.08313   0.21376   0.68797   0.00000  Uiso   1.00
H30    H     0.48532   0.18508   0.67832   0.00000  Uiso   1.00
H31    H     0.80096   0.87365   0.68139   0.00000  Uiso   1.00
H32    H     0.74168   0.78054   0.83072   0.00000  Uiso   1.00
H33    H     0.97600   0.91660   0.60171   0.00000  Uiso   1.00
H34    H     0.69250   0.90300   0.59714   0.00000  Uiso   1.00
H35    H     0.66457   0.71016   0.01926   0.00000  Uiso   1.00
H36    H     0.15862   0.99707   0.53635   0.00000  Uiso   1.00
H37    H     0.56080   0.96838   0.52671   0.00000  Uiso   1.00
O38    O     0.58628   0.76183   0.19649   0.00000  Uiso   1.00
O39    O     0.23444   0.13824   0.56293   0.00000  Uiso   1.00
O40    O     0.45012   0.10060   0.55029   0.00000  Uiso   1.00
N41    N     0.61497   0.88864   0.11470   0.00000  Uiso   1.00
N42    N     0.07687   0.15687   0.66322   0.00000  Uiso   1.00
N43    N     0.51799   0.13006   0.65419   0.00000  Uiso   1.00
N44    N     0.65559   0.77203   0.03311   0.00000  Uiso   1.00
N45    N     0.11749   0.04026   0.58164   0.00000  Uiso   1.00
N46    N     0.55860   0.01346   0.57261   0.00000  Uiso   1.00
C47    C     0.26702   0.56876   0.68209   0.00000  Uiso   1.00
C48    C     0.28963   0.49063   0.62023   0.00000  Uiso   1.00
C49    C     0.33125   0.48988   0.52278   0.00000  Uiso   1.00
C50    C     0.34603   0.41192   0.47922   0.00000  Uiso   1.00
C51    C     0.38505   0.30192   0.37525   0.00000  Uiso   1.00
C52    C     0.16232   0.56455   0.74465   0.00000  Uiso   1.00
C53    C     0.09691   0.62596   0.75182   0.00000  Uiso   1.00
C54    C     0.00452   0.61023   0.81301   0.00000  Uiso   1.00
C55    C     0.84589   0.61502   0.90225   0.00000  Uiso   1.00
C56    C     0.31636   0.55715   0.74713   0.00000  Uiso   1.00
C57    C     0.38045   0.61236   0.75640   0.00000  Uiso   1.00
C58    C     0.41773   0.59041   0.81969   0.00000  Uiso   1.00
C59    C     0.49828   0.58372   0.91278   0.00000  Uiso   1.00
C60    C     0.21925   0.43164   0.77803   0.00000  Uiso   1.00
C61    C     0.26368   0.41615   0.67235   0.00000  Uiso   1.00
C62    C     0.27840   0.33817   0.62893   0.00000  Uiso   1.00
C63    C     0.32005   0.33731   0.53143   0.00000  Uiso   1.00
C64    C     0.13637   0.49007   0.79676   0.00000  Uiso   1.00
C65    C     0.04406   0.47425   0.85797   0.00000  Uiso   1.00
C66    C     0.97852   0.53562   0.86522   0.00000  Uiso   1.00
C67    C     0.29041   0.48267   0.79924   0.00000  Uiso   1.00
C68    C     0.32760   0.46064   0.86254   0.00000  Uiso   1.00
C69    C     0.39174   0.51580   0.87190   0.00000  Uiso   1.00
H70    H     0.28721   0.62675   0.64152   0.00000  Uiso   1.00
H71    H     0.35132   0.54754   0.48248   0.00000  Uiso   1.00
H72    H     0.11701   0.68359   0.71149   0.00000  Uiso   1.00
H73    H     0.40051   0.66999   0.71606   0.00000  Uiso   1.00
H74    H     0.41091   0.42686   0.32913   0.00000  Uiso   1.00
H75    H     0.91687   0.71376   0.81203   0.00000  Uiso   1.00
H76    H     0.51468   0.68508   0.82168   0.00000  Uiso   1.00
H77    H     0.19904   0.37365   0.81861   0.00000  Uiso   1.00
H78    H     0.25832   0.28054   0.66928   0.00000  Uiso   1.00
H79    H     0.02400   0.41660   0.89829   0.00000  Uiso   1.00
H80    H     0.30750   0.40300   0.90286   0.00000  Uiso   1.00
H81    H     0.33543   0.21016   0.48074   0.00000  Uiso   1.00
H82    H     0.84138   0.49707   0.96365   0.00000  Uiso   1.00
H83    H     0.43920   0.46838   0.97329   0.00000  Uiso   1.00
O84    O     0.41372   0.26183   0.30351   0.00000  Uiso   1.00
O85    O     0.76556   0.63824   0.93707   0.00000  Uiso   1.00
O86    O     0.54988   0.60060   0.94971   0.00000  Uiso   1.00
N87    N     0.38503   0.38864   0.38530   0.00000  Uiso   1.00
N88    N     0.92313   0.65687   0.83678   0.00000  Uiso   1.00
N89    N     0.48201   0.63006   0.84581   0.00000  Uiso   1.00
N90    N     0.34441   0.27203   0.46689   0.00000  Uiso   1.00
N91    N     0.88251   0.54026   0.91836   0.00000  Uiso   1.00
N92    N     0.44140   0.51346   0.92739   0.00000  Uiso   1.00
C93    C     0.26702   0.93124   0.18209   0.00000  Uiso   1.00
C94    C     0.28963   0.00937   0.12023   0.00000  Uiso   1.00
C95    C     0.33125   0.01012   0.02278   0.00000  Uiso   1.00
C96    C     0.34603   0.08808   0.97922   0.00000  Uiso   1.00
C97    C     0.38505   0.19808   0.87525   0.00000  Uiso   1.00
C98    C     0.16232   0.93545   0.24465   0.00000  Uiso   1.00
C99    C     0.09691   0.87404   0.25182   0.00000  Uiso   1.00
C100   C     0.00452   0.88977   0.31301   0.00000  Uiso   1.00
C101   C     0.84589   0.88498   0.40225   0.00000  Uiso   1.00
C102   C     0.31636   0.94285   0.24713   0.00000  Uiso   1.00
C103   C     0.38045   0.88764   0.25640   0.00000  Uiso   1.00
C104   C     0.41773   0.90959   0.31969   0.00000  Uiso   1.00
C105   C     0.49828   0.91628   0.41278   0.00000  Uiso   1.00
C106   C     0.21925   0.06836   0.27803   0.00000  Uiso   1.00
C107   C     0.26368   0.08385   0.17235   0.00000  Uiso   1.00
C108   C     0.27840   0.16183   0.12893   0.00000  Uiso   1.00
C109   C     0.32005   0.16269   0.03143   0.00000  Uiso   1.00
C110   C     0.13637   0.00993   0.29676   0.00000  Uiso   1.00
C111   C     0.04406   0.02575   0.35797   0.00000  Uiso   1.00
C112   C     0.97852   0.96438   0.36522   0.00000  Uiso   1.00
C113   C     0.29041   0.01733   0.29924   0.00000  Uiso   1.00
C114   C     0.32760   0.03936   0.36254   0.00000  Uiso   1.00
C115   C     0.39174   0.98420   0.37190   0.00000  Uiso   1.00
H116   H     0.28721   0.87325   0.14152   0.00000  Uiso   1.00
H117   H     0.35132   0.95246   0.98248   0.00000  Uiso   1.00
H118   H     0.11701   0.81641   0.21149   0.00000  Uiso   1.00
H119   H     0.40051   0.83001   0.21606   0.00000  Uiso   1.00
H120   H     0.41091   0.07314   0.82913   0.00000  Uiso   1.00
H121   H     0.91687   0.78624   0.31203   0.00000  Uiso   1.00
H122   H     0.51468   0.81492   0.32168   0.00000  Uiso   1.00
H123   H     0.19904   0.12635   0.31861   0.00000  Uiso   1.00
H124   H     0.25832   0.21946   0.16928   0.00000  Uiso   1.00
H125   H     0.02400   0.08340   0.39829   0.00000  Uiso   1.00
H126   H     0.30750   0.09700   0.40286   0.00000  Uiso   1.00
H127   H     0.33543   0.28984   0.98074   0.00000  Uiso   1.00
H128   H     0.84138   0.00293   0.46365   0.00000  Uiso   1.00
H129   H     0.43920   0.03162   0.47329   0.00000  Uiso   1.00
O130   O     0.41372   0.23817   0.80351   0.00000  Uiso   1.00
O131   O     0.76556   0.86176   0.43707   0.00000  Uiso   1.00
O132   O     0.54988   0.89940   0.44971   0.00000  Uiso   1.00
N133   N     0.38503   0.11136   0.88530   0.00000  Uiso   1.00
N134   N     0.92313   0.84313   0.33678   0.00000  Uiso   1.00
N135   N     0.48201   0.86994   0.34581   0.00000  Uiso   1.00
N136   N     0.34441   0.22797   0.96689   0.00000  Uiso   1.00
N137   N     0.88251   0.95974   0.41836   0.00000  Uiso   1.00
N138   N     0.44140   0.98654   0.42739   0.00000  Uiso   1.00
C139   C     0.73298   0.43124   0.31791   0.00000  Uiso   1.00
C140   C     0.71037   0.50937   0.37977   0.00000  Uiso   1.00
C141   C     0.66875   0.51012   0.47722   0.00000  Uiso   1.00
C142   C     0.65397   0.58808   0.52078   0.00000  Uiso   1.00
C143   C     0.61495   0.69808   0.62475   0.00000  Uiso   1.00
C144   C     0.83768   0.43545   0.25535   0.00000  Uiso   1.00
C145   C     0.90309   0.37404   0.24818   0.00000  Uiso   1.00
C146   C     0.99548   0.38977   0.18699   0.00000  Uiso   1.00
C147   C     0.15411   0.38498   0.09775   0.00000  Uiso   1.00
C148   C     0.68364   0.44285   0.25287   0.00000  Uiso   1.00
C149   C     0.61955   0.38764   0.24360   0.00000  Uiso   1.00
C150   C     0.58227   0.40959   0.18031   0.00000  Uiso   1.00
C151   C     0.50172   0.41628   0.08722   0.00000  Uiso   1.00
C152   C     0.78075   0.56836   0.22197   0.00000  Uiso   1.00
C153   C     0.73632   0.58385   0.32765   0.00000  Uiso   1.00
C154   C     0.72160   0.66183   0.37107   0.00000  Uiso   1.00
C155   C     0.67995   0.66269   0.46857   0.00000  Uiso   1.00
C156   C     0.86363   0.50993   0.20324   0.00000  Uiso   1.00
C157   C     0.95594   0.52575   0.14203   0.00000  Uiso   1.00
C158   C     0.02148   0.46438   0.13478   0.00000  Uiso   1.00
C159   C     0.70959   0.51733   0.20076   0.00000  Uiso   1.00
C160   C     0.67240   0.53936   0.13746   0.00000  Uiso   1.00
C161   C     0.60826   0.48420   0.12810   0.00000  Uiso   1.00
H162   H     0.71279   0.37325   0.35848   0.00000  Uiso   1.00
H163   H     0.64868   0.45246   0.51752   0.00000  Uiso   1.00
H164   H     0.88299   0.31641   0.28851   0.00000  Uiso   1.00
H165   H     0.59949   0.33001   0.28394   0.00000  Uiso   1.00
H166   H     0.58909   0.57314   0.67087   0.00000  Uiso   1.00
H167   H     0.08313   0.28624   0.18797   0.00000  Uiso   1.00
H168   H     0.48532   0.31492   0.17832   0.00000  Uiso   1.00
H169   H     0.80096   0.62635   0.18139   0.00000  Uiso   1.00
H170   H     0.74168   0.71946   0.33072   0.00000  Uiso   1.00
H171   H     0.97600   0.58340   0.10171   0.00000  Uiso   1.00
H172   H     0.69250   0.59700   0.09714   0.00000  Uiso   1.00
H173   H     0.66457   0.78984   0.51926   0.00000  Uiso   1.00
H174   H     0.15862   0.50293   0.03635   0.00000  Uiso   1.00
H175   H     0.56080   0.53162   0.02671   0.00000  Uiso   1.00
O176   O     0.58628   0.73817   0.69649   0.00000  Uiso   1.00
O177   O     0.23444   0.36176   0.06293   0.00000  Uiso   1.00
O178   O     0.45012   0.39940   0.05029   0.00000  Uiso   1.00
N179   N     0.61497   0.61136   0.61470   0.00000  Uiso   1.00
N180   N     0.07687   0.34313   0.16322   0.00000  Uiso   1.00
N181   N     0.51799   0.36994   0.15419   0.00000  Uiso   1.00
N182   N     0.65559   0.72797   0.53311   0.00000  Uiso   1.00
N183   N     0.11749   0.45974   0.08164   0.00000  Uiso   1.00
N184   N     0.55860   0.48654   0.07261   0.00000  Uiso   1.00
