data_job_06379
_audit_creation_date              2018-12-19
_audit_creation_method            'Materials Studio'
_symmetry_space_group_name_H-M    'P1'
_symmetry_Int_Tables_number       1
_symmetry_cell_setting            triclinic
loop_
_symmetry_equiv_pos_as_xyz
  x,y,z
_cell_length_a                    16.8116
_cell_length_b                    16.4524
_cell_length_c                    15.6839
_cell_angle_alpha                 100.1410
_cell_angle_beta                  100.0630
_cell_angle_gamma                 98.7161
loop_
_atom_site_label
_atom_site_type_symbol
_atom_site_fract_x
_atom_site_fract_y
_atom_site_fract_z
_atom_site_U_iso_or_equiv
_atom_site_adp_type
_atom_site_occupancy
C1     C     0.99433   0.13117   0.55943   0.00000  Uiso   1.00
C2     C     0.96380   0.21268   0.58637   0.00000  Uiso   1.00
C3     C     0.88708   0.22897   0.55317   0.00000  Uiso   1.00
C4     C     0.87095   0.30740   0.58630   0.00000  Uiso   1.00
C5     C     0.81466   0.42488   0.61836   0.00000  Uiso   1.00
C6     C     0.07371   0.15596   0.52803   0.00000  Uiso   1.00
C7     C     0.08940   0.12454   0.44578   0.00000  Uiso   1.00
C8     C     0.16581   0.15520   0.42981   0.00000  Uiso   1.00
C9     C     0.28018   0.18456   0.37132   0.00000  Uiso   1.00
C10    C     0.01935   0.10047   0.64467   0.00000  Uiso   1.00
C11    C     0.98935   0.02238   0.66050   0.00000  Uiso   1.00
C12    C     0.02001   0.00632   0.74273   0.00000  Uiso   1.00
C13    C     0.04997   0.94952   0.86535   0.00000  Uiso   1.00
C14    C     0.10213   0.24149   0.67732   0.00000  Uiso   1.00
C15    C     0.02236   0.27260   0.65040   0.00000  Uiso   1.00
C16    C     0.00634   0.35103   0.68360   0.00000  Uiso   1.00
C17    C     0.92961   0.36743   0.65045   0.00000  Uiso   1.00
C18    C     0.13227   0.21587   0.59206   0.00000  Uiso   1.00
C19    C     0.20867   0.24659   0.57621   0.00000  Uiso   1.00
C20    C     0.22447   0.21523   0.49396   0.00000  Uiso   1.00
C21    C     0.07791   0.16039   0.70871   0.00000  Uiso   1.00
C22    C     0.10862   0.14444   0.79093   0.00000  Uiso   1.00
C23    C     0.07867   0.06635   0.80688   0.00000  Uiso   1.00
H24    H     0.94875   0.08451   0.50958   0.00000  Uiso   1.00
H25    H     0.84178   0.18259   0.50361   0.00000  Uiso   1.00
H26    H     0.04408   0.07816   0.39625   0.00000  Uiso   1.00
H27    H     0.94404   0.97603   0.61093   0.00000  Uiso   1.00
H28    H     0.74902   0.31775   0.52521   0.00000  Uiso   1.00
H29    H     0.17559   0.09754   0.29884   0.00000  Uiso   1.00
H30    H     0.96464   0.88217   0.75154   0.00000  Uiso   1.00
H31    H     0.14772   0.28814   0.72717   0.00000  Uiso   1.00
H32    H     0.05167   0.39739   0.73315   0.00000  Uiso   1.00
H33    H     0.25397   0.29296   0.62578   0.00000  Uiso   1.00
H34    H     0.15393   0.19083   0.84047   0.00000  Uiso   1.00
H35    H     0.91938   0.49209   0.71150   0.00000  Uiso   1.00
H36    H     0.34595   0.27188   0.48514   0.00000  Uiso   1.00
H37    H     0.13500   0.05651   0.93784   0.00000  Uiso   1.00
O38    O     0.76743   0.47312   0.61834   0.00000  Uiso   1.00
O39    O     0.32708   0.18421   0.32136   0.00000  Uiso   1.00
O40    O     0.05032   0.90165   0.91530   0.00000  Uiso   1.00
N41    N     0.80229   0.34378   0.56824   0.00000  Uiso   1.00
N42    N     0.20110   0.13791   0.35660   0.00000  Uiso   1.00
N43    N     0.00390   0.93655   0.77983   0.00000  Uiso   1.00
N44    N     0.89396   0.43760   0.66849   0.00000  Uiso   1.00
N45    N     0.29277   0.23172   0.45684   0.00000  Uiso   1.00
N46    N     0.09556   0.03036   0.88008   0.00000  Uiso   1.00
C47    C     0.56314   0.99408   0.12383   0.00000  Uiso   1.00
C48    C     0.58842   0.96353   0.20912   0.00000  Uiso   1.00
C49    C     0.55836   0.88559   0.22525   0.00000  Uiso   1.00
C50    C     0.58925   0.86967   0.30748   0.00000  Uiso   1.00
C51    C     0.61952   0.81314   0.43023   0.00000  Uiso   1.00
C52    C     0.53287   0.07574   0.15082   0.00000  Uiso   1.00
C53    C     0.45612   0.09216   0.11791   0.00000  Uiso   1.00
C54    C     0.44026   0.17071   0.15105   0.00000  Uiso   1.00
C55    C     0.38432   0.28841   0.18323   0.00000  Uiso   1.00
C56    C     0.64234   0.01857   0.09199   0.00000  Uiso   1.00
C57    C     0.65762   0.98692   0.00961   0.00000  Uiso   1.00
C58    C     0.73391   0.01735   0.99321   0.00000  Uiso   1.00
C59    C     0.84793   0.04628   0.93405   0.00000  Uiso   1.00
C60    C     0.67144   0.10439   0.24118   0.00000  Uiso   1.00
C61    C     0.64724   0.02345   0.27286   0.00000  Uiso   1.00
C62    C     0.67819   0.00764   0.35509   0.00000  Uiso   1.00
C63    C     0.64819   0.92970   0.37134   0.00000  Uiso   1.00
C64    C     0.59169   0.13566   0.21455   0.00000  Uiso   1.00
C65    C     0.57595   0.21421   0.24774   0.00000  Uiso   1.00
C66    C     0.49919   0.23074   0.21490   0.00000  Uiso   1.00
C67    C     0.70116   0.07848   0.15573   0.00000  Uiso   1.00
C68    C     0.77744   0.10897   0.13945   0.00000  Uiso   1.00
C69    C     0.79284   0.07738   0.05706   0.00000  Uiso   1.00
H70    H     0.51734   0.94743   0.07421   0.00000  Uiso   1.00
H71    H     0.51283   0.83924   0.17591   0.00000  Uiso   1.00
H72    H     0.41062   0.04578   0.06858   0.00000  Uiso   1.00
H73    H     0.61208   0.94056   0.96030   0.00000  Uiso   1.00
H74    H     0.53376   0.74573   0.31679   0.00000  Uiso   1.00
H75    H     0.31824   0.18123   0.09045   0.00000  Uiso   1.00
H76    H     0.74307   0.95935   0.86212   0.00000  Uiso   1.00
H77    H     0.71724   0.15105   0.29081   0.00000  Uiso   1.00
H78    H     0.72371   0.05403   0.40440   0.00000  Uiso   1.00
H79    H     0.62149   0.26056   0.29707   0.00000  Uiso   1.00
H80    H     0.82295   0.15534   0.18879   0.00000  Uiso   1.00
H81    H     0.70491   0.92006   0.50224   0.00000  Uiso   1.00
H82    H     0.48938   0.35557   0.27589   0.00000  Uiso   1.00
H83    H     0.91422   0.13368   0.04757   0.00000  Uiso   1.00
O84    O     0.61996   0.76541   0.48034   0.00000  Uiso   1.00
O85    O     0.33721   0.33678   0.18337   0.00000  Uiso   1.00
O86    O     0.89458   0.04567   0.88382   0.00000  Uiso   1.00
N87    N     0.57317   0.80006   0.34484   0.00000  Uiso   1.00
N88    N     0.37166   0.20723   0.13323   0.00000  Uiso   1.00
N89    N     0.76883   0.99981   0.91976   0.00000  Uiso   1.00
N90    N     0.66526   0.89387   0.44463   0.00000  Uiso   1.00
N91    N     0.46375   0.30104   0.23302   0.00000  Uiso   1.00
N92    N     0.86093   0.09361   0.01955   0.00000  Uiso   1.00
C93    C     0.13507   0.56351   0.99493   0.00000  Uiso   1.00
C94    C     0.21431   0.58826   0.96324   0.00000  Uiso   1.00
C95    C     0.22987   0.55656   0.88102   0.00000  Uiso   1.00
C96    C     0.30616   0.58723   0.86477   0.00000  Uiso   1.00
C97    C     0.42030   0.61647   0.80589   0.00000  Uiso   1.00
C98    C     0.16039   0.53323   0.08038   0.00000  Uiso   1.00
C99    C     0.13061   0.45527   0.09664   0.00000  Uiso   1.00
C100   C     0.16149   0.43962   0.17900   0.00000  Uiso   1.00
C101   C     0.19188   0.38345   0.30200   0.00000  Uiso   1.00
C102   C     0.10439   0.64499   0.02159   0.00000  Uiso   1.00
C103   C     0.02752   0.66099   0.98845   0.00000  Uiso   1.00
C104   C     0.01126   0.73942   0.02133   0.00000  Uiso   1.00
C105   C     0.95471   0.85677   0.05305   0.00000  Uiso   1.00
C106   C     0.24286   0.67434   0.11228   0.00000  Uiso   1.00
C107   C     0.27286   0.64846   0.02699   0.00000  Uiso   1.00
C108   C     0.34914   0.67919   0.01086   0.00000  Uiso   1.00
C109   C     0.36481   0.64754   0.92863   0.00000  Uiso   1.00
C110   C     0.21893   0.59343   0.14412   0.00000  Uiso   1.00
C111   C     0.24987   0.57789   0.22648   0.00000  Uiso   1.00
C112   C     0.22015   0.49993   0.24286   0.00000  Uiso   1.00
C113   C     0.16294   0.70519   0.08533   0.00000  Uiso   1.00
C114   C     0.14679   0.78361   0.11828   0.00000  Uiso   1.00
C115   C     0.06992   0.79973   0.08519   0.00000  Uiso   1.00
H116   H     0.08949   0.51664   0.94531   0.00000  Uiso   1.00
H117   H     0.18455   0.50997   0.83171   0.00000  Uiso   1.00
H118   H     0.08529   0.40870   0.04730   0.00000  Uiso   1.00
H119   H     0.98223   0.61439   0.93912   0.00000  Uiso   1.00
H120   H     0.31578   0.52910   0.73390   0.00000  Uiso   1.00
H121   H     0.10646   0.31557   0.18849   0.00000  Uiso   1.00
H122   H     0.88914   0.74931   0.96037   0.00000  Uiso   1.00
H123   H     0.28845   0.72121   0.16191   0.00000  Uiso   1.00
H124   H     0.39443   0.72577   0.06020   0.00000  Uiso   1.00
H125   H     0.29517   0.62449   0.27579   0.00000  Uiso   1.00
H126   H     0.19211   0.83018   0.16761   0.00000  Uiso   1.00
H127   H     0.48613   0.70425   0.91934   0.00000  Uiso   1.00
H128   H     0.27681   0.49072   0.37394   0.00000  Uiso   1.00
H129   H     0.05949   0.92445   0.14581   0.00000  Uiso   1.00
O130   O     0.46709   0.61596   0.75581   0.00000  Uiso   1.00
O131   O     0.19247   0.33583   0.35222   0.00000  Uiso   1.00
O132   O     0.90734   0.90487   0.05293   0.00000  Uiso   1.00
N133   N     0.34132   0.56971   0.79149   0.00000  Uiso   1.00
N134   N     0.14563   0.37007   0.21650   0.00000  Uiso   1.00
N135   N     0.94244   0.77556   0.00325   0.00000  Uiso   1.00
N136   N     0.43298   0.66396   0.89128   0.00000  Uiso   1.00
N137   N     0.23729   0.46431   0.31629   0.00000  Uiso   1.00
N138   N     0.03411   0.86981   0.10303   0.00000  Uiso   1.00
C139   C     0.49343   0.06198   0.62390   0.00000  Uiso   1.00
C140   C     0.46345   0.08785   0.70920   0.00000  Uiso   1.00
C141   C     0.38719   0.05710   0.72534   0.00000  Uiso   1.00
C142   C     0.37152   0.08871   0.80758   0.00000  Uiso   1.00
C143   C     0.31607   0.11969   0.93036   0.00000  Uiso   1.00
C144   C     0.57336   0.03114   0.65085   0.00000  Uiso   1.00
C145   C     0.58951   0.95270   0.61791   0.00000  Uiso   1.00
C146   C     0.66638   0.93658   0.65103   0.00000  Uiso   1.00
C147   C     0.78159   0.87954   0.68316   0.00000  Uiso   1.00
C148   C     0.51736   0.14289   0.59206   0.00000  Uiso   1.00
C149   C     0.48645   0.15842   0.50970   0.00000  Uiso   1.00
C150   C     0.51618   0.23639   0.49331   0.00000  Uiso   1.00
C151   C     0.54445   0.35286   0.43418   0.00000  Uiso   1.00
C152   C     0.60123   0.17281   0.74125   0.00000  Uiso   1.00
C153   C     0.52200   0.14805   0.77294   0.00000  Uiso   1.00
C154   C     0.50645   0.17972   0.85518   0.00000  Uiso   1.00
C155   C     0.43017   0.14902   0.87144   0.00000  Uiso   1.00
C156   C     0.63191   0.09133   0.71458   0.00000  Uiso   1.00
C157   C     0.70877   0.07533   0.74775   0.00000  Uiso   1.00
C158   C     0.72503   0.99689   0.71488   0.00000  Uiso   1.00
C159   C     0.57591   0.20310   0.65580   0.00000  Uiso   1.00
C160   C     0.60571   0.28105   0.63954   0.00000  Uiso   1.00
C161   C     0.57484   0.29669   0.55717   0.00000  Uiso   1.00
H162   H     0.44786   0.01511   0.57427   0.00000  Uiso   1.00
H163   H     0.34189   0.01050   0.67600   0.00000  Uiso   1.00
H164   H     0.54419   0.90613   0.56858   0.00000  Uiso   1.00
H165   H     0.44114   0.11182   0.46039   0.00000  Uiso   1.00
H166   H     0.25025   0.03192   0.81691   0.00000  Uiso   1.00
H167   H     0.67681   0.81186   0.59039   0.00000  Uiso   1.00
H168   H     0.45951   0.24560   0.36224   0.00000  Uiso   1.00
H169   H     0.64682   0.21968   0.79087   0.00000  Uiso   1.00
H170   H     0.55177   0.22631   0.90449   0.00000  Uiso   1.00
H171   H     0.75407   0.12193   0.79707   0.00000  Uiso   1.00
H172   H     0.65102   0.32762   0.68888   0.00000  Uiso   1.00
H173   H     0.42059   0.20707   0.00236   0.00000  Uiso   1.00
H174   H     0.84716   0.98701   0.77583   0.00000  Uiso   1.00
H175   H     0.62986   0.42074   0.54769   0.00000  Uiso   1.00
O176   O     0.26932   0.12014   0.98048   0.00000  Uiso   1.00
O177   O     0.82896   0.83144   0.68328   0.00000  Uiso   1.00
O178   O     0.54386   0.40048   0.38396   0.00000  Uiso   1.00
N179   N     0.30338   0.07225   0.84495   0.00000  Uiso   1.00
N180   N     0.70219   0.86650   0.63318   0.00000  Uiso   1.00
N181   N     0.49904   0.27199   0.41987   0.00000  Uiso   1.00
N182   N     0.39504   0.16650   0.94474   0.00000  Uiso   1.00
N183   N     0.79385   0.96075   0.73297   0.00000  Uiso   1.00
N184   N     0.59071   0.36624   0.51966   0.00000  Uiso   1.00
C185   C     0.06474   0.63181   0.49494   0.00000  Uiso   1.00
C186   C     0.08893   0.71277   0.46327   0.00000  Uiso   1.00
C187   C     0.05796   0.72859   0.38106   0.00000  Uiso   1.00
C188   C     0.08793   0.80654   0.36482   0.00000  Uiso   1.00
C189   C     0.11650   0.92314   0.30597   0.00000  Uiso   1.00
C190   C     0.03502   0.65772   0.58040   0.00000  Uiso   1.00
C191   C     0.95873   0.62725   0.59668   0.00000  Uiso   1.00
C192   C     0.94333   0.65886   0.67905   0.00000  Uiso   1.00
C193   C     0.88824   0.68996   0.80207   0.00000  Uiso   1.00
C194   C     0.14449   0.60055   0.52157   0.00000  Uiso   1.00
C195   C     0.16023   0.52199   0.48840   0.00000  Uiso   1.00
C196   C     0.23698   0.50546   0.52126   0.00000  Uiso   1.00
C197   C     0.35185   0.44779   0.55293   0.00000  Uiso   1.00
C198   C     0.17304   0.74213   0.61229   0.00000  Uiso   1.00
C199   C     0.14775   0.77269   0.52701   0.00000  Uiso   1.00
C200   C     0.17778   0.85064   0.51090   0.00000  Uiso   1.00
C201   C     0.14686   0.86657   0.42868   0.00000  Uiso   1.00
C202   C     0.09384   0.71764   0.64414   0.00000  Uiso   1.00
C203   C     0.07855   0.74930   0.72651   0.00000  Uiso   1.00
C204   C     0.00226   0.71889   0.74291   0.00000  Uiso   1.00
C205   C     0.20331   0.66047   0.58531   0.00000  Uiso   1.00
C206   C     0.28005   0.64405   0.61823   0.00000  Uiso   1.00
C207   C     0.29591   0.56549   0.58511   0.00000  Uiso   1.00
H208   H     0.01894   0.58516   0.44532   0.00000  Uiso   1.00
H209   H     0.01243   0.68220   0.33175   0.00000  Uiso   1.00
H210   H     0.91322   0.58087   0.54734   0.00000  Uiso   1.00
H211   H     0.11469   0.47564   0.43907   0.00000  Uiso   1.00
H212   H     0.03113   0.81622   0.23396   0.00000  Uiso   1.00
H213   H     0.82196   0.60255   0.68856   0.00000  Uiso   1.00
H214   H     0.24679   0.38064   0.46026   0.00000  Uiso   1.00
H215   H     0.21884   0.78878   0.66192   0.00000  Uiso   1.00
H216   H     0.22330   0.89699   0.56024   0.00000  Uiso   1.00
H217   H     0.12409   0.79566   0.77583   0.00000  Uiso   1.00
H218   H     0.32556   0.69043   0.66756   0.00000  Uiso   1.00
H219   H     0.20227   0.99056   0.41941   0.00000  Uiso   1.00
H220   H     0.99310   0.77687   0.87401   0.00000  Uiso   1.00
H221   H     0.41794   0.55497   0.64570   0.00000  Uiso   1.00
O222   O     0.11601   0.97091   0.25590   0.00000  Uiso   1.00
O223   O     0.84159   0.69056   0.85231   0.00000  Uiso   1.00
O224   O     0.39896   0.39943   0.55278   0.00000  Uiso   1.00
N225   N     0.07081   0.84239   0.29156   0.00000  Uiso   1.00
N226   N     0.87524   0.64263   0.71657   0.00000  Uiso   1.00
N227   N     0.27242   0.43516   0.50314   0.00000  Uiso   1.00
N228   N     0.16290   0.93620   0.39135   0.00000  Uiso   1.00
N229   N     0.96733   0.73644   0.81636   0.00000  Uiso   1.00
N230   N     0.36451   0.52897   0.60293   0.00000  Uiso   1.00
C231   C     0.63436   0.49496   0.05936   0.00000  Uiso   1.00
C232   C     0.71415   0.46385   0.08627   0.00000  Uiso   1.00
C233   C     0.73017   0.38544   0.05304   0.00000  Uiso   1.00
C234   C     0.80692   0.36905   0.08615   0.00000  Uiso   1.00
C235   C     0.92191   0.31165   0.11816   0.00000  Uiso   1.00
C236   C     0.65859   0.57607   0.02797   0.00000  Uiso   1.00
C237   C     0.62789   0.59201   0.94574   0.00000  Uiso   1.00
C238   C     0.65786   0.67009   0.92979   0.00000  Uiso   1.00
C239   C     0.68655   0.78692   0.87132   0.00000  Uiso   1.00
C240   C     0.60423   0.52057   0.14462   0.00000  Uiso   1.00
C241   C     0.52782   0.48988   0.16046   0.00000  Uiso   1.00
C242   C     0.51202   0.52125   0.24271   0.00000  Uiso   1.00
C243   C     0.45631   0.55192   0.36534   0.00000  Uiso   1.00
C244   C     0.74216   0.60529   0.17725   0.00000  Uiso   1.00
C245   C     0.77270   0.52378   0.15030   0.00000  Uiso   1.00
C246   C     0.84944   0.50750   0.18347   0.00000  Uiso   1.00
C247   C     0.86557   0.42908   0.15030   0.00000  Uiso   1.00
C248   C     0.71714   0.63599   0.09200   0.00000  Uiso   1.00
C249   C     0.74716   0.71407   0.07617   0.00000  Uiso   1.00
C250   C     0.71652   0.73012   0.99393   0.00000  Uiso   1.00
C251   C     0.66279   0.58050   0.20865   0.00000  Uiso   1.00
C252   C     0.64709   0.61193   0.29089   0.00000  Uiso   1.00
C253   C     0.57068   0.58128   0.30685   0.00000  Uiso   1.00
H254   H     0.58878   0.44832   0.00951   0.00000  Uiso   1.00
H255   H     0.68485   0.33909   0.00348   0.00000  Uiso   1.00
H256   H     0.58257   0.54563   0.89621   0.00000  Uiso   1.00
H257   H     0.48253   0.44351   0.11089   0.00000  Uiso   1.00
H258   H     0.81719   0.24443   0.02502   0.00000  Uiso   1.00
H259   H     0.60152   0.67994   0.79883   0.00000  Uiso   1.00
H260   H     0.39055   0.46459   0.25153   0.00000  Uiso   1.00
H261   H     0.78775   0.65194   0.22710   0.00000  Uiso   1.00
H262   H     0.89474   0.55389   0.23302   0.00000  Uiso   1.00
H263   H     0.79247   0.76043   0.12574   0.00000  Uiso   1.00
H264   H     0.69242   0.65830   0.34042   0.00000  Uiso   1.00
H265   H     0.98754   0.41877   0.21132   0.00000  Uiso   1.00
H266   H     0.77187   0.85428   0.98513   0.00000  Uiso   1.00
H267   H     0.56091   0.63893   0.43783   0.00000  Uiso   1.00
O268   O     0.96917   0.26343   0.11811   0.00000  Uiso   1.00
O269   O     0.68620   0.83481   0.82137   0.00000  Uiso   1.00
O270   O     0.40942   0.55227   0.41531   0.00000  Uiso   1.00
N271   N     0.84259   0.29891   0.06806   0.00000  Uiso   1.00
N272   N     0.64097   0.70608   0.85658   0.00000  Uiso   1.00
N273   N     0.44372   0.50477   0.27982   0.00000  Uiso   1.00
N274   N     0.93426   0.39272   0.16831   0.00000  Uiso   1.00
N275   N     0.73263   0.79989   0.95683   0.00000  Uiso   1.00
N276   N     0.53538   0.59857   0.38006   0.00000  Uiso   1.00
