data_job_02432
_audit_creation_date              2018-12-19
_audit_creation_method            'Materials Studio'
_symmetry_space_group_name_H-M    'P1'
_symmetry_Int_Tables_number       1
_symmetry_cell_setting            triclinic
loop_
_symmetry_equiv_pos_as_xyz
  x,y,z
_cell_length_a                    18.8884
_cell_length_b                    18.8884
_cell_length_c                    13.7312
_cell_angle_alpha                 90.0000
_cell_angle_beta                  90.0000
_cell_angle_gamma                 90.0000
loop_
_atom_site_label
_atom_site_type_symbol
_atom_site_fract_x
_atom_site_fract_y
_atom_site_fract_z
_atom_site_U_iso_or_equiv
_atom_site_adp_type
_atom_site_occupancy
C1     C     0.93213   0.63944   0.93906   0.00000  Uiso   1.00
C2     C     0.95809   0.68533   0.02317   0.00000  Uiso   1.00
C3     C     0.93296   0.68309   0.11808   0.00000  Uiso   1.00
C4     C     0.96361   0.72938   0.18435   0.00000  Uiso   1.00
C5     C     0.99571   0.79354   0.31916   0.00000  Uiso   1.00
C6     C     0.90887   0.69060   0.85933   0.00000  Uiso   1.00
C7     C     0.84236   0.69279   0.81649   0.00000  Uiso   1.00
C8     C     0.83158   0.74352   0.74483   0.00000  Uiso   1.00
C9     C     0.78727   0.81583   0.62523   0.00000  Uiso   1.00
C10    C     0.99736   0.60146   0.89965   0.00000  Uiso   1.00
C11    C     0.00524   0.52870   0.89069   0.00000  Uiso   1.00
C12    C     0.06895   0.50437   0.85296   0.00000  Uiso   1.00
C13    C     0.16204   0.43827   0.79597   0.00000  Uiso   1.00
C14    C     0.03126   0.72562   0.88795   0.00000  Uiso   1.00
C15    C     0.01193   0.73214   0.99540   0.00000  Uiso   1.00
C16    C     0.04263   0.77844   0.06154   0.00000  Uiso   1.00
C17    C     0.01755   0.77628   0.15655   0.00000  Uiso   1.00
C18    C     0.96271   0.73741   0.83157   0.00000  Uiso   1.00
C19    C     0.95202   0.78814   0.75995   0.00000  Uiso   1.00
C20    C     0.88551   0.79041   0.71702   0.00000  Uiso   1.00
C21    C     0.05120   0.64827   0.87190   0.00000  Uiso   1.00
C22    C     0.11491   0.62405   0.83416   0.00000  Uiso   1.00
C23    C     0.12289   0.55127   0.82515   0.00000  Uiso   1.00
H24    H     0.89022   0.60300   0.96066   0.00000  Uiso   1.00
H25    H     0.89129   0.64686   0.13954   0.00000  Uiso   1.00
H26    H     0.80071   0.65656   0.83798   0.00000  Uiso   1.00
H27    H     0.96357   0.49249   0.91218   0.00000  Uiso   1.00
H28    H     0.91621   0.71616   0.32560   0.00000  Uiso   1.00
H29    H     0.72521   0.73658   0.68973   0.00000  Uiso   1.00
H30    H     0.06863   0.39061   0.84619   0.00000  Uiso   1.00
H31    H     0.07317   0.76207   0.86634   0.00000  Uiso   1.00
H32    H     0.08429   0.81466   0.04004   0.00000  Uiso   1.00
H33    H     0.99370   0.82435   0.73848   0.00000  Uiso   1.00
H34    H     0.15656   0.66029   0.81268   0.00000  Uiso   1.00
H35    H     0.07285   0.85235   0.24485   0.00000  Uiso   1.00
H36    H     0.88185   0.87277   0.60897   0.00000  Uiso   1.00
H37    H     0.22528   0.52680   0.76544   0.00000  Uiso   1.00
O38    O     0.99853   0.81600   0.40118   0.00000  Uiso   1.00
O39    O     0.74795   0.84278   0.56694   0.00000  Uiso   1.00
O40    O     0.19851   0.38888   0.77222   0.00000  Uiso   1.00
N41    N     0.95156   0.74098   0.28276   0.00000  Uiso   1.00
N42    N     0.77298   0.76008   0.68827   0.00000  Uiso   1.00
N43    N     0.09405   0.43663   0.83453   0.00000  Uiso   1.00
N44    N     0.03585   0.81427   0.23931   0.00000  Uiso   1.00
N45    N     0.85727   0.83337   0.64482   0.00000  Uiso   1.00
N46    N     0.17834   0.50992   0.79107   0.00000  Uiso   1.00
C47    C     0.06787   0.36056   0.43906   0.00000  Uiso   1.00
C48    C     0.04191   0.31467   0.52317   0.00000  Uiso   1.00
C49    C     0.06704   0.31691   0.61808   0.00000  Uiso   1.00
C50    C     0.03639   0.27062   0.68435   0.00000  Uiso   1.00
C51    C     0.00429   0.20646   0.81916   0.00000  Uiso   1.00
C52    C     0.09113   0.30940   0.35933   0.00000  Uiso   1.00
C53    C     0.15764   0.30721   0.31649   0.00000  Uiso   1.00
C54    C     0.16842   0.25648   0.24483   0.00000  Uiso   1.00
C55    C     0.21273   0.18417   0.12523   0.00000  Uiso   1.00
C56    C     0.00264   0.39854   0.39965   0.00000  Uiso   1.00
C57    C     0.99476   0.47130   0.39069   0.00000  Uiso   1.00
C58    C     0.93105   0.49563   0.35296   0.00000  Uiso   1.00
C59    C     0.83796   0.56173   0.29597   0.00000  Uiso   1.00
C60    C     0.96874   0.27438   0.38795   0.00000  Uiso   1.00
C61    C     0.98807   0.26786   0.49540   0.00000  Uiso   1.00
C62    C     0.95737   0.22156   0.56154   0.00000  Uiso   1.00
C63    C     0.98245   0.22372   0.65655   0.00000  Uiso   1.00
C64    C     0.03729   0.26259   0.33157   0.00000  Uiso   1.00
C65    C     0.04798   0.21186   0.25995   0.00000  Uiso   1.00
C66    C     0.11449   0.20959   0.21702   0.00000  Uiso   1.00
C67    C     0.94880   0.35173   0.37190   0.00000  Uiso   1.00
C68    C     0.88509   0.37595   0.33416   0.00000  Uiso   1.00
C69    C     0.87711   0.44873   0.32515   0.00000  Uiso   1.00
H70    H     0.10978   0.39700   0.46066   0.00000  Uiso   1.00
H71    H     0.10871   0.35314   0.63954   0.00000  Uiso   1.00
H72    H     0.19929   0.34344   0.33798   0.00000  Uiso   1.00
H73    H     0.03643   0.50751   0.41218   0.00000  Uiso   1.00
H74    H     0.08379   0.28384   0.82560   0.00000  Uiso   1.00
H75    H     0.27479   0.26342   0.18973   0.00000  Uiso   1.00
H76    H     0.93137   0.60939   0.34619   0.00000  Uiso   1.00
H77    H     0.92683   0.23793   0.36634   0.00000  Uiso   1.00
H78    H     0.91571   0.18534   0.54004   0.00000  Uiso   1.00
H79    H     0.00630   0.17565   0.23848   0.00000  Uiso   1.00
H80    H     0.84344   0.33971   0.31268   0.00000  Uiso   1.00
H81    H     0.92715   0.14765   0.74485   0.00000  Uiso   1.00
H82    H     0.11815   0.12723   0.10897   0.00000  Uiso   1.00
H83    H     0.77472   0.47320   0.26544   0.00000  Uiso   1.00
O84    O     0.00147   0.18400   0.90118   0.00000  Uiso   1.00
O85    O     0.25205   0.15722   0.06694   0.00000  Uiso   1.00
O86    O     0.80149   0.61112   0.27222   0.00000  Uiso   1.00
N87    N     0.04844   0.25902   0.78276   0.00000  Uiso   1.00
N88    N     0.22702   0.23992   0.18827   0.00000  Uiso   1.00
N89    N     0.90595   0.56337   0.33453   0.00000  Uiso   1.00
N90    N     0.96415   0.18573   0.73931   0.00000  Uiso   1.00
N91    N     0.14273   0.16663   0.14482   0.00000  Uiso   1.00
N92    N     0.82166   0.49008   0.29107   0.00000  Uiso   1.00
C93    C     0.86056   0.43213   0.68906   0.00000  Uiso   1.00
C94    C     0.81467   0.45809   0.77317   0.00000  Uiso   1.00
C95    C     0.81691   0.43296   0.86808   0.00000  Uiso   1.00
C96    C     0.77062   0.46361   0.93435   0.00000  Uiso   1.00
C97    C     0.70646   0.49571   0.06916   0.00000  Uiso   1.00
C98    C     0.80940   0.40887   0.60933   0.00000  Uiso   1.00
C99    C     0.80721   0.34236   0.56649   0.00000  Uiso   1.00
C100   C     0.75648   0.33158   0.49483   0.00000  Uiso   1.00
C101   C     0.68417   0.28727   0.37523   0.00000  Uiso   1.00
C102   C     0.89854   0.49736   0.64965   0.00000  Uiso   1.00
C103   C     0.97130   0.50524   0.64069   0.00000  Uiso   1.00
C104   C     0.99563   0.56895   0.60296   0.00000  Uiso   1.00
C105   C     0.06173   0.66204   0.54597   0.00000  Uiso   1.00
C106   C     0.77438   0.53126   0.63795   0.00000  Uiso   1.00
C107   C     0.76786   0.51193   0.74540   0.00000  Uiso   1.00
C108   C     0.72156   0.54263   0.81154   0.00000  Uiso   1.00
C109   C     0.72372   0.51755   0.90655   0.00000  Uiso   1.00
C110   C     0.76259   0.46271   0.58157   0.00000  Uiso   1.00
C111   C     0.71186   0.45202   0.50995   0.00000  Uiso   1.00
C112   C     0.70959   0.38551   0.46702   0.00000  Uiso   1.00
C113   C     0.85173   0.55120   0.62190   0.00000  Uiso   1.00
C114   C     0.87595   0.61491   0.58416   0.00000  Uiso   1.00
C115   C     0.94873   0.62289   0.57515   0.00000  Uiso   1.00
H116   H     0.89700   0.39022   0.71066   0.00000  Uiso   1.00
H117   H     0.85314   0.39129   0.88954   0.00000  Uiso   1.00
H118   H     0.84344   0.30071   0.58798   0.00000  Uiso   1.00
H119   H     0.00751   0.46357   0.66218   0.00000  Uiso   1.00
H120   H     0.78384   0.41621   0.07560   0.00000  Uiso   1.00
H121   H     0.76342   0.22521   0.43973   0.00000  Uiso   1.00
H122   H     0.10939   0.56863   0.59619   0.00000  Uiso   1.00
H123   H     0.73793   0.57317   0.61634   0.00000  Uiso   1.00
H124   H     0.68534   0.58429   0.79004   0.00000  Uiso   1.00
H125   H     0.67565   0.49370   0.48848   0.00000  Uiso   1.00
H126   H     0.83971   0.65656   0.56268   0.00000  Uiso   1.00
H127   H     0.64765   0.57285   0.99485   0.00000  Uiso   1.00
H128   H     0.62723   0.38185   0.35897   0.00000  Uiso   1.00
H129   H     0.97320   0.72528   0.51544   0.00000  Uiso   1.00
O130   O     0.68400   0.49853   0.15118   0.00000  Uiso   1.00
O131   O     0.65722   0.24795   0.31694   0.00000  Uiso   1.00
O132   O     0.11112   0.69851   0.52222   0.00000  Uiso   1.00
N133   N     0.75902   0.45156   0.03276   0.00000  Uiso   1.00
N134   N     0.73992   0.27298   0.43827   0.00000  Uiso   1.00
N135   N     0.06337   0.59405   0.58453   0.00000  Uiso   1.00
N136   N     0.68573   0.53585   0.98931   0.00000  Uiso   1.00
N137   N     0.66663   0.35727   0.39482   0.00000  Uiso   1.00
N138   N     0.99008   0.67834   0.54107   0.00000  Uiso   1.00
C139   C     0.13944   0.56787   0.18906   0.00000  Uiso   1.00
C140   C     0.18533   0.54191   0.27317   0.00000  Uiso   1.00
C141   C     0.18309   0.56704   0.36808   0.00000  Uiso   1.00
C142   C     0.22938   0.53639   0.43435   0.00000  Uiso   1.00
C143   C     0.29354   0.50429   0.56916   0.00000  Uiso   1.00
C144   C     0.19060   0.59113   0.10933   0.00000  Uiso   1.00
C145   C     0.19279   0.65764   0.06649   0.00000  Uiso   1.00
C146   C     0.24352   0.66842   0.99483   0.00000  Uiso   1.00
C147   C     0.31583   0.71273   0.87523   0.00000  Uiso   1.00
C148   C     0.10146   0.50264   0.14965   0.00000  Uiso   1.00
C149   C     0.02870   0.49476   0.14069   0.00000  Uiso   1.00
C150   C     0.00437   0.43105   0.10296   0.00000  Uiso   1.00
C151   C     0.93827   0.33796   0.04597   0.00000  Uiso   1.00
C152   C     0.22562   0.46874   0.13795   0.00000  Uiso   1.00
C153   C     0.23214   0.48807   0.24540   0.00000  Uiso   1.00
C154   C     0.27844   0.45737   0.31154   0.00000  Uiso   1.00
C155   C     0.27628   0.48245   0.40655   0.00000  Uiso   1.00
C156   C     0.23741   0.53729   0.08157   0.00000  Uiso   1.00
C157   C     0.28814   0.54798   0.00995   0.00000  Uiso   1.00
C158   C     0.29041   0.61449   0.96702   0.00000  Uiso   1.00
C159   C     0.14827   0.44880   0.12190   0.00000  Uiso   1.00
C160   C     0.12405   0.38509   0.08416   0.00000  Uiso   1.00
C161   C     0.05127   0.37711   0.07515   0.00000  Uiso   1.00
H162   H     0.10300   0.60978   0.21066   0.00000  Uiso   1.00
H163   H     0.14686   0.60871   0.38954   0.00000  Uiso   1.00
H164   H     0.15656   0.69929   0.08798   0.00000  Uiso   1.00
H165   H     0.99249   0.53643   0.16218   0.00000  Uiso   1.00
H166   H     0.21616   0.58379   0.57560   0.00000  Uiso   1.00
H167   H     0.23658   0.77479   0.93973   0.00000  Uiso   1.00
H168   H     0.89061   0.43137   0.09619   0.00000  Uiso   1.00
H169   H     0.26207   0.42683   0.11634   0.00000  Uiso   1.00
H170   H     0.31466   0.41571   0.29004   0.00000  Uiso   1.00
H171   H     0.32435   0.50630   0.98848   0.00000  Uiso   1.00
H172   H     0.16029   0.34344   0.06268   0.00000  Uiso   1.00
H173   H     0.35235   0.42715   0.49485   0.00000  Uiso   1.00
H174   H     0.37277   0.61815   0.85897   0.00000  Uiso   1.00
H175   H     0.02680   0.27472   0.01544   0.00000  Uiso   1.00
O176   O     0.31600   0.50147   0.65118   0.00000  Uiso   1.00
O177   O     0.34278   0.75205   0.81694   0.00000  Uiso   1.00
O178   O     0.88888   0.30149   0.02222   0.00000  Uiso   1.00
N179   N     0.24098   0.54844   0.53276   0.00000  Uiso   1.00
N180   N     0.26008   0.72702   0.93827   0.00000  Uiso   1.00
N181   N     0.93663   0.40595   0.08453   0.00000  Uiso   1.00
N182   N     0.31427   0.46415   0.48931   0.00000  Uiso   1.00
N183   N     0.33337   0.64273   0.89482   0.00000  Uiso   1.00
N184   N     0.00992   0.32166   0.04107   0.00000  Uiso   1.00
C185   C     0.56787   0.13944   0.81094   0.00000  Uiso   1.00
C186   C     0.54191   0.18533   0.72683   0.00000  Uiso   1.00
C187   C     0.56704   0.18309   0.63192   0.00000  Uiso   1.00
C188   C     0.53639   0.22938   0.56565   0.00000  Uiso   1.00
C189   C     0.50429   0.29354   0.43084   0.00000  Uiso   1.00
C190   C     0.59113   0.19060   0.89067   0.00000  Uiso   1.00
C191   C     0.65764   0.19279   0.93351   0.00000  Uiso   1.00
C192   C     0.66842   0.24352   0.00517   0.00000  Uiso   1.00
C193   C     0.71273   0.31583   0.12477   0.00000  Uiso   1.00
C194   C     0.50264   0.10146   0.85035   0.00000  Uiso   1.00
C195   C     0.49476   0.02870   0.85931   0.00000  Uiso   1.00
C196   C     0.43105   0.00437   0.89704   0.00000  Uiso   1.00
C197   C     0.33796   0.93827   0.95403   0.00000  Uiso   1.00
C198   C     0.46874   0.22562   0.86205   0.00000  Uiso   1.00
C199   C     0.48807   0.23214   0.75460   0.00000  Uiso   1.00
C200   C     0.45737   0.27844   0.68846   0.00000  Uiso   1.00
C201   C     0.48245   0.27628   0.59345   0.00000  Uiso   1.00
C202   C     0.53729   0.23741   0.91843   0.00000  Uiso   1.00
C203   C     0.54798   0.28814   0.99005   0.00000  Uiso   1.00
C204   C     0.61449   0.29041   0.03298   0.00000  Uiso   1.00
C205   C     0.44880   0.14827   0.87810   0.00000  Uiso   1.00
C206   C     0.38509   0.12405   0.91584   0.00000  Uiso   1.00
C207   C     0.37711   0.05127   0.92485   0.00000  Uiso   1.00
H208   H     0.60978   0.10300   0.78934   0.00000  Uiso   1.00
H209   H     0.60871   0.14686   0.61046   0.00000  Uiso   1.00
H210   H     0.69929   0.15656   0.91202   0.00000  Uiso   1.00
H211   H     0.53643   0.99249   0.83782   0.00000  Uiso   1.00
H212   H     0.58379   0.21616   0.42440   0.00000  Uiso   1.00
H213   H     0.77479   0.23658   0.06027   0.00000  Uiso   1.00
H214   H     0.43137   0.89061   0.90381   0.00000  Uiso   1.00
H215   H     0.42683   0.26207   0.88366   0.00000  Uiso   1.00
H216   H     0.41571   0.31466   0.70996   0.00000  Uiso   1.00
H217   H     0.50630   0.32435   0.01152   0.00000  Uiso   1.00
H218   H     0.34344   0.16029   0.93732   0.00000  Uiso   1.00
H219   H     0.42715   0.35235   0.50515   0.00000  Uiso   1.00
H220   H     0.61815   0.37277   0.14103   0.00000  Uiso   1.00
H221   H     0.27472   0.02680   0.98456   0.00000  Uiso   1.00
O222   O     0.50147   0.31600   0.34882   0.00000  Uiso   1.00
O223   O     0.75205   0.34278   0.18306   0.00000  Uiso   1.00
O224   O     0.30149   0.88888   0.97778   0.00000  Uiso   1.00
N225   N     0.54844   0.24098   0.46724   0.00000  Uiso   1.00
N226   N     0.72702   0.26008   0.06173   0.00000  Uiso   1.00
N227   N     0.40595   0.93663   0.91547   0.00000  Uiso   1.00
N228   N     0.46415   0.31427   0.51069   0.00000  Uiso   1.00
N229   N     0.64273   0.33337   0.10518   0.00000  Uiso   1.00
N230   N     0.32166   0.00992   0.95893   0.00000  Uiso   1.00
C231   C     0.43213   0.86056   0.31094   0.00000  Uiso   1.00
C232   C     0.45809   0.81467   0.22683   0.00000  Uiso   1.00
C233   C     0.43296   0.81691   0.13192   0.00000  Uiso   1.00
C234   C     0.46361   0.77062   0.06565   0.00000  Uiso   1.00
C235   C     0.49571   0.70646   0.93084   0.00000  Uiso   1.00
C236   C     0.40887   0.80940   0.39067   0.00000  Uiso   1.00
C237   C     0.34236   0.80721   0.43351   0.00000  Uiso   1.00
C238   C     0.33158   0.75648   0.50517   0.00000  Uiso   1.00
C239   C     0.28727   0.68417   0.62477   0.00000  Uiso   1.00
C240   C     0.49736   0.89854   0.35035   0.00000  Uiso   1.00
C241   C     0.50524   0.97130   0.35931   0.00000  Uiso   1.00
C242   C     0.56895   0.99563   0.39704   0.00000  Uiso   1.00
C243   C     0.66204   0.06173   0.45403   0.00000  Uiso   1.00
C244   C     0.53126   0.77438   0.36205   0.00000  Uiso   1.00
C245   C     0.51193   0.76786   0.25460   0.00000  Uiso   1.00
C246   C     0.54263   0.72156   0.18846   0.00000  Uiso   1.00
C247   C     0.51755   0.72372   0.09345   0.00000  Uiso   1.00
C248   C     0.46271   0.76259   0.41843   0.00000  Uiso   1.00
C249   C     0.45202   0.71186   0.49005   0.00000  Uiso   1.00
C250   C     0.38551   0.70959   0.53298   0.00000  Uiso   1.00
C251   C     0.55120   0.85173   0.37810   0.00000  Uiso   1.00
C252   C     0.61491   0.87595   0.41584   0.00000  Uiso   1.00
C253   C     0.62289   0.94873   0.42485   0.00000  Uiso   1.00
H254   H     0.39022   0.89700   0.28934   0.00000  Uiso   1.00
H255   H     0.39129   0.85314   0.11046   0.00000  Uiso   1.00
H256   H     0.30071   0.84344   0.41202   0.00000  Uiso   1.00
H257   H     0.46357   0.00751   0.33782   0.00000  Uiso   1.00
H258   H     0.41621   0.78384   0.92440   0.00000  Uiso   1.00
H259   H     0.22521   0.76342   0.56027   0.00000  Uiso   1.00
H260   H     0.56863   0.10939   0.40381   0.00000  Uiso   1.00
H261   H     0.57317   0.73793   0.38366   0.00000  Uiso   1.00
H262   H     0.58429   0.68534   0.20996   0.00000  Uiso   1.00
H263   H     0.49370   0.67565   0.51152   0.00000  Uiso   1.00
H264   H     0.65656   0.83971   0.43732   0.00000  Uiso   1.00
H265   H     0.57285   0.64765   0.00515   0.00000  Uiso   1.00
H266   H     0.38185   0.62723   0.64103   0.00000  Uiso   1.00
H267   H     0.72528   0.97320   0.48456   0.00000  Uiso   1.00
O268   O     0.49853   0.68400   0.84882   0.00000  Uiso   1.00
O269   O     0.24795   0.65722   0.68306   0.00000  Uiso   1.00
O270   O     0.69851   0.11112   0.47778   0.00000  Uiso   1.00
N271   N     0.45156   0.75902   0.96724   0.00000  Uiso   1.00
N272   N     0.27298   0.73992   0.56173   0.00000  Uiso   1.00
N273   N     0.59405   0.06337   0.41547   0.00000  Uiso   1.00
N274   N     0.53585   0.68573   0.01069   0.00000  Uiso   1.00
N275   N     0.35727   0.66663   0.60518   0.00000  Uiso   1.00
N276   N     0.67834   0.99008   0.45893   0.00000  Uiso   1.00
C277   C     0.63944   0.93213   0.06094   0.00000  Uiso   1.00
C278   C     0.68533   0.95809   0.97683   0.00000  Uiso   1.00
C279   C     0.68309   0.93296   0.88192   0.00000  Uiso   1.00
C280   C     0.72938   0.96361   0.81565   0.00000  Uiso   1.00
C281   C     0.79354   0.99571   0.68084   0.00000  Uiso   1.00
C282   C     0.69060   0.90887   0.14067   0.00000  Uiso   1.00
C283   C     0.69279   0.84236   0.18351   0.00000  Uiso   1.00
C284   C     0.74352   0.83158   0.25517   0.00000  Uiso   1.00
C285   C     0.81583   0.78727   0.37477   0.00000  Uiso   1.00
C286   C     0.60146   0.99736   0.10035   0.00000  Uiso   1.00
C287   C     0.52870   0.00524   0.10931   0.00000  Uiso   1.00
C288   C     0.50437   0.06895   0.14704   0.00000  Uiso   1.00
C289   C     0.43827   0.16204   0.20403   0.00000  Uiso   1.00
C290   C     0.72562   0.03126   0.11205   0.00000  Uiso   1.00
C291   C     0.73214   0.01193   0.00460   0.00000  Uiso   1.00
C292   C     0.77844   0.04263   0.93846   0.00000  Uiso   1.00
C293   C     0.77628   0.01755   0.84345   0.00000  Uiso   1.00
C294   C     0.73741   0.96271   0.16843   0.00000  Uiso   1.00
C295   C     0.78814   0.95202   0.24005   0.00000  Uiso   1.00
C296   C     0.79041   0.88551   0.28298   0.00000  Uiso   1.00
C297   C     0.64827   0.05120   0.12810   0.00000  Uiso   1.00
C298   C     0.62405   0.11491   0.16584   0.00000  Uiso   1.00
C299   C     0.55127   0.12289   0.17485   0.00000  Uiso   1.00
H300   H     0.60300   0.89022   0.03934   0.00000  Uiso   1.00
H301   H     0.64686   0.89129   0.86046   0.00000  Uiso   1.00
H302   H     0.65656   0.80071   0.16202   0.00000  Uiso   1.00
H303   H     0.49249   0.96357   0.08782   0.00000  Uiso   1.00
H304   H     0.71616   0.91621   0.67440   0.00000  Uiso   1.00
H305   H     0.73658   0.72521   0.31027   0.00000  Uiso   1.00
H306   H     0.39061   0.06863   0.15381   0.00000  Uiso   1.00
H307   H     0.76207   0.07317   0.13366   0.00000  Uiso   1.00
H308   H     0.81466   0.08429   0.95996   0.00000  Uiso   1.00
H309   H     0.82435   0.99370   0.26152   0.00000  Uiso   1.00
H310   H     0.66029   0.15656   0.18732   0.00000  Uiso   1.00
H311   H     0.85235   0.07285   0.75515   0.00000  Uiso   1.00
H312   H     0.87277   0.88185   0.39103   0.00000  Uiso   1.00
H313   H     0.52680   0.22528   0.23456   0.00000  Uiso   1.00
O314   O     0.81600   0.99853   0.59882   0.00000  Uiso   1.00
O315   O     0.84278   0.74795   0.43306   0.00000  Uiso   1.00
O316   O     0.38888   0.19851   0.22778   0.00000  Uiso   1.00
N317   N     0.74098   0.95156   0.71724   0.00000  Uiso   1.00
N318   N     0.76008   0.77298   0.31173   0.00000  Uiso   1.00
N319   N     0.43663   0.09405   0.16547   0.00000  Uiso   1.00
N320   N     0.81427   0.03585   0.76069   0.00000  Uiso   1.00
N321   N     0.83337   0.85727   0.35518   0.00000  Uiso   1.00
N322   N     0.50992   0.17834   0.20893   0.00000  Uiso   1.00
C323   C     0.36056   0.06787   0.56094   0.00000  Uiso   1.00
C324   C     0.31467   0.04191   0.47683   0.00000  Uiso   1.00
C325   C     0.31691   0.06704   0.38192   0.00000  Uiso   1.00
C326   C     0.27062   0.03639   0.31565   0.00000  Uiso   1.00
C327   C     0.20646   0.00429   0.18084   0.00000  Uiso   1.00
C328   C     0.30940   0.09113   0.64067   0.00000  Uiso   1.00
C329   C     0.30721   0.15764   0.68351   0.00000  Uiso   1.00
C330   C     0.25648   0.16842   0.75517   0.00000  Uiso   1.00
C331   C     0.18417   0.21273   0.87477   0.00000  Uiso   1.00
C332   C     0.39854   0.00264   0.60035   0.00000  Uiso   1.00
C333   C     0.47130   0.99476   0.60931   0.00000  Uiso   1.00
C334   C     0.49563   0.93105   0.64704   0.00000  Uiso   1.00
C335   C     0.56173   0.83796   0.70403   0.00000  Uiso   1.00
C336   C     0.27438   0.96874   0.61205   0.00000  Uiso   1.00
C337   C     0.26786   0.98807   0.50460   0.00000  Uiso   1.00
C338   C     0.22156   0.95737   0.43846   0.00000  Uiso   1.00
C339   C     0.22372   0.98245   0.34345   0.00000  Uiso   1.00
C340   C     0.26259   0.03729   0.66843   0.00000  Uiso   1.00
C341   C     0.21186   0.04798   0.74005   0.00000  Uiso   1.00
C342   C     0.20959   0.11449   0.78298   0.00000  Uiso   1.00
C343   C     0.35173   0.94880   0.62810   0.00000  Uiso   1.00
C344   C     0.37595   0.88509   0.66584   0.00000  Uiso   1.00
C345   C     0.44873   0.87711   0.67485   0.00000  Uiso   1.00
H346   H     0.39700   0.10978   0.53934   0.00000  Uiso   1.00
H347   H     0.35314   0.10871   0.36046   0.00000  Uiso   1.00
H348   H     0.34344   0.19929   0.66202   0.00000  Uiso   1.00
H349   H     0.50751   0.03643   0.58782   0.00000  Uiso   1.00
H350   H     0.28384   0.08379   0.17440   0.00000  Uiso   1.00
H351   H     0.26342   0.27479   0.81027   0.00000  Uiso   1.00
H352   H     0.60939   0.93137   0.65381   0.00000  Uiso   1.00
H353   H     0.23793   0.92683   0.63366   0.00000  Uiso   1.00
H354   H     0.18534   0.91571   0.45996   0.00000  Uiso   1.00
H355   H     0.17565   0.00630   0.76152   0.00000  Uiso   1.00
H356   H     0.33971   0.84344   0.68732   0.00000  Uiso   1.00
H357   H     0.14765   0.92715   0.25515   0.00000  Uiso   1.00
H358   H     0.12723   0.11815   0.89103   0.00000  Uiso   1.00
H359   H     0.47320   0.77472   0.73456   0.00000  Uiso   1.00
O360   O     0.18400   0.00147   0.09882   0.00000  Uiso   1.00
O361   O     0.15722   0.25205   0.93306   0.00000  Uiso   1.00
O362   O     0.61112   0.80149   0.72778   0.00000  Uiso   1.00
N363   N     0.25902   0.04844   0.21724   0.00000  Uiso   1.00
N364   N     0.23992   0.22702   0.81173   0.00000  Uiso   1.00
N365   N     0.56337   0.90595   0.66547   0.00000  Uiso   1.00
N366   N     0.18573   0.96415   0.26069   0.00000  Uiso   1.00
N367   N     0.16663   0.14273   0.85518   0.00000  Uiso   1.00
N368   N     0.49008   0.82166   0.70893   0.00000  Uiso   1.00
