data_job_05851
_audit_creation_date              2018-12-19
_audit_creation_method            'Materials Studio'
_symmetry_space_group_name_H-M    'P1'
_symmetry_Int_Tables_number       1
_symmetry_cell_setting            triclinic
loop_
_symmetry_equiv_pos_as_xyz
  x,y,z
_cell_length_a                    21.4143
_cell_length_b                    10.8701
_cell_length_c                    17.2451
_cell_angle_alpha                 90.0000
_cell_angle_beta                  140.3051
_cell_angle_gamma                 90.0000
loop_
_atom_site_label
_atom_site_type_symbol
_atom_site_fract_x
_atom_site_fract_y
_atom_site_fract_z
_atom_site_U_iso_or_equiv
_atom_site_adp_type
_atom_site_occupancy
C1     C     0.94613   0.82091   0.81252   0.00000  Uiso   1.00
C2     C     0.91265   0.81272   0.69635   0.00000  Uiso   1.00
C3     C     0.95028   0.73370   0.67657   0.00000  Uiso   1.00
C4     C     0.90978   0.74034   0.56417   0.00000  Uiso   1.00
C5     C     0.86930   0.71507   0.39739   0.00000  Uiso   1.00
C6     C     0.97553   0.95462   0.85374   0.00000  Uiso   1.00
C7     C     0.06601   0.99491   0.96631   0.00000  Uiso   1.00
C8     C     0.07843   0.12101   0.98640   0.00000  Uiso   1.00
C9     C     0.13554   0.31605   0.06400   0.00000  Uiso   1.00
C10    C     0.85508   0.79978   0.77478   0.00000  Uiso   1.00
C11    C     0.84430   0.70989   0.82099   0.00000  Uiso   1.00
C12    C     0.75531   0.70564   0.77462   0.00000  Uiso   1.00
C13    C     0.62541   0.66026   0.72964   0.00000  Uiso   1.00
C14    C     0.80730   0.97322   0.64806   0.00000  Uiso   1.00
C15    C     0.83725   0.89545   0.60702   0.00000  Uiso   1.00
C16    C     0.79667   0.90220   0.49461   0.00000  Uiso   1.00
C17    C     0.83423   0.82320   0.47468   0.00000  Uiso   1.00
C18    C     0.90012   0.03735   0.76441   0.00000  Uiso   1.00
C19    C     0.91240   0.16342   0.78434   0.00000  Uiso   1.00
C20    C     0.00288   0.20389   0.89691   0.00000  Uiso   1.00
C21    C     0.77967   0.88250   0.68545   0.00000  Uiso   1.00
C22    C     0.69069   0.87840   0.63902   0.00000  Uiso   1.00
C23    C     0.67977   0.78852   0.68513   0.00000  Uiso   1.00
H24    H     0.00485   0.75652   0.88208   0.00000  Uiso   1.00
H25    H     0.00865   0.66970   0.74574   0.00000  Uiso   1.00
H26    H     0.12435   0.93087   0.03542   0.00000  Uiso   1.00
H27    H     0.90267   0.64589   0.89011   0.00000  Uiso   1.00
H28    H     0.97962   0.60996   0.55520   0.00000  Uiso   1.00
H29    H     0.22359   0.16065   0.16603   0.00000  Uiso   1.00
H30    H     0.75613   0.55972   0.85963   0.00000  Uiso   1.00
H31    H     0.74859   0.03763   0.57851   0.00000  Uiso   1.00
H32    H     0.73832   0.96623   0.42550   0.00000  Uiso   1.00
H33    H     0.85403   0.22741   0.71519   0.00000  Uiso   1.00
H34    H     0.63235   0.94243   0.56989   0.00000  Uiso   1.00
H35    H     0.76022   0.85064   0.29528   0.00000  Uiso   1.00
H36    H     0.00418   0.40134   0.90613   0.00000  Uiso   1.00
H37    H     0.53673   0.80041   0.59972   0.00000  Uiso   1.00
O38    O     0.86781   0.67829   0.33008   0.00000  Uiso   1.00
O39    O     0.18788   0.40078   0.13148   0.00000  Uiso   1.00
O40    O     0.57459   0.61237   0.72949   0.00000  Uiso   1.00
N41    N     0.92938   0.67638   0.51501   0.00000  Uiso   1.00
N42    N     0.15748   0.19125   0.08610   0.00000  Uiso   1.00
N43    N     0.72046   0.62945   0.79967   0.00000  Uiso   1.00
N44    N     0.81132   0.80589   0.37516   0.00000  Uiso   1.00
N45    N     0.03942   0.32076   0.94625   0.00000  Uiso   1.00
N46    N     0.60239   0.75896   0.65981   0.00000  Uiso   1.00
C47    C     0.44613   0.32091   0.81252   0.00000  Uiso   1.00
C48    C     0.41265   0.31272   0.69635   0.00000  Uiso   1.00
C49    C     0.45028   0.23370   0.67657   0.00000  Uiso   1.00
C50    C     0.40978   0.24034   0.56417   0.00000  Uiso   1.00
C51    C     0.36930   0.21507   0.39739   0.00000  Uiso   1.00
C52    C     0.47553   0.45462   0.85374   0.00000  Uiso   1.00
C53    C     0.56601   0.49491   0.96631   0.00000  Uiso   1.00
C54    C     0.57843   0.62101   0.98640   0.00000  Uiso   1.00
C55    C     0.63554   0.81605   0.06400   0.00000  Uiso   1.00
C56    C     0.35508   0.29978   0.77478   0.00000  Uiso   1.00
C57    C     0.34430   0.20989   0.82099   0.00000  Uiso   1.00
C58    C     0.25531   0.20564   0.77462   0.00000  Uiso   1.00
C59    C     0.12541   0.16026   0.72964   0.00000  Uiso   1.00
C60    C     0.30730   0.47322   0.64806   0.00000  Uiso   1.00
C61    C     0.33725   0.39545   0.60702   0.00000  Uiso   1.00
C62    C     0.29667   0.40220   0.49461   0.00000  Uiso   1.00
C63    C     0.33423   0.32320   0.47468   0.00000  Uiso   1.00
C64    C     0.40012   0.53735   0.76441   0.00000  Uiso   1.00
C65    C     0.41240   0.66342   0.78434   0.00000  Uiso   1.00
C66    C     0.50288   0.70389   0.89691   0.00000  Uiso   1.00
C67    C     0.27967   0.38250   0.68545   0.00000  Uiso   1.00
C68    C     0.19069   0.37840   0.63902   0.00000  Uiso   1.00
C69    C     0.17977   0.28852   0.68513   0.00000  Uiso   1.00
H70    H     0.50485   0.25652   0.88208   0.00000  Uiso   1.00
H71    H     0.50865   0.16970   0.74574   0.00000  Uiso   1.00
H72    H     0.62435   0.43087   0.03542   0.00000  Uiso   1.00
H73    H     0.40267   0.14589   0.89011   0.00000  Uiso   1.00
H74    H     0.47962   0.10996   0.55520   0.00000  Uiso   1.00
H75    H     0.72359   0.66065   0.16603   0.00000  Uiso   1.00
H76    H     0.25613   0.05972   0.85963   0.00000  Uiso   1.00
H77    H     0.24859   0.53763   0.57851   0.00000  Uiso   1.00
H78    H     0.23832   0.46623   0.42550   0.00000  Uiso   1.00
H79    H     0.35403   0.72741   0.71519   0.00000  Uiso   1.00
H80    H     0.13235   0.44243   0.56989   0.00000  Uiso   1.00
H81    H     0.26022   0.35064   0.29528   0.00000  Uiso   1.00
H82    H     0.50418   0.90134   0.90613   0.00000  Uiso   1.00
H83    H     0.03673   0.30041   0.59972   0.00000  Uiso   1.00
O84    O     0.36781   0.17829   0.33008   0.00000  Uiso   1.00
O85    O     0.68788   0.90078   0.13148   0.00000  Uiso   1.00
O86    O     0.07459   0.11237   0.72949   0.00000  Uiso   1.00
N87    N     0.42938   0.17638   0.51501   0.00000  Uiso   1.00
N88    N     0.65748   0.69125   0.08610   0.00000  Uiso   1.00
N89    N     0.22046   0.12945   0.79967   0.00000  Uiso   1.00
N90    N     0.31132   0.30589   0.37516   0.00000  Uiso   1.00
N91    N     0.53942   0.82076   0.94625   0.00000  Uiso   1.00
N92    N     0.10239   0.25896   0.65981   0.00000  Uiso   1.00
C93    C     0.05387   0.82091   0.18748   0.00000  Uiso   1.00
C94    C     0.08735   0.81272   0.30365   0.00000  Uiso   1.00
C95    C     0.04972   0.73370   0.32343   0.00000  Uiso   1.00
C96    C     0.09022   0.74034   0.43583   0.00000  Uiso   1.00
C97    C     0.13070   0.71507   0.60261   0.00000  Uiso   1.00
C98    C     0.02447   0.95462   0.14626   0.00000  Uiso   1.00
C99    C     0.93399   0.99491   0.03369   0.00000  Uiso   1.00
C100   C     0.92157   0.12101   0.01360   0.00000  Uiso   1.00
C101   C     0.86446   0.31605   0.93600   0.00000  Uiso   1.00
C102   C     0.14492   0.79978   0.22522   0.00000  Uiso   1.00
C103   C     0.15570   0.70989   0.17901   0.00000  Uiso   1.00
C104   C     0.24469   0.70564   0.22538   0.00000  Uiso   1.00
C105   C     0.37459   0.66026   0.27036   0.00000  Uiso   1.00
C106   C     0.19270   0.97322   0.35194   0.00000  Uiso   1.00
C107   C     0.16275   0.89545   0.39298   0.00000  Uiso   1.00
C108   C     0.20333   0.90220   0.50539   0.00000  Uiso   1.00
C109   C     0.16577   0.82320   0.52532   0.00000  Uiso   1.00
C110   C     0.09988   0.03735   0.23559   0.00000  Uiso   1.00
C111   C     0.08760   0.16342   0.21566   0.00000  Uiso   1.00
C112   C     0.99712   0.20389   0.10309   0.00000  Uiso   1.00
C113   C     0.22033   0.88250   0.31455   0.00000  Uiso   1.00
C114   C     0.30931   0.87840   0.36098   0.00000  Uiso   1.00
C115   C     0.32023   0.78852   0.31487   0.00000  Uiso   1.00
H116   H     0.99515   0.75652   0.11792   0.00000  Uiso   1.00
H117   H     0.99135   0.66970   0.25426   0.00000  Uiso   1.00
H118   H     0.87565   0.93087   0.96458   0.00000  Uiso   1.00
H119   H     0.09733   0.64589   0.10989   0.00000  Uiso   1.00
H120   H     0.02038   0.60996   0.44480   0.00000  Uiso   1.00
H121   H     0.77641   0.16065   0.83397   0.00000  Uiso   1.00
H122   H     0.24387   0.55972   0.14037   0.00000  Uiso   1.00
H123   H     0.25141   0.03763   0.42149   0.00000  Uiso   1.00
H124   H     0.26168   0.96623   0.57450   0.00000  Uiso   1.00
H125   H     0.14597   0.22741   0.28481   0.00000  Uiso   1.00
H126   H     0.36765   0.94243   0.43011   0.00000  Uiso   1.00
H127   H     0.23978   0.85064   0.70472   0.00000  Uiso   1.00
H128   H     0.99582   0.40134   0.09387   0.00000  Uiso   1.00
H129   H     0.46327   0.80041   0.40028   0.00000  Uiso   1.00
O130   O     0.13219   0.67829   0.66992   0.00000  Uiso   1.00
O131   O     0.81212   0.40078   0.86852   0.00000  Uiso   1.00
O132   O     0.42541   0.61237   0.27051   0.00000  Uiso   1.00
N133   N     0.07062   0.67638   0.48499   0.00000  Uiso   1.00
N134   N     0.84252   0.19125   0.91390   0.00000  Uiso   1.00
N135   N     0.27954   0.62945   0.20033   0.00000  Uiso   1.00
N136   N     0.18868   0.80589   0.62484   0.00000  Uiso   1.00
N137   N     0.96058   0.32076   0.05375   0.00000  Uiso   1.00
N138   N     0.39761   0.75896   0.34019   0.00000  Uiso   1.00
C139   C     0.55387   0.32091   0.18748   0.00000  Uiso   1.00
C140   C     0.58735   0.31272   0.30365   0.00000  Uiso   1.00
C141   C     0.54972   0.23370   0.32343   0.00000  Uiso   1.00
C142   C     0.59022   0.24034   0.43583   0.00000  Uiso   1.00
C143   C     0.63070   0.21507   0.60261   0.00000  Uiso   1.00
C144   C     0.52447   0.45462   0.14626   0.00000  Uiso   1.00
C145   C     0.43399   0.49491   0.03369   0.00000  Uiso   1.00
C146   C     0.42157   0.62101   0.01360   0.00000  Uiso   1.00
C147   C     0.36446   0.81605   0.93600   0.00000  Uiso   1.00
C148   C     0.64492   0.29978   0.22522   0.00000  Uiso   1.00
C149   C     0.65570   0.20989   0.17901   0.00000  Uiso   1.00
C150   C     0.74469   0.20564   0.22538   0.00000  Uiso   1.00
C151   C     0.87459   0.16026   0.27036   0.00000  Uiso   1.00
C152   C     0.69270   0.47322   0.35194   0.00000  Uiso   1.00
C153   C     0.66275   0.39545   0.39298   0.00000  Uiso   1.00
C154   C     0.70333   0.40220   0.50539   0.00000  Uiso   1.00
C155   C     0.66577   0.32320   0.52532   0.00000  Uiso   1.00
C156   C     0.59988   0.53735   0.23559   0.00000  Uiso   1.00
C157   C     0.58760   0.66342   0.21566   0.00000  Uiso   1.00
C158   C     0.49712   0.70389   0.10309   0.00000  Uiso   1.00
C159   C     0.72033   0.38250   0.31455   0.00000  Uiso   1.00
C160   C     0.80931   0.37840   0.36098   0.00000  Uiso   1.00
C161   C     0.82023   0.28852   0.31487   0.00000  Uiso   1.00
H162   H     0.49515   0.25652   0.11792   0.00000  Uiso   1.00
H163   H     0.49135   0.16970   0.25426   0.00000  Uiso   1.00
H164   H     0.37565   0.43087   0.96458   0.00000  Uiso   1.00
H165   H     0.59733   0.14589   0.10989   0.00000  Uiso   1.00
H166   H     0.52038   0.10996   0.44480   0.00000  Uiso   1.00
H167   H     0.27641   0.66065   0.83397   0.00000  Uiso   1.00
H168   H     0.74387   0.05972   0.14037   0.00000  Uiso   1.00
H169   H     0.75141   0.53763   0.42149   0.00000  Uiso   1.00
H170   H     0.76168   0.46623   0.57450   0.00000  Uiso   1.00
H171   H     0.64597   0.72741   0.28481   0.00000  Uiso   1.00
H172   H     0.86765   0.44243   0.43011   0.00000  Uiso   1.00
H173   H     0.73978   0.35064   0.70472   0.00000  Uiso   1.00
H174   H     0.49582   0.90134   0.09387   0.00000  Uiso   1.00
H175   H     0.96327   0.30041   0.40028   0.00000  Uiso   1.00
O176   O     0.63219   0.17829   0.66992   0.00000  Uiso   1.00
O177   O     0.31212   0.90078   0.86852   0.00000  Uiso   1.00
O178   O     0.92541   0.11237   0.27051   0.00000  Uiso   1.00
N179   N     0.57062   0.17638   0.48499   0.00000  Uiso   1.00
N180   N     0.34252   0.69125   0.91390   0.00000  Uiso   1.00
N181   N     0.77954   0.12945   0.20033   0.00000  Uiso   1.00
N182   N     0.68868   0.30589   0.62484   0.00000  Uiso   1.00
N183   N     0.46058   0.82076   0.05375   0.00000  Uiso   1.00
N184   N     0.89761   0.25896   0.34019   0.00000  Uiso   1.00
