data_job_04566
_audit_creation_date              2018-12-19
_audit_creation_method            'Materials Studio'
_symmetry_space_group_name_H-M    'P1'
_symmetry_Int_Tables_number       1
_symmetry_cell_setting            triclinic
loop_
_symmetry_equiv_pos_as_xyz
  x,y,z
_cell_length_a                    9.2539
_cell_length_b                    15.9220
_cell_length_c                    32.2715
_cell_angle_alpha                 90.0000
_cell_angle_beta                  90.0000
_cell_angle_gamma                 90.0000
loop_
_atom_site_label
_atom_site_type_symbol
_atom_site_fract_x
_atom_site_fract_y
_atom_site_fract_z
_atom_site_U_iso_or_equiv
_atom_site_adp_type
_atom_site_occupancy
C1     C     0.44089   0.22307   0.09897   0.00000  Uiso   1.00
C2     C     0.40921   0.17851   0.13979   0.00000  Uiso   1.00
C3     C     0.27664   0.14564   0.15167   0.00000  Uiso   1.00
C4     C     0.26982   0.10727   0.19025   0.00000  Uiso   1.00
C5     C     0.20214   0.03891   0.24974   0.00000  Uiso   1.00
C6     C     0.50132   0.30903   0.11055   0.00000  Uiso   1.00
C7     C     0.44620   0.38588   0.09784   0.00000  Uiso   1.00
C8     C     0.51694   0.45739   0.11180   0.00000  Uiso   1.00
C9     C     0.59232   0.59165   0.12587   0.00000  Uiso   1.00
C10    C     0.56540   0.17506   0.07904   0.00000  Uiso   1.00
C11    C     0.56417   0.13930   0.03982   0.00000  Uiso   1.00
C12    C     0.68887   0.09804   0.02726   0.00000  Uiso   1.00
C13    C     0.86373   0.02431   0.99239   0.00000  Uiso   1.00
C14    C     0.66454   0.21340   0.14637   0.00000  Uiso   1.00
C15    C     0.53069   0.17326   0.16554   0.00000  Uiso   1.00
C16    C     0.52408   0.13493   0.20412   0.00000  Uiso   1.00
C17    C     0.39152   0.10200   0.21605   0.00000  Uiso   1.00
C18    C     0.62279   0.30377   0.13630   0.00000  Uiso   1.00
C19    C     0.69364   0.37518   0.15029   0.00000  Uiso   1.00
C20    C     0.63864   0.45212   0.13760   0.00000  Uiso   1.00
C21    C     0.68687   0.16981   0.10479   0.00000  Uiso   1.00
C22    C     0.81160   0.12860   0.09228   0.00000  Uiso   1.00
C23    C     0.81057   0.09277   0.05305   0.00000  Uiso   1.00
H24    H     0.34632   0.22717   0.07892   0.00000  Uiso   1.00
H25    H     0.18266   0.14972   0.13173   0.00000  Uiso   1.00
H26    H     0.35221   0.38993   0.07791   0.00000  Uiso   1.00
H27    H     0.47015   0.14338   0.01991   0.00000  Uiso   1.00
H28    H     0.05476   0.06156   0.20165   0.00000  Uiso   1.00
H29    H     0.41229   0.56806   0.08814   0.00000  Uiso   1.00
H30    H     0.66100   0.04817   0.96584   0.00000  Uiso   1.00
H31    H     0.75912   0.20931   0.16642   0.00000  Uiso   1.00
H32    H     0.61810   0.13087   0.22404   0.00000  Uiso   1.00
H33    H     0.78764   0.37109   0.17021   0.00000  Uiso   1.00
H34    H     0.90559   0.12454   0.11221   0.00000  Uiso   1.00
H35    H     0.40818   0.04627   0.27657   0.00000  Uiso   1.00
H36    H     0.76571   0.55277   0.16306   0.00000  Uiso   1.00
H37    H     0.01442   0.03288   0.04076   0.00000  Uiso   1.00
O38    O     0.13124   0.00267   0.27544   0.00000  Uiso   1.00
O39    O     0.60033   0.66717   0.12651   0.00000  Uiso   1.00
O40    O     0.92662   0.98508   0.96605   0.00000  Uiso   1.00
N41    N     0.15730   0.06871   0.21137   0.00000  Uiso   1.00
N42    N     0.49155   0.54226   0.10525   0.00000  Uiso   1.00
N43    N     0.72409   0.05622   0.99090   0.00000  Uiso   1.00
N44    N     0.34747   0.06048   0.25169   0.00000  Uiso   1.00
N45    N     0.68172   0.53403   0.14557   0.00000  Uiso   1.00
N46    N     0.91426   0.04799   0.03122   0.00000  Uiso   1.00
C47    C     0.30576   0.72596   0.89389   0.00000  Uiso   1.00
C48    C     0.34061   0.68151   0.85325   0.00000  Uiso   1.00
C49    C     0.47498   0.65060   0.84175   0.00000  Uiso   1.00
C50    C     0.48463   0.61198   0.80328   0.00000  Uiso   1.00
C51    C     0.55709   0.54412   0.74412   0.00000  Uiso   1.00
C52    C     0.24171   0.81083   0.88195   0.00000  Uiso   1.00
C53    C     0.29291   0.88864   0.89460   0.00000  Uiso   1.00
C54    C     0.21928   0.95888   0.88030   0.00000  Uiso   1.00
C55    C     0.13812   0.09178   0.86573   0.00000  Uiso   1.00
C56    C     0.18297   0.67622   0.91366   0.00000  Uiso   1.00
C57    C     0.18477   0.64088   0.95296   0.00000  Uiso   1.00
C58    C     0.06167   0.59781   0.96536   0.00000  Uiso   1.00
C59    C     0.88932   0.52172   0.00001   0.00000  Uiso   1.00
C60    C     0.08396   0.71233   0.84601   0.00000  Uiso   1.00
C61    C     0.22014   0.67411   0.82724   0.00000  Uiso   1.00
C62    C     0.22958   0.63552   0.78877   0.00000  Uiso   1.00
C63    C     0.36394   0.60456   0.77722   0.00000  Uiso   1.00
C64    C     0.12124   0.80343   0.85595   0.00000  Uiso   1.00
C65    C     0.04751   0.87356   0.84163   0.00000  Uiso   1.00
C66    C     0.09859   0.95146   0.85425   0.00000  Uiso   1.00
C67    C     0.06250   0.66882   0.88765   0.00000  Uiso   1.00
C68    C     0.93937   0.62580   0.89999   0.00000  Uiso   1.00
C69    C     0.94098   0.59039   0.93930   0.00000  Uiso   1.00
H70    H     0.39955   0.73173   0.91414   0.00000  Uiso   1.00
H71    H     0.56819   0.65635   0.86188   0.00000  Uiso   1.00
H72    H     0.38613   0.89435   0.91473   0.00000  Uiso   1.00
H73    H     0.27801   0.64662   0.97308   0.00000  Uiso   1.00
H74    H     0.70204   0.56954   0.79248   0.00000  Uiso   1.00
H75    H     0.31813   0.07137   0.90392   0.00000  Uiso   1.00
H76    H     0.09014   0.54900   0.02696   0.00000  Uiso   1.00
H77    H     0.99016   0.70657   0.82576   0.00000  Uiso   1.00
H78    H     0.13634   0.62980   0.76866   0.00000  Uiso   1.00
H79    H     0.95428   0.86781   0.82150   0.00000  Uiso   1.00
H80    H     0.84616   0.62008   0.87985   0.00000  Uiso   1.00
H81    H     0.35153   0.54799   0.71681   0.00000  Uiso   1.00
H82    H     0.96762   0.04983   0.82825   0.00000  Uiso   1.00
H83    H     0.73963   0.52745   0.95129   0.00000  Uiso   1.00
O84    O     0.63034   0.50874   0.71866   0.00000  Uiso   1.00
O85    O     0.12665   0.16713   0.86488   0.00000  Uiso   1.00
O86    O     0.82754   0.48178   0.02631   0.00000  Uiso   1.00
N87    N     0.59948   0.57499   0.78251   0.00000  Uiso   1.00
N88    N     0.24056   0.04417   0.88669   0.00000  Uiso   1.00
N89    N     0.02740   0.55582   0.00173   0.00000  Uiso   1.00
N90    N     0.41087   0.56339   0.74179   0.00000  Uiso   1.00
N91    N     0.05196   0.03258   0.84598   0.00000  Uiso   1.00
N92    N     0.83879   0.54422   0.96102   0.00000  Uiso   1.00
C93    C     0.55911   0.77693   0.59897   0.00000  Uiso   1.00
C94    C     0.59079   0.82149   0.63979   0.00000  Uiso   1.00
C95    C     0.72336   0.85436   0.65167   0.00000  Uiso   1.00
C96    C     0.73018   0.89273   0.69025   0.00000  Uiso   1.00
C97    C     0.79786   0.96109   0.74974   0.00000  Uiso   1.00
C98    C     0.49868   0.69097   0.61055   0.00000  Uiso   1.00
C99    C     0.55380   0.61412   0.59784   0.00000  Uiso   1.00
C100   C     0.48306   0.54261   0.61180   0.00000  Uiso   1.00
C101   C     0.40768   0.40835   0.62587   0.00000  Uiso   1.00
C102   C     0.43460   0.82494   0.57904   0.00000  Uiso   1.00
C103   C     0.43583   0.86070   0.53982   0.00000  Uiso   1.00
C104   C     0.31113   0.90196   0.52726   0.00000  Uiso   1.00
C105   C     0.13627   0.97569   0.49239   0.00000  Uiso   1.00
C106   C     0.33546   0.78660   0.64637   0.00000  Uiso   1.00
C107   C     0.46931   0.82674   0.66554   0.00000  Uiso   1.00
C108   C     0.47592   0.86507   0.70412   0.00000  Uiso   1.00
C109   C     0.60848   0.89800   0.71605   0.00000  Uiso   1.00
C110   C     0.37721   0.69623   0.63630   0.00000  Uiso   1.00
C111   C     0.30636   0.62482   0.65029   0.00000  Uiso   1.00
C112   C     0.36136   0.54788   0.63760   0.00000  Uiso   1.00
C113   C     0.31313   0.83019   0.60479   0.00000  Uiso   1.00
C114   C     0.18840   0.87140   0.59228   0.00000  Uiso   1.00
C115   C     0.18943   0.90723   0.55305   0.00000  Uiso   1.00
H116   H     0.65368   0.77283   0.57892   0.00000  Uiso   1.00
H117   H     0.81734   0.85028   0.63173   0.00000  Uiso   1.00
H118   H     0.64779   0.61007   0.57791   0.00000  Uiso   1.00
H119   H     0.52985   0.85662   0.51991   0.00000  Uiso   1.00
H120   H     0.94524   0.93844   0.70165   0.00000  Uiso   1.00
H121   H     0.58771   0.43194   0.58814   0.00000  Uiso   1.00
H122   H     0.33900   0.95183   0.46584   0.00000  Uiso   1.00
H123   H     0.24088   0.79069   0.66642   0.00000  Uiso   1.00
H124   H     0.38190   0.86913   0.72404   0.00000  Uiso   1.00
H125   H     0.21236   0.62891   0.67021   0.00000  Uiso   1.00
H126   H     0.09441   0.87546   0.61221   0.00000  Uiso   1.00
H127   H     0.59182   0.95373   0.77657   0.00000  Uiso   1.00
H128   H     0.23429   0.44723   0.66306   0.00000  Uiso   1.00
H129   H     0.98558   0.96712   0.54076   0.00000  Uiso   1.00
O130   O     0.86876   0.99733   0.77544   0.00000  Uiso   1.00
O131   O     0.39967   0.33283   0.62651   0.00000  Uiso   1.00
O132   O     0.07338   0.01492   0.46605   0.00000  Uiso   1.00
N133   N     0.84270   0.93129   0.71137   0.00000  Uiso   1.00
N134   N     0.50845   0.45774   0.60525   0.00000  Uiso   1.00
N135   N     0.27591   0.94378   0.49090   0.00000  Uiso   1.00
N136   N     0.65253   0.93952   0.75169   0.00000  Uiso   1.00
N137   N     0.31828   0.46597   0.64557   0.00000  Uiso   1.00
N138   N     0.08574   0.95201   0.53122   0.00000  Uiso   1.00
C139   C     0.69424   0.27404   0.39389   0.00000  Uiso   1.00
C140   C     0.65939   0.31849   0.35325   0.00000  Uiso   1.00
C141   C     0.52502   0.34940   0.34175   0.00000  Uiso   1.00
C142   C     0.51537   0.38802   0.30328   0.00000  Uiso   1.00
C143   C     0.44291   0.45588   0.24412   0.00000  Uiso   1.00
C144   C     0.75829   0.18917   0.38195   0.00000  Uiso   1.00
C145   C     0.70709   0.11136   0.39460   0.00000  Uiso   1.00
C146   C     0.78072   0.04112   0.38030   0.00000  Uiso   1.00
C147   C     0.86188   0.90822   0.36573   0.00000  Uiso   1.00
C148   C     0.81703   0.32378   0.41366   0.00000  Uiso   1.00
C149   C     0.81523   0.35912   0.45296   0.00000  Uiso   1.00
C150   C     0.93833   0.40219   0.46536   0.00000  Uiso   1.00
C151   C     0.11068   0.47828   0.50001   0.00000  Uiso   1.00
C152   C     0.91604   0.28767   0.34601   0.00000  Uiso   1.00
C153   C     0.77986   0.32589   0.32724   0.00000  Uiso   1.00
C154   C     0.77042   0.36448   0.28877   0.00000  Uiso   1.00
C155   C     0.63606   0.39544   0.27722   0.00000  Uiso   1.00
C156   C     0.87876   0.19657   0.35595   0.00000  Uiso   1.00
C157   C     0.95249   0.12644   0.34163   0.00000  Uiso   1.00
C158   C     0.90141   0.04854   0.35425   0.00000  Uiso   1.00
C159   C     0.93750   0.33118   0.38765   0.00000  Uiso   1.00
C160   C     0.06063   0.37420   0.39999   0.00000  Uiso   1.00
C161   C     0.05902   0.40961   0.43930   0.00000  Uiso   1.00
H162   H     0.60045   0.26827   0.41414   0.00000  Uiso   1.00
H163   H     0.43181   0.34365   0.36188   0.00000  Uiso   1.00
H164   H     0.61387   0.10565   0.41473   0.00000  Uiso   1.00
H165   H     0.72199   0.35338   0.47308   0.00000  Uiso   1.00
H166   H     0.29796   0.43046   0.29248   0.00000  Uiso   1.00
H167   H     0.68187   0.92863   0.40392   0.00000  Uiso   1.00
H168   H     0.90986   0.45100   0.52696   0.00000  Uiso   1.00
H169   H     0.00984   0.29343   0.32576   0.00000  Uiso   1.00
H170   H     0.86366   0.37020   0.26866   0.00000  Uiso   1.00
H171   H     0.04572   0.13219   0.32150   0.00000  Uiso   1.00
H172   H     0.15384   0.37992   0.37985   0.00000  Uiso   1.00
H173   H     0.64847   0.45201   0.21681   0.00000  Uiso   1.00
H174   H     0.03238   0.95017   0.32825   0.00000  Uiso   1.00
H175   H     0.26037   0.47255   0.45129   0.00000  Uiso   1.00
O176   O     0.36966   0.49126   0.21866   0.00000  Uiso   1.00
O177   O     0.87335   0.83287   0.36488   0.00000  Uiso   1.00
O178   O     0.17246   0.51822   0.52631   0.00000  Uiso   1.00
N179   N     0.40052   0.42501   0.28251   0.00000  Uiso   1.00
N180   N     0.75944   0.95583   0.38669   0.00000  Uiso   1.00
N181   N     0.97260   0.44418   0.50173   0.00000  Uiso   1.00
N182   N     0.58913   0.43661   0.24179   0.00000  Uiso   1.00
N183   N     0.94804   0.96742   0.34598   0.00000  Uiso   1.00
N184   N     0.16121   0.45578   0.46102   0.00000  Uiso   1.00
C185   C     0.94089   0.77693   0.09897   0.00000  Uiso   1.00
C186   C     0.90921   0.82149   0.13979   0.00000  Uiso   1.00
C187   C     0.77664   0.85436   0.15167   0.00000  Uiso   1.00
C188   C     0.76982   0.89273   0.19025   0.00000  Uiso   1.00
C189   C     0.70214   0.96109   0.24974   0.00000  Uiso   1.00
C190   C     0.00132   0.69097   0.11055   0.00000  Uiso   1.00
C191   C     0.94620   0.61412   0.09784   0.00000  Uiso   1.00
C192   C     0.01694   0.54261   0.11180   0.00000  Uiso   1.00
C193   C     0.09232   0.40835   0.12587   0.00000  Uiso   1.00
C194   C     0.06540   0.82494   0.07904   0.00000  Uiso   1.00
C195   C     0.06417   0.86070   0.03982   0.00000  Uiso   1.00
C196   C     0.18887   0.90196   0.02726   0.00000  Uiso   1.00
C197   C     0.36373   0.97569   0.99239   0.00000  Uiso   1.00
C198   C     0.16454   0.78660   0.14637   0.00000  Uiso   1.00
C199   C     0.03069   0.82674   0.16554   0.00000  Uiso   1.00
C200   C     0.02408   0.86507   0.20412   0.00000  Uiso   1.00
C201   C     0.89152   0.89800   0.21605   0.00000  Uiso   1.00
C202   C     0.12279   0.69623   0.13630   0.00000  Uiso   1.00
C203   C     0.19364   0.62482   0.15029   0.00000  Uiso   1.00
C204   C     0.13864   0.54788   0.13760   0.00000  Uiso   1.00
C205   C     0.18687   0.83019   0.10479   0.00000  Uiso   1.00
C206   C     0.31160   0.87140   0.09228   0.00000  Uiso   1.00
C207   C     0.31057   0.90723   0.05305   0.00000  Uiso   1.00
H208   H     0.84632   0.77283   0.07892   0.00000  Uiso   1.00
H209   H     0.68266   0.85028   0.13173   0.00000  Uiso   1.00
H210   H     0.85221   0.61007   0.07791   0.00000  Uiso   1.00
H211   H     0.97015   0.85662   0.01991   0.00000  Uiso   1.00
H212   H     0.55476   0.93844   0.20165   0.00000  Uiso   1.00
H213   H     0.91229   0.43194   0.08814   0.00000  Uiso   1.00
H214   H     0.16100   0.95183   0.96584   0.00000  Uiso   1.00
H215   H     0.25912   0.79069   0.16642   0.00000  Uiso   1.00
H216   H     0.11810   0.86913   0.22404   0.00000  Uiso   1.00
H217   H     0.28764   0.62891   0.17021   0.00000  Uiso   1.00
H218   H     0.40559   0.87546   0.11221   0.00000  Uiso   1.00
H219   H     0.90818   0.95373   0.27657   0.00000  Uiso   1.00
H220   H     0.26571   0.44723   0.16306   0.00000  Uiso   1.00
H221   H     0.51442   0.96712   0.04076   0.00000  Uiso   1.00
O222   O     0.63124   0.99733   0.27544   0.00000  Uiso   1.00
O223   O     0.10033   0.33283   0.12651   0.00000  Uiso   1.00
O224   O     0.42662   0.01492   0.96605   0.00000  Uiso   1.00
N225   N     0.65730   0.93129   0.21137   0.00000  Uiso   1.00
N226   N     0.99155   0.45774   0.10525   0.00000  Uiso   1.00
N227   N     0.22409   0.94378   0.99090   0.00000  Uiso   1.00
N228   N     0.84747   0.93952   0.25169   0.00000  Uiso   1.00
N229   N     0.18172   0.46597   0.14557   0.00000  Uiso   1.00
N230   N     0.41426   0.95201   0.03122   0.00000  Uiso   1.00
C231   C     0.80576   0.27404   0.89389   0.00000  Uiso   1.00
C232   C     0.84061   0.31849   0.85325   0.00000  Uiso   1.00
C233   C     0.97498   0.34940   0.84175   0.00000  Uiso   1.00
C234   C     0.98463   0.38802   0.80328   0.00000  Uiso   1.00
C235   C     0.05709   0.45588   0.74412   0.00000  Uiso   1.00
C236   C     0.74171   0.18917   0.88195   0.00000  Uiso   1.00
C237   C     0.79291   0.11136   0.89460   0.00000  Uiso   1.00
C238   C     0.71928   0.04112   0.88030   0.00000  Uiso   1.00
C239   C     0.63812   0.90822   0.86573   0.00000  Uiso   1.00
C240   C     0.68297   0.32378   0.91366   0.00000  Uiso   1.00
C241   C     0.68477   0.35912   0.95296   0.00000  Uiso   1.00
C242   C     0.56167   0.40219   0.96536   0.00000  Uiso   1.00
C243   C     0.38932   0.47828   0.00001   0.00000  Uiso   1.00
C244   C     0.58396   0.28767   0.84601   0.00000  Uiso   1.00
C245   C     0.72014   0.32589   0.82724   0.00000  Uiso   1.00
C246   C     0.72958   0.36448   0.78877   0.00000  Uiso   1.00
C247   C     0.86394   0.39544   0.77722   0.00000  Uiso   1.00
C248   C     0.62124   0.19657   0.85595   0.00000  Uiso   1.00
C249   C     0.54751   0.12644   0.84163   0.00000  Uiso   1.00
C250   C     0.59859   0.04854   0.85425   0.00000  Uiso   1.00
C251   C     0.56250   0.33118   0.88765   0.00000  Uiso   1.00
C252   C     0.43937   0.37420   0.89999   0.00000  Uiso   1.00
C253   C     0.44098   0.40961   0.93930   0.00000  Uiso   1.00
H254   H     0.89955   0.26827   0.91414   0.00000  Uiso   1.00
H255   H     0.06819   0.34365   0.86188   0.00000  Uiso   1.00
H256   H     0.88613   0.10565   0.91473   0.00000  Uiso   1.00
H257   H     0.77801   0.35338   0.97308   0.00000  Uiso   1.00
H258   H     0.20204   0.43046   0.79248   0.00000  Uiso   1.00
H259   H     0.81813   0.92863   0.90392   0.00000  Uiso   1.00
H260   H     0.59014   0.45100   0.02696   0.00000  Uiso   1.00
H261   H     0.49016   0.29343   0.82576   0.00000  Uiso   1.00
H262   H     0.63634   0.37020   0.76866   0.00000  Uiso   1.00
H263   H     0.45428   0.13219   0.82150   0.00000  Uiso   1.00
H264   H     0.34616   0.37992   0.87985   0.00000  Uiso   1.00
H265   H     0.85153   0.45201   0.71681   0.00000  Uiso   1.00
H266   H     0.46762   0.95017   0.82825   0.00000  Uiso   1.00
H267   H     0.23963   0.47255   0.95129   0.00000  Uiso   1.00
O268   O     0.13034   0.49126   0.71866   0.00000  Uiso   1.00
O269   O     0.62665   0.83287   0.86488   0.00000  Uiso   1.00
O270   O     0.32754   0.51822   0.02631   0.00000  Uiso   1.00
N271   N     0.09948   0.42501   0.78251   0.00000  Uiso   1.00
N272   N     0.74056   0.95583   0.88669   0.00000  Uiso   1.00
N273   N     0.52740   0.44418   0.00173   0.00000  Uiso   1.00
N274   N     0.91087   0.43661   0.74179   0.00000  Uiso   1.00
N275   N     0.55196   0.96742   0.84598   0.00000  Uiso   1.00
N276   N     0.33879   0.45578   0.96102   0.00000  Uiso   1.00
C277   C     0.05911   0.22307   0.59897   0.00000  Uiso   1.00
C278   C     0.09079   0.17851   0.63979   0.00000  Uiso   1.00
C279   C     0.22336   0.14564   0.65167   0.00000  Uiso   1.00
C280   C     0.23018   0.10727   0.69025   0.00000  Uiso   1.00
C281   C     0.29786   0.03891   0.74974   0.00000  Uiso   1.00
C282   C     0.99868   0.30903   0.61055   0.00000  Uiso   1.00
C283   C     0.05380   0.38588   0.59784   0.00000  Uiso   1.00
C284   C     0.98306   0.45739   0.61180   0.00000  Uiso   1.00
C285   C     0.90768   0.59165   0.62587   0.00000  Uiso   1.00
C286   C     0.93460   0.17506   0.57904   0.00000  Uiso   1.00
C287   C     0.93583   0.13930   0.53982   0.00000  Uiso   1.00
C288   C     0.81113   0.09804   0.52726   0.00000  Uiso   1.00
C289   C     0.63627   0.02431   0.49239   0.00000  Uiso   1.00
C290   C     0.83546   0.21340   0.64637   0.00000  Uiso   1.00
C291   C     0.96931   0.17326   0.66554   0.00000  Uiso   1.00
C292   C     0.97592   0.13493   0.70412   0.00000  Uiso   1.00
C293   C     0.10848   0.10200   0.71605   0.00000  Uiso   1.00
C294   C     0.87721   0.30377   0.63630   0.00000  Uiso   1.00
C295   C     0.80636   0.37518   0.65029   0.00000  Uiso   1.00
C296   C     0.86136   0.45212   0.63760   0.00000  Uiso   1.00
C297   C     0.81313   0.16981   0.60479   0.00000  Uiso   1.00
C298   C     0.68840   0.12860   0.59228   0.00000  Uiso   1.00
C299   C     0.68943   0.09277   0.55305   0.00000  Uiso   1.00
H300   H     0.15368   0.22717   0.57892   0.00000  Uiso   1.00
H301   H     0.31734   0.14972   0.63173   0.00000  Uiso   1.00
H302   H     0.14779   0.38993   0.57791   0.00000  Uiso   1.00
H303   H     0.02985   0.14338   0.51991   0.00000  Uiso   1.00
H304   H     0.44524   0.06156   0.70165   0.00000  Uiso   1.00
H305   H     0.08771   0.56806   0.58814   0.00000  Uiso   1.00
H306   H     0.83900   0.04817   0.46584   0.00000  Uiso   1.00
H307   H     0.74088   0.20931   0.66642   0.00000  Uiso   1.00
H308   H     0.88190   0.13087   0.72404   0.00000  Uiso   1.00
H309   H     0.71236   0.37109   0.67021   0.00000  Uiso   1.00
H310   H     0.59441   0.12454   0.61221   0.00000  Uiso   1.00
H311   H     0.09182   0.04627   0.77657   0.00000  Uiso   1.00
H312   H     0.73429   0.55277   0.66306   0.00000  Uiso   1.00
H313   H     0.48558   0.03288   0.54076   0.00000  Uiso   1.00
O314   O     0.36876   0.00267   0.77544   0.00000  Uiso   1.00
O315   O     0.89967   0.66717   0.62651   0.00000  Uiso   1.00
O316   O     0.57338   0.98508   0.46605   0.00000  Uiso   1.00
N317   N     0.34270   0.06871   0.71137   0.00000  Uiso   1.00
N318   N     0.00845   0.54226   0.60525   0.00000  Uiso   1.00
N319   N     0.77591   0.05622   0.49090   0.00000  Uiso   1.00
N320   N     0.15253   0.06048   0.75169   0.00000  Uiso   1.00
N321   N     0.81828   0.53403   0.64557   0.00000  Uiso   1.00
N322   N     0.58574   0.04799   0.53122   0.00000  Uiso   1.00
C323   C     0.19424   0.72596   0.39389   0.00000  Uiso   1.00
C324   C     0.15939   0.68151   0.35325   0.00000  Uiso   1.00
C325   C     0.02502   0.65060   0.34175   0.00000  Uiso   1.00
C326   C     0.01537   0.61198   0.30328   0.00000  Uiso   1.00
C327   C     0.94291   0.54412   0.24412   0.00000  Uiso   1.00
C328   C     0.25829   0.81083   0.38195   0.00000  Uiso   1.00
C329   C     0.20709   0.88864   0.39460   0.00000  Uiso   1.00
C330   C     0.28072   0.95888   0.38030   0.00000  Uiso   1.00
C331   C     0.36188   0.09178   0.36573   0.00000  Uiso   1.00
C332   C     0.31703   0.67622   0.41366   0.00000  Uiso   1.00
C333   C     0.31523   0.64088   0.45296   0.00000  Uiso   1.00
C334   C     0.43833   0.59781   0.46536   0.00000  Uiso   1.00
C335   C     0.61068   0.52172   0.50001   0.00000  Uiso   1.00
C336   C     0.41604   0.71233   0.34601   0.00000  Uiso   1.00
C337   C     0.27986   0.67411   0.32724   0.00000  Uiso   1.00
C338   C     0.27042   0.63552   0.28877   0.00000  Uiso   1.00
C339   C     0.13606   0.60456   0.27722   0.00000  Uiso   1.00
C340   C     0.37876   0.80343   0.35595   0.00000  Uiso   1.00
C341   C     0.45249   0.87356   0.34163   0.00000  Uiso   1.00
C342   C     0.40141   0.95146   0.35425   0.00000  Uiso   1.00
C343   C     0.43750   0.66882   0.38765   0.00000  Uiso   1.00
C344   C     0.56063   0.62580   0.39999   0.00000  Uiso   1.00
C345   C     0.55902   0.59039   0.43930   0.00000  Uiso   1.00
H346   H     0.10045   0.73173   0.41414   0.00000  Uiso   1.00
H347   H     0.93181   0.65635   0.36188   0.00000  Uiso   1.00
H348   H     0.11387   0.89435   0.41473   0.00000  Uiso   1.00
H349   H     0.22199   0.64662   0.47308   0.00000  Uiso   1.00
H350   H     0.79796   0.56954   0.29248   0.00000  Uiso   1.00
H351   H     0.18187   0.07137   0.40392   0.00000  Uiso   1.00
H352   H     0.40986   0.54900   0.52696   0.00000  Uiso   1.00
H353   H     0.50984   0.70657   0.32576   0.00000  Uiso   1.00
H354   H     0.36366   0.62980   0.26866   0.00000  Uiso   1.00
H355   H     0.54572   0.86781   0.32150   0.00000  Uiso   1.00
H356   H     0.65384   0.62008   0.37985   0.00000  Uiso   1.00
H357   H     0.14847   0.54799   0.21681   0.00000  Uiso   1.00
H358   H     0.53238   0.04983   0.32825   0.00000  Uiso   1.00
H359   H     0.76037   0.52745   0.45129   0.00000  Uiso   1.00
O360   O     0.86966   0.50874   0.21866   0.00000  Uiso   1.00
O361   O     0.37335   0.16713   0.36488   0.00000  Uiso   1.00
O362   O     0.67246   0.48178   0.52631   0.00000  Uiso   1.00
N363   N     0.90052   0.57499   0.28251   0.00000  Uiso   1.00
N364   N     0.25944   0.04417   0.38669   0.00000  Uiso   1.00
N365   N     0.47260   0.55582   0.50173   0.00000  Uiso   1.00
N366   N     0.08913   0.56339   0.24179   0.00000  Uiso   1.00
N367   N     0.44804   0.03258   0.34598   0.00000  Uiso   1.00
N368   N     0.66121   0.54422   0.46102   0.00000  Uiso   1.00
