data_job_06935
_audit_creation_date              2018-12-19
_audit_creation_method            'Materials Studio'
_symmetry_space_group_name_H-M    'P1'
_symmetry_Int_Tables_number       1
_symmetry_cell_setting            triclinic
loop_
_symmetry_equiv_pos_as_xyz
  x,y,z
_cell_length_a                    22.0527
_cell_length_b                    22.2080
_cell_length_c                    23.0942
_cell_angle_alpha                 105.1826
_cell_angle_beta                  72.6723
_cell_angle_gamma                 67.0320
loop_
_atom_site_label
_atom_site_type_symbol
_atom_site_fract_x
_atom_site_fract_y
_atom_site_fract_z
_atom_site_U_iso_or_equiv
_atom_site_adp_type
_atom_site_occupancy
C1     C     0.93427   0.67039   0.48525   0.00000  Uiso   1.00
C2     C     0.91986   0.74442   0.52760   0.00000  Uiso   1.00
C3     C     0.90240   0.80292   0.51140   0.00000  Uiso   1.00
C4     C     0.89128   0.86594   0.55676   0.00000  Uiso   1.00
C5     C     0.86800   0.98024   0.61346   0.00000  Uiso   1.00
C6     C     0.01069   0.61538   0.47238   0.00000  Uiso   1.00
C7     C     0.06959   0.56537   0.40976   0.00000  Uiso   1.00
C8     C     0.13493   0.51976   0.40863   0.00000  Uiso   1.00
C9     C     0.25265   0.43368   0.37961   0.00000  Uiso   1.00
C10    C     0.88001   0.65678   0.53071   0.00000  Uiso   1.00
C11    C     0.82906   0.64156   0.51712   0.00000  Uiso   1.00
C12    C     0.78439   0.63079   0.56510   0.00000  Uiso   1.00
C13    C     0.69923   0.60898   0.62664   0.00000  Uiso   1.00
C14    C     0.94557   0.67829   0.59461   0.00000  Uiso   1.00
C15    C     0.92599   0.74871   0.58700   0.00000  Uiso   1.00
C16    C     0.91489   0.81167   0.63239   0.00000  Uiso   1.00
C17    C     0.89742   0.87025   0.61627   0.00000  Uiso   1.00
C18    C     0.01682   0.61967   0.53178   0.00000  Uiso   1.00
C19    C     0.08209   0.57412   0.53075   0.00000  Uiso   1.00
C20    C     0.14108   0.52406   0.46814   0.00000  Uiso   1.00
C21    C     0.88615   0.66107   0.59011   0.00000  Uiso   1.00
C22    C     0.84156   0.65031   0.63811   0.00000  Uiso   1.00
C23    C     0.79054   0.63509   0.62461   0.00000  Uiso   1.00
H24    H     0.92950   0.66704   0.43901   0.00000  Uiso   1.00
H25    H     0.89766   0.79957   0.46543   0.00000  Uiso   1.00
H26    H     0.06482   0.56206   0.36380   0.00000  Uiso   1.00
H27    H     0.82433   0.63824   0.47115   0.00000  Uiso   1.00
H28    H     0.86510   0.94839   0.52090   0.00000  Uiso   1.00
H29    H     0.21756   0.44757   0.30662   0.00000  Uiso   1.00
H30    H     0.71043   0.60821   0.53299   0.00000  Uiso   1.00
H31    H     0.95034   0.68163   0.64085   0.00000  Uiso   1.00
H32    H     0.91965   0.81497   0.67835   0.00000  Uiso   1.00
H33    H     0.08681   0.57745   0.57672   0.00000  Uiso   1.00
H34    H     0.84632   0.65364   0.68407   0.00000  Uiso   1.00
H35    H     0.88295   0.96089   0.69372   0.00000  Uiso   1.00
H36    H     0.23541   0.46006   0.47943   0.00000  Uiso   1.00
H37    H     0.72828   0.62071   0.70580   0.00000  Uiso   1.00
O38    O     0.85348   0.04209   0.62833   0.00000  Uiso   1.00
O39    O     0.31589   0.38501   0.34719   0.00000  Uiso   1.00
O40    O     0.65055   0.59578   0.64418   0.00000  Uiso   1.00
N41    N     0.87350   0.93304   0.55644   0.00000  Uiso   1.00
N42    N     0.20303   0.46480   0.35609   0.00000  Uiso   1.00
N43    N     0.72893   0.61498   0.56772   0.00000  Uiso   1.00
N44    N     0.88310   0.93977   0.64943   0.00000  Uiso   1.00
N45    N     0.21264   0.47153   0.44908   0.00000  Uiso   1.00
N46    N     0.73853   0.62170   0.66071   0.00000  Uiso   1.00
C47    C     0.44116   0.95638   0.36159   0.00000  Uiso   1.00
C48    C     0.37600   0.94472   0.38500   0.00000  Uiso   1.00
C49    C     0.33064   0.94532   0.35418   0.00000  Uiso   1.00
C50    C     0.27400   0.93357   0.38337   0.00000  Uiso   1.00
C51    C     0.17445   0.91731   0.41093   0.00000  Uiso   1.00
C52    C     0.42604   0.01961   0.42117   0.00000  Uiso   1.00
C53    C     0.42277   0.08317   0.42076   0.00000  Uiso   1.00
C54    C     0.40827   0.13445   0.48039   0.00000  Uiso   1.00
C55    C     0.38646   0.23444   0.56409   0.00000  Uiso   1.00
C56    C     0.50778   0.88978   0.35167   0.00000  Uiso   1.00
C57    C     0.57326   0.84419   0.29283   0.00000  Uiso   1.00
C58    C     0.62759   0.78617   0.29396   0.00000  Uiso   1.00
C59    C     0.73270   0.68457   0.26975   0.00000  Uiso   1.00
C60    C     0.42124   0.93442   0.46822   0.00000  Uiso   1.00
C61    C     0.36518   0.93279   0.44292   0.00000  Uiso   1.00
C62    C     0.30860   0.92102   0.47216   0.00000  Uiso   1.00
C63    C     0.26317   0.92161   0.44139   0.00000  Uiso   1.00
C64    C     0.41522   0.00768   0.47909   0.00000  Uiso   1.00
C65    C     0.40073   0.05887   0.53874   0.00000  Uiso   1.00
C66    C     0.39743   0.12250   0.53842   0.00000  Uiso   1.00
C67    C     0.49697   0.87784   0.40959   0.00000  Uiso   1.00
C68    C     0.55121   0.81989   0.41081   0.00000  Uiso   1.00
C69    C     0.61675   0.77422   0.35198   0.00000  Uiso   1.00
H70    H     0.44958   0.96567   0.31650   0.00000  Uiso   1.00
H71    H     0.33902   0.95457   0.30936   0.00000  Uiso   1.00
H72    H     0.43115   0.09239   0.37593   0.00000  Uiso   1.00
H73    H     0.58161   0.85344   0.24802   0.00000  Uiso   1.00
H74    H     0.21166   0.93702   0.32701   0.00000  Uiso   1.00
H75    H     0.40593   0.22761   0.46736   0.00000  Uiso   1.00
H76    H     0.72321   0.72374   0.19764   0.00000  Uiso   1.00
H77    H     0.41282   0.92513   0.51332   0.00000  Uiso   1.00
H78    H     0.30024   0.91179   0.51698   0.00000  Uiso   1.00
H79    H     0.39236   0.04962   0.58355   0.00000  Uiso   1.00
H80    H     0.54282   0.81067   0.45564   0.00000  Uiso   1.00
H81    H     0.18018   0.90230   0.49553   0.00000  Uiso   1.00
H82    H     0.37446   0.19290   0.63587   0.00000  Uiso   1.00
H83    H     0.69173   0.68903   0.36615   0.00000  Uiso   1.00
O84    O     0.12252   0.91164   0.41014   0.00000  Uiso   1.00
O85    O     0.37741   0.29289   0.59426   0.00000  Uiso   1.00
O86    O     0.79366   0.63182   0.24040   0.00000  Uiso   1.00
N87    N     0.21971   0.93066   0.36616   0.00000  Uiso   1.00
N88    N     0.40133   0.20236   0.49738   0.00000  Uiso   1.00
N89    N     0.69797   0.73129   0.24522   0.00000  Uiso   1.00
N90    N     0.20278   0.91198   0.45684   0.00000  Uiso   1.00
N91    N     0.38439   0.18368   0.58805   0.00000  Uiso   1.00
N92    N     0.68103   0.71261   0.33590   0.00000  Uiso   1.00
C93    C     0.71137   0.42320   0.71579   0.00000  Uiso   1.00
C94    C     0.76273   0.35985   0.64638   0.00000  Uiso   1.00
C95    C     0.76355   0.36074   0.58630   0.00000  Uiso   1.00
C96    C     0.81472   0.29725   0.52819   0.00000  Uiso   1.00
C97    C     0.88705   0.20832   0.42011   0.00000  Uiso   1.00
C98    C     0.67148   0.39578   0.75830   0.00000  Uiso   1.00
C99    C     0.59558   0.42690   0.79233   0.00000  Uiso   1.00
C100   C     0.56994   0.39366   0.82845   0.00000  Uiso   1.00
C101   C     0.50060   0.36055   0.89418   0.00000  Uiso   1.00
C102   C     0.76118   0.43560   0.74518   0.00000  Uiso   1.00
C103   C     0.76069   0.50021   0.76820   0.00000  Uiso   1.00
C104   C     0.81055   0.50050   0.79328   0.00000  Uiso   1.00
C105   C     0.88049   0.52921   0.83863   0.00000  Uiso   1.00
C106   C     0.80079   0.30884   0.71943   0.00000  Uiso   1.00
C107   C     0.81130   0.29773   0.64836   0.00000  Uiso   1.00
C108   C     0.86248   0.23422   0.59032   0.00000  Uiso   1.00
C109   C     0.86338   0.23502   0.53017   0.00000  Uiso   1.00
C110   C     0.72005   0.33367   0.76028   0.00000  Uiso   1.00
C111   C     0.69451   0.30038   0.79636   0.00000  Uiso   1.00
C112   C     0.61859   0.33143   0.83043   0.00000  Uiso   1.00
C113   C     0.80975   0.37349   0.74716   0.00000  Uiso   1.00
C114   C     0.85962   0.37368   0.77222   0.00000  Uiso   1.00
C115   C     0.85921   0.43827   0.79526   0.00000  Uiso   1.00
H116   H     0.67356   0.47156   0.71425   0.00000  Uiso   1.00
H117   H     0.72595   0.40882   0.58479   0.00000  Uiso   1.00
H118   H     0.55801   0.47497   0.79080   0.00000  Uiso   1.00
H119   H     0.72309   0.54826   0.76666   0.00000  Uiso   1.00
H120   H     0.80544   0.31187   0.44213   0.00000  Uiso   1.00
H121   H     0.45132   0.45137   0.87653   0.00000  Uiso   1.00
H122   H     0.79943   0.60591   0.82563   0.00000  Uiso   1.00
H123   H     0.83860   0.26048   0.72097   0.00000  Uiso   1.00
H124   H     0.90006   0.18616   0.59187   0.00000  Uiso   1.00
H125   H     0.73211   0.25231   0.79788   0.00000  Uiso   1.00
H126   H     0.89720   0.32560   0.77374   0.00000  Uiso   1.00
H127   H     0.94675   0.13114   0.44787   0.00000  Uiso   1.00
H128   H     0.59263   0.27064   0.88228   0.00000  Uiso   1.00
H129   H     0.94074   0.42519   0.83137   0.00000  Uiso   1.00
O130   O     0.91352   0.17642   0.35996   0.00000  Uiso   1.00
O131   O     0.44894   0.35944   0.92988   0.00000  Uiso   1.00
O132   O     0.90565   0.56220   0.86310   0.00000  Uiso   1.00
N133   N     0.83027   0.27954   0.46120   0.00000  Uiso   1.00
N134   N     0.49919   0.40995   0.86733   0.00000  Uiso   1.00
N135   N     0.82463   0.55445   0.81975   0.00000  Uiso   1.00
N136   N     0.90631   0.18229   0.46429   0.00000  Uiso   1.00
N137   N     0.57523   0.31271   0.87042   0.00000  Uiso   1.00
N138   N     0.90067   0.45720   0.82285   0.00000  Uiso   1.00
C139   C     0.59940   0.39436   0.21979   0.00000  Uiso   1.00
C140   C     0.66419   0.33942   0.15101   0.00000  Uiso   1.00
C141   C     0.66663   0.33679   0.08961   0.00000  Uiso   1.00
C142   C     0.73093   0.28237   0.03238   0.00000  Uiso   1.00
C143   C     0.82247   0.20468   0.92497   0.00000  Uiso   1.00
C144   C     0.62992   0.43038   0.25921   0.00000  Uiso   1.00
C145   C     0.60353   0.50422   0.28879   0.00000  Uiso   1.00
C146   C     0.63899   0.52638   0.32265   0.00000  Uiso   1.00
C147   C     0.67728   0.58991   0.38326   0.00000  Uiso   1.00
C148   C     0.57939   0.35029   0.25431   0.00000  Uiso   1.00
C149   C     0.51052   0.35679   0.27979   0.00000  Uiso   1.00
C150   C     0.50342   0.31152   0.30955   0.00000  Uiso   1.00
C151   C     0.46326   0.25069   0.36255   0.00000  Uiso   1.00
C152   C     0.70927   0.30242   0.22734   0.00000  Uiso   1.00
C153   C     0.72387   0.28948   0.15512   0.00000  Uiso   1.00
C154   C     0.78818   0.23506   0.09797   0.00000  Uiso   1.00
C155   C     0.79071   0.23234   0.03649   0.00000  Uiso   1.00
C156   C     0.68960   0.38045   0.26332   0.00000  Uiso   1.00
C157   C     0.72509   0.40250   0.29715   0.00000  Uiso   1.00
C158   C     0.69877   0.47635   0.32676   0.00000  Uiso   1.00
C159   C     0.63907   0.30034   0.25842   0.00000  Uiso   1.00
C160   C     0.63208   0.25506   0.28814   0.00000  Uiso   1.00
C161   C     0.56321   0.26149   0.31366   0.00000  Uiso   1.00
H162   H     0.55294   0.43325   0.21660   0.00000  Uiso   1.00
H163   H     0.62043   0.37545   0.08645   0.00000  Uiso   1.00
H164   H     0.55735   0.54286   0.28561   0.00000  Uiso   1.00
H165   H     0.46435   0.39544   0.27661   0.00000  Uiso   1.00
H166   H     0.72159   0.28936   0.94398   0.00000  Uiso   1.00
H167   H     0.58855   0.64235   0.36393   0.00000  Uiso   1.00
H168   H     0.39244   0.33151   0.34495   0.00000  Uiso   1.00
H169   H     0.75574   0.26354   0.23054   0.00000  Uiso   1.00
H170   H     0.83436   0.19642   0.10116   0.00000  Uiso   1.00
H171   H     0.77127   0.36384   0.30032   0.00000  Uiso   1.00
H172   H     0.67827   0.21642   0.29131   0.00000  Uiso   1.00
H173   H     0.89522   0.14406   0.95591   0.00000  Uiso   1.00
H174   H     0.76218   0.49706   0.37587   0.00000  Uiso   1.00
H175   H     0.56607   0.18620   0.35688   0.00000  Uiso   1.00
O176   O     0.85647   0.17563   0.86459   0.00000  Uiso   1.00
O177   O     0.68192   0.63875   0.41556   0.00000  Uiso   1.00
O178   O     0.42463   0.23092   0.39065   0.00000  Uiso   1.00
N179   N     0.75166   0.26436   0.96454   0.00000  Uiso   1.00
N180   N     0.62728   0.59439   0.35716   0.00000  Uiso   1.00
N181   N     0.44393   0.30379   0.33943   0.00000  Uiso   1.00
N182   N     0.84509   0.18618   0.97097   0.00000  Uiso   1.00
N183   N     0.72071   0.51621   0.36359   0.00000  Uiso   1.00
N184   N     0.53736   0.22560   0.34586   0.00000  Uiso   1.00
C185   C     0.25925   0.09251   0.01501   0.00000  Uiso   1.00
C186   C     0.19223   0.08579   0.01816   0.00000  Uiso   1.00
C187   C     0.16863   0.08145   0.96860   0.00000  Uiso   1.00
C188   C     0.10609   0.07553   0.98103   0.00000  Uiso   1.00
C189   C     0.00776   0.06529   0.97679   0.00000  Uiso   1.00
C190   C     0.30754   0.02915   0.02527   0.00000  Uiso   1.00
C191   C     0.38088   0.97718   0.98169   0.00000  Uiso   1.00
C192   C     0.41540   0.92359   0.00011   0.00000  Uiso   1.00
C193   C     0.49610   0.82545   0.00694   0.00000  Uiso   1.00
C194   C     0.23061   0.16069   0.07712   0.00000  Uiso   1.00
C195   C     0.23930   0.21931   0.07715   0.00000  Uiso   1.00
C196   C     0.20907   0.27646   0.13923   0.00000  Uiso   1.00
C197   C     0.17033   0.38254   0.22657   0.00000  Uiso   1.00
C198   C     0.19013   0.08975   0.12520   0.00000  Uiso   1.00
C199   C     0.15469   0.08429   0.07801   0.00000  Uiso   1.00
C200   C     0.09216   0.07839   0.09052   0.00000  Uiso   1.00
C201   C     0.06847   0.07403   0.04099   0.00000  Uiso   1.00
C202   C     0.26999   0.02765   0.08512   0.00000  Uiso   1.00
C203   C     0.30441   0.97412   0.10361   0.00000  Uiso   1.00
C204   C     0.37779   0.92209   0.06007   0.00000  Uiso   1.00
C205   C     0.19307   0.15919   0.13697   0.00000  Uiso   1.00
C206   C     0.16282   0.21625   0.19907   0.00000  Uiso   1.00
C207   C     0.17146   0.27495   0.19919   0.00000  Uiso   1.00
H208   H     0.28848   0.09368   0.96842   0.00000  Uiso   1.00
H209   H     0.19771   0.08260   0.92229   0.00000  Uiso   1.00
H210   H     0.40993   0.97837   0.93539   0.00000  Uiso   1.00
H211   H     0.26836   0.22046   0.03083   0.00000  Uiso   1.00
H212   H     0.08053   0.06964   0.89753   0.00000  Uiso   1.00
H213   H     0.52800   0.84986   0.92516   0.00000  Uiso   1.00
H214   H     0.22949   0.36035   0.12642   0.00000  Uiso   1.00
H215   H     0.16090   0.08857   0.17180   0.00000  Uiso   1.00
H216   H     0.06312   0.07722   0.13684   0.00000  Uiso   1.00
H217   H     0.27534   0.97298   0.14993   0.00000  Uiso   1.00
H218   H     0.13377   0.21507   0.24537   0.00000  Uiso   1.00
H219   H     0.97129   0.06527   0.07167   0.00000  Uiso   1.00
H220   H     0.41877   0.84549   0.09929   0.00000  Uiso   1.00
H221   H     0.12025   0.35598   0.30055   0.00000  Uiso   1.00
O222   O     0.96390   0.06005   0.95792   0.00000  Uiso   1.00
O223   O     0.55098   0.77172   0.99417   0.00000  Uiso   1.00
O224   O     0.15933   0.44147   0.25821   0.00000  Uiso   1.00
N225   N     0.06823   0.07018   0.94332   0.00000  Uiso   1.00
N226   N     0.48659   0.86469   0.96914   0.00000  Uiso   1.00
N227   N     0.20752   0.34195   0.15730   0.00000  Uiso   1.00
N228   N     0.00945   0.06783   0.03702   0.00000  Uiso   1.00
N229   N     0.42781   0.86234   0.06284   0.00000  Uiso   1.00
N230   N     0.14874   0.33960   0.25100   0.00000  Uiso   1.00
C231   C     0.12032   0.60915   0.86057   0.00000  Uiso   1.00
C232   C     0.13303   0.67314   0.87356   0.00000  Uiso   1.00
C233   C     0.13822   0.70853   0.83251   0.00000  Uiso   1.00
C234   C     0.14993   0.76586   0.85320   0.00000  Uiso   1.00
C235   C     0.16867   0.86202   0.86432   0.00000  Uiso   1.00
C236   C     0.05153   0.63221   0.92247   0.00000  Uiso   1.00
C237   C     0.98821   0.63317   0.92252   0.00000  Uiso   1.00
C238   C     0.93133   0.65603   0.98439   0.00000  Uiso   1.00
C239   C     0.82358   0.68859   0.07143   0.00000  Uiso   1.00
C240   C     0.18432   0.54876   0.86090   0.00000  Uiso   1.00
C241   C     0.23263   0.47956   0.80919   0.00000  Uiso   1.00
C242   C     0.28754   0.43216   0.81922   0.00000  Uiso   1.00
C243   C     0.38595   0.33517   0.81067   0.00000  Uiso   1.00
C244   C     0.13190   0.64803   0.97033   0.00000  Uiso   1.00
C245   C     0.13932   0.69426   0.93318   0.00000  Uiso   1.00
C246   C     0.15103   0.75154   0.95394   0.00000  Uiso   1.00
C247   C     0.15624   0.78701   0.91292   0.00000  Uiso   1.00
C248   C     0.05783   0.65332   0.98209   0.00000  Uiso   1.00
C249   C     0.00103   0.67618   0.04396   0.00000  Uiso   1.00
C250   C     0.93764   0.67718   0.04411   0.00000  Uiso   1.00
C251   C     0.19061   0.56988   0.92052   0.00000  Uiso   1.00
C252   C     0.24545   0.52258   0.93063   0.00000  Uiso   1.00
C253   C     0.29384   0.45331   0.87895   0.00000  Uiso   1.00
H254   H     0.11541   0.59272   0.81416   0.00000  Uiso   1.00
H255   H     0.13334   0.69218   0.78638   0.00000  Uiso   1.00
H256   H     0.98336   0.61682   0.87638   0.00000  Uiso   1.00
H257   H     0.22775   0.46324   0.76306   0.00000  Uiso   1.00
H258   H     0.15595   0.81178   0.78188   0.00000  Uiso   1.00
H259   H     0.83973   0.65286   0.97165   0.00000  Uiso   1.00
H260   H     0.35506   0.32900   0.73270   0.00000  Uiso   1.00
H261   H     0.13680   0.66447   0.01675   0.00000  Uiso   1.00
H262   H     0.15590   0.76787   0.00008   0.00000  Uiso   1.00
H263   H     0.00592   0.69251   0.09009   0.00000  Uiso   1.00
H264   H     0.25030   0.53893   0.97677   0.00000  Uiso   1.00
H265   H     0.17426   0.87322   0.95533   0.00000  Uiso   1.00
H266   H     0.85804   0.71429   0.14511   0.00000  Uiso   1.00
H267   H     0.37337   0.39044   0.90616   0.00000  Uiso   1.00
O268   O     0.17726   0.90924   0.85400   0.00000  Uiso   1.00
O269   O     0.76240   0.70072   0.10297   0.00000  Uiso   1.00
O270   O     0.43850   0.27584   0.78948   0.00000  Uiso   1.00
N271   N     0.15766   0.81204   0.82498   0.00000  Uiso   1.00
N272   N     0.86200   0.66347   0.00241   0.00000  Uiso   1.00
N273   N     0.34378   0.36068   0.77902   0.00000  Uiso   1.00
N274   N     0.16751   0.84510   0.91831   0.00000  Uiso   1.00
N275   N     0.87186   0.69653   0.09574   0.00000  Uiso   1.00
N276   N     0.35364   0.39374   0.87235   0.00000  Uiso   1.00
C277   C     0.10997   0.25537   0.46589   0.00000  Uiso   1.00
C278   C     0.09172   0.20271   0.48729   0.00000  Uiso   1.00
C279   C     0.07616   0.20254   0.55004   0.00000  Uiso   1.00
C280   C     0.06082   0.14995   0.55967   0.00000  Uiso   1.00
C281   C     0.03240   0.07590   0.60071   0.00000  Uiso   1.00
C282   C     0.05396   0.29079   0.44197   0.00000  Uiso   1.00
C283   C     0.00666   0.36469   0.46662   0.00000  Uiso   1.00
C284   C     0.95955   0.38624   0.43809   0.00000  Uiso   1.00
C285   C     0.87255   0.44894   0.40874   0.00000  Uiso   1.00
C286   C     0.18452   0.20880   0.40365   0.00000  Uiso   1.00
C287   C     0.24700   0.21377   0.39607   0.00000  Uiso   1.00
C288   C     0.30980   0.16630   0.33527   0.00000  Uiso   1.00
C289   C     0.42552   0.10170   0.24643   0.00000  Uiso   1.00
C290   C     0.11040   0.16226   0.37138   0.00000  Uiso   1.00
C291   C     0.09195   0.15214   0.43595   0.00000  Uiso   1.00
C292   C     0.07664   0.09953   0.44548   0.00000  Uiso   1.00
C293   C     0.06106   0.09928   0.50825   0.00000  Uiso   1.00
C294   C     0.05419   0.24022   0.39064   0.00000  Uiso   1.00
C295   C     0.00714   0.26167   0.36206   0.00000  Uiso   1.00
C296   C     0.95978   0.33557   0.38666   0.00000  Uiso   1.00
C297   C     0.18476   0.15822   0.35232   0.00000  Uiso   1.00
C298   C     0.24747   0.11075   0.29151   0.00000  Uiso   1.00
C299   C     0.31003   0.11564   0.28384   0.00000  Uiso   1.00
H300   H     0.10979   0.29474   0.50585   0.00000  Uiso   1.00
H301   H     0.07598   0.24170   0.58976   0.00000  Uiso   1.00
H302   H     0.00650   0.40381   0.50634   0.00000  Uiso   1.00
H303   H     0.24679   0.25291   0.43580   0.00000  Uiso   1.00
H304   H     0.03857   0.16060   0.66015   0.00000  Uiso   1.00
H305   H     0.89209   0.50242   0.48424   0.00000  Uiso   1.00
H306   H     0.39880   0.18423   0.33551   0.00000  Uiso   1.00
H307   H     0.11058   0.12288   0.33142   0.00000  Uiso   1.00
H308   H     0.07682   0.06040   0.40575   0.00000  Uiso   1.00
H309   H     0.00734   0.22252   0.32233   0.00000  Uiso   1.00
H310   H     0.24763   0.07162   0.25180   0.00000  Uiso   1.00
H311   H     0.03925   0.01345   0.51081   0.00000  Uiso   1.00
H312   H     0.89277   0.35528   0.33490   0.00000  Uiso   1.00
H313   H     0.39948   0.03708   0.18616   0.00000  Uiso   1.00
O314   O     0.01666   0.04904   0.63754   0.00000  Uiso   1.00
O315   O     0.82450   0.49750   0.40674   0.00000  Uiso   1.00
O316   O     0.48928   0.08003   0.21161   0.00000  Uiso   1.00
N317   N     0.04338   0.13453   0.61480   0.00000  Uiso   1.00
N318   N     0.90642   0.45412   0.45034   0.00000  Uiso   1.00
N319   N     0.38015   0.15664   0.31128   0.00000  Uiso   1.00
N320   N     0.04374   0.05535   0.53444   0.00000  Uiso   1.00
N321   N     0.90679   0.37494   0.36998   0.00000  Uiso   1.00
N322   N     0.38051   0.07747   0.23092   0.00000  Uiso   1.00
C323   C     0.59224   0.15826   0.50715   0.00000  Uiso   1.00
C324   C     0.62011   0.15577   0.55999   0.00000  Uiso   1.00
C325   C     0.58002   0.16649   0.62455   0.00000  Uiso   1.00
C326   C     0.61540   0.16198   0.66525   0.00000  Uiso   1.00
C327   C     0.64761   0.16031   0.75079   0.00000  Uiso   1.00
C328   C     0.64645   0.08556   0.44595   0.00000  Uiso   1.00
C329   C     0.62850   0.03726   0.41463   0.00000  Uiso   1.00
C330   C     0.68605   0.97365   0.35933   0.00000  Uiso   1.00
C331   C     0.75914   0.86301   0.26779   0.00000  Uiso   1.00
C332   C     0.60207   0.21488   0.48638   0.00000  Uiso   1.00
C333   C     0.54681   0.27531   0.48903   0.00000  Uiso   1.00
C334   C     0.56701   0.32057   0.46775   0.00000  Uiso   1.00
C335   C     0.57120   0.41072   0.43899   0.00000  Uiso   1.00
C336   C     0.72637   0.13117   0.46463   0.00000  Uiso   1.00
C337   C     0.69297   0.14105   0.53689   0.00000  Uiso   1.00
C338   C     0.72842   0.13652   0.57751   0.00000  Uiso   1.00
C339   C     0.68839   0.14724   0.64212   0.00000  Uiso   1.00
C340   C     0.71930   0.07085   0.42286   0.00000  Uiso   1.00
C341   C     0.77690   0.00730   0.36758   0.00000  Uiso   1.00
C342   C     0.75904   0.95891   0.33619   0.00000  Uiso   1.00
C343   C     0.67493   0.20017   0.46328   0.00000  Uiso   1.00
C344   C     0.69522   0.24534   0.44199   0.00000  Uiso   1.00
C345   C     0.63999   0.30583   0.44461   0.00000  Uiso   1.00
H346   H     0.53552   0.16971   0.52513   0.00000  Uiso   1.00
H347   H     0.52364   0.17787   0.64240   0.00000  Uiso   1.00
H348   H     0.57211   0.04867   0.43251   0.00000  Uiso   1.00
H349   H     0.49044   0.28668   0.50690   0.00000  Uiso   1.00
H350   H     0.54261   0.18040   0.76222   0.00000  Uiso   1.00
H351   H     0.64481   0.90798   0.31964   0.00000  Uiso   1.00
H352   H     0.47258   0.40987   0.47651   0.00000  Uiso   1.00
H353   H     0.78310   0.11972   0.44665   0.00000  Uiso   1.00
H354   H     0.78480   0.12514   0.55962   0.00000  Uiso   1.00
H355   H     0.83327   0.99593   0.34972   0.00000  Uiso   1.00
H356   H     0.75160   0.23394   0.42412   0.00000  Uiso   1.00
H357   H     0.75458   0.13760   0.69503   0.00000  Uiso   1.00
H358   H     0.85678   0.86518   0.25245   0.00000  Uiso   1.00
H359   H     0.68456   0.36706   0.40932   0.00000  Uiso   1.00
O360   O     0.64526   0.16344   0.80435   0.00000  Uiso   1.00
O361   O     0.77933   0.80605   0.22369   0.00000  Uiso   1.00
O362   O     0.55338   0.46451   0.42951   0.00000  Uiso   1.00
N363   N     0.59226   0.16960   0.73091   0.00000  Uiso   1.00
N364   N     0.68781   0.91490   0.31713   0.00000  Uiso   1.00
N365   N     0.52680   0.38411   0.46377   0.00000  Uiso   1.00
N366   N     0.70632   0.14657   0.69476   0.00000  Uiso   1.00
N367   N     0.80187   0.89187   0.28097   0.00000  Uiso   1.00
N368   N     0.64086   0.36108   0.42762   0.00000  Uiso   1.00
C369   C     0.32621   0.57355   0.12265   0.00000  Uiso   1.00
C370   C     0.29034   0.62467   0.19688   0.00000  Uiso   1.00
C371   C     0.31570   0.61123   0.24298   0.00000  Uiso   1.00
C372   C     0.27510   0.66485   0.30853   0.00000  Uiso   1.00
C373   C     0.22911   0.73439   0.42094   0.00000  Uiso   1.00
C374   C     0.34121   0.61637   0.08398   0.00000  Uiso   1.00
C375   C     0.40934   0.59595   0.03515   0.00000  Uiso   1.00
C376   C     0.41156   0.64257   0.00565   0.00000  Uiso   1.00
C377   C     0.44454   0.69921   0.94275   0.00000  Uiso   1.00
C378   C     0.26676   0.56125   0.11069   0.00000  Uiso   1.00
C379   C     0.27230   0.49448   0.08429   0.00000  Uiso   1.00
C380   C     0.21185   0.49470   0.07727   0.00000  Uiso   1.00
C381   C     0.12924   0.46575   0.05583   0.00000  Uiso   1.00
C382   C     0.20900   0.69266   0.15710   0.00000  Uiso   1.00
C383   C     0.22668   0.68937   0.21559   0.00000  Uiso   1.00
C384   C     0.18603   0.74301   0.28109   0.00000  Uiso   1.00
C385   C     0.21132   0.72966   0.32728   0.00000  Uiso   1.00
C386   C     0.27755   0.68106   0.10269   0.00000  Uiso   1.00
C387   C     0.27967   0.72773   0.07326   0.00000  Uiso   1.00
C388   C     0.34779   0.70739   0.02440   0.00000  Uiso   1.00
C389   C     0.20310   0.62594   0.12940   0.00000  Uiso   1.00
C390   C     0.14263   0.62627   0.12241   0.00000  Uiso   1.00
C391   C     0.14808   0.55951   0.09601   0.00000  Uiso   1.00
H392   H     0.37577   0.52318   0.10808   0.00000  Uiso   1.00
H393   H     0.36497   0.56116   0.22848   0.00000  Uiso   1.00
H394   H     0.45860   0.54587   0.02067   0.00000  Uiso   1.00
H395   H     0.32157   0.44442   0.06982   0.00000  Uiso   1.00
H396   H     0.32494   0.63180   0.37021   0.00000  Uiso   1.00
H397   H     0.52235   0.59956   0.93203   0.00000  Uiso   1.00
H398   H     0.23341   0.38563   0.03565   0.00000  Uiso   1.00
H399   H     0.15944   0.74304   0.17167   0.00000  Uiso   1.00
H400   H     0.13677   0.79308   0.29556   0.00000  Uiso   1.00
H401   H     0.23040   0.77779   0.08775   0.00000  Uiso   1.00
H402   H     0.09337   0.67634   0.13689   0.00000  Uiso   1.00
H403   H     0.13972   0.82004   0.42465   0.00000  Uiso   1.00
H404   H     0.33713   0.78779   0.98646   0.00000  Uiso   1.00
H405   H     0.04820   0.57387   0.09009   0.00000  Uiso   1.00
O406   O     0.22133   0.75488   0.47777   0.00000  Uiso   1.00
O407   O     0.48033   0.71257   0.90289   0.00000  Uiso   1.00
O408   O     0.10125   0.43191   0.03885   0.00000  Uiso   1.00
N409   N     0.28445   0.66923   0.36602   0.00000  Uiso   1.00
N410   N     0.46902   0.63909   0.95635   0.00000  Uiso   1.00
N411   N     0.19890   0.43909   0.05322   0.00000  Uiso   1.00
N412   N     0.18479   0.77052   0.39532   0.00000  Uiso   1.00
N413   N     0.36936   0.74038   0.98565   0.00000  Uiso   1.00
N414   N     0.09923   0.54037   0.08251   0.00000  Uiso   1.00
C415   C     0.51805   0.74073   0.61563   0.00000  Uiso   1.00
C416   C     0.46115   0.78055   0.68930   0.00000  Uiso   1.00
C417   C     0.46782   0.75922   0.73952   0.00000  Uiso   1.00
C418   C     0.40970   0.80302   0.80373   0.00000  Uiso   1.00
C419   C     0.33084   0.85527   0.91608   0.00000  Uiso   1.00
C420   C     0.47781   0.72537   0.57545   0.00000  Uiso   1.00
C421   C     0.49849   0.65764   0.52993   0.00000  Uiso   1.00
C422   C     0.45440   0.65499   0.49831   0.00000  Uiso   1.00
C423   C     0.40144   0.62159   0.43386   0.00000  Uiso   1.00
C424   C     0.53631   0.79556   0.59910   0.00000  Uiso   1.00
C425   C     0.60619   0.78683   0.57345   0.00000  Uiso   1.00
C426   C     0.61135   0.84327   0.56171   0.00000  Uiso   1.00
C427   C     0.64923   0.91883   0.53398   0.00000  Uiso   1.00
C428   C     0.40297   0.85645   0.64038   0.00000  Uiso   1.00
C429   C     0.39865   0.84341   0.70274   0.00000  Uiso   1.00
C430   C     0.34050   0.88725   0.76691   0.00000  Uiso   1.00
C431   C     0.34708   0.86598   0.81721   0.00000  Uiso   1.00
C432   C     0.41531   0.78822   0.58890   0.00000  Uiso   1.00
C433   C     0.37118   0.78567   0.55732   0.00000  Uiso   1.00
C434   C     0.39178   0.71796   0.51178   0.00000  Uiso   1.00
C435   C     0.47381   0.85841   0.61255   0.00000  Uiso   1.00
C436   C     0.47887   0.91486   0.60084   0.00000  Uiso   1.00
C437   C     0.54873   0.90623   0.57518   0.00000  Uiso   1.00
H438   H     0.56671   0.69179   0.60516   0.00000  Uiso   1.00
H439   H     0.51620   0.71057   0.72909   0.00000  Uiso   1.00
H440   H     0.54687   0.60902   0.51953   0.00000  Uiso   1.00
H441   H     0.65454   0.73819   0.56305   0.00000  Uiso   1.00
H442   H     0.43262   0.75909   0.87241   0.00000  Uiso   1.00
H443   H     0.49731   0.54496   0.43054   0.00000  Uiso   1.00
H444   H     0.72436   0.81734   0.52229   0.00000  Uiso   1.00
H445   H     0.35431   0.90538   0.65085   0.00000  Uiso   1.00
H446   H     0.29214   0.93588   0.77730   0.00000  Uiso   1.00
H447   H     0.32281   0.83432   0.56774   0.00000  Uiso   1.00
H448   H     0.43049   0.96349   0.61125   0.00000  Uiso   1.00
H449   H     0.25076   0.94196   0.91154   0.00000  Uiso   1.00
H450   H     0.31546   0.72783   0.46967   0.00000  Uiso   1.00
H451   H     0.54251   0.00021   0.56142   0.00000  Uiso   1.00
O452   O     0.30461   0.86673   0.97433   0.00000  Uiso   1.00
O453   O     0.38950   0.58579   0.39460   0.00000  Uiso   1.00
O454   O     0.68738   0.94315   0.51498   0.00000  Uiso   1.00
N455   N     0.39836   0.79795   0.86427   0.00000  Uiso   1.00
N456   N     0.45883   0.59775   0.45116   0.00000  Uiso   1.00
N457   N     0.67111   0.85240   0.53692   0.00000  Uiso   1.00
N458   N     0.30050   0.89636   0.88533   0.00000  Uiso   1.00
N459   N     0.36098   0.69615   0.47221   0.00000  Uiso   1.00
N460   N     0.57326   0.95080   0.55797   0.00000  Uiso   1.00
C461   C     0.60869   0.02003   0.04219   0.00000  Uiso   1.00
C462   C     0.67378   0.02889   0.04254   0.00000  Uiso   1.00
C463   C     0.69423   0.03457   0.09415   0.00000  Uiso   1.00
C464   C     0.75544   0.04237   0.08483   0.00000  Uiso   1.00
C465   C     0.85051   0.05585   0.09433   0.00000  Uiso   1.00
C466   C     0.56123   0.08250   0.03047   0.00000  Uiso   1.00
C467   C     0.48704   0.13324   0.07193   0.00000  Uiso   1.00
C468   C     0.45351   0.18616   0.05244   0.00000  Uiso   1.00
C469   C     0.37382   0.28283   0.04319   0.00000  Uiso   1.00
C470   C     0.64064   0.95129   0.97932   0.00000  Uiso   1.00
C471   C     0.63321   0.89172   0.97777   0.00000  Uiso   1.00
C472   C     0.66653   0.83418   0.91522   0.00000  Uiso   1.00
C473   C     0.71014   0.72713   0.82655   0.00000  Uiso   1.00
C474   C     0.68104   0.02378   0.93385   0.00000  Uiso   1.00
C475   C     0.71307   0.03093   0.98369   0.00000  Uiso   1.00
C476   C     0.77427   0.03872   0.97428   0.00000  Uiso   1.00
C477   C     0.79481   0.04441   0.02587   0.00000  Uiso   1.00
C478   C     0.60052   0.08453   0.97163   0.00000  Uiso   1.00
C479   C     0.56709   0.13739   0.95207   0.00000  Uiso   1.00
C480   C     0.49287   0.18820   0.99349   0.00000  Uiso   1.00
C481   C     0.67994   0.95332   0.92047   0.00000  Uiso   1.00
C482   C     0.71326   0.89587   0.85791   0.00000  Uiso   1.00
C483   C     0.70589   0.83622   0.85627   0.00000  Uiso   1.00
H484   H     0.57809   0.01845   0.08800   0.00000  Uiso   1.00
H485   H     0.66380   0.03300   0.13969   0.00000  Uiso   1.00
H486   H     0.45664   0.13165   0.11746   0.00000  Uiso   1.00
H487   H     0.60280   0.89016   0.02332   0.00000  Uiso   1.00
H488   H     0.77613   0.05005   0.17104   0.00000  Uiso   1.00
H489   H     0.33933   0.25804   0.12418   0.00000  Uiso   1.00
H490   H     0.64752   0.74883   0.92566   0.00000  Uiso   1.00
H491   H     0.71163   0.02537   0.88803   0.00000  Uiso   1.00
H492   H     0.80467   0.04029   0.92874   0.00000  Uiso   1.00
H493   H     0.59751   0.13894   0.90652   0.00000  Uiso   1.00
H494   H     0.74367   0.89746   0.81238   0.00000  Uiso   1.00
H495   H     0.89047   0.05598   0.99983   0.00000  Uiso   1.00
H496   H     0.45366   0.26397   0.95297   0.00000  Uiso   1.00
H497   H     0.76186   0.75475   0.75445   0.00000  Uiso   1.00
O498   O     0.89208   0.06273   0.11583   0.00000  Uiso   1.00
O499   O     0.31901   0.33560   0.05435   0.00000  Uiso   1.00
O500   O     0.72335   0.66752   0.79390   0.00000  Uiso   1.00
N501   N     0.79028   0.04939   0.12516   0.00000  Uiso   1.00
N502   N     0.38190   0.24385   0.08135   0.00000  Uiso   1.00
N503   N     0.67002   0.76778   0.89575   0.00000  Uiso   1.00
N504   N     0.85181   0.05257   0.03303   0.00000  Uiso   1.00
N505   N     0.44342   0.24704   0.98922   0.00000  Uiso   1.00
N506   N     0.73154   0.77097   0.80362   0.00000  Uiso   1.00
C507   C     0.91767   0.43925   0.00312   0.00000  Uiso   1.00
C508   C     0.91760   0.39691   0.04552   0.00000  Uiso   1.00
C509   C     0.90718   0.42122   0.11143   0.00000  Uiso   1.00
C510   C     0.90908   0.37434   0.14144   0.00000  Uiso   1.00
C511   C     0.90720   0.31903   0.21255   0.00000  Uiso   1.00
C512   C     0.99145   0.39162   0.94006   0.00000  Uiso   1.00
C513   C     0.04312   0.41148   0.91730   0.00000  Uiso   1.00
C514   C     0.10717   0.36014   0.85854   0.00000  Uiso   1.00
C515   C     0.21992   0.29664   0.76589   0.00000  Uiso   1.00
C516   C     0.85897   0.44255   0.97998   0.00000  Uiso   1.00
C517   C     0.79925   0.50523   0.99078   0.00000  Uiso   1.00
C518   C     0.75178   0.49677   0.96561   0.00000  Uiso   1.00
C519   C     0.65883   0.51234   0.93495   0.00000  Uiso   1.00
C520   C     0.93955   0.31277   0.93921   0.00000  Uiso   1.00
C521   C     0.92948   0.32821   0.01080   0.00000  Uiso   1.00
C522   C     0.93139   0.28128   0.04073   0.00000  Uiso   1.00
C523   C     0.92098   0.30551   0.10667   0.00000  Uiso   1.00
C524   C     0.00333   0.32292   0.90535   0.00000  Uiso   1.00
C525   C     0.06732   0.27154   0.84660   0.00000  Uiso   1.00
C526   C     0.11908   0.29132   0.82377   0.00000  Uiso   1.00
C527   C     0.87085   0.37385   0.94527   0.00000  Uiso   1.00
C528   C     0.82346   0.36529   0.92008   0.00000  Uiso   1.00
C529   C     0.76369   0.42795   0.93084   0.00000  Uiso   1.00
H530   H     0.90842   0.49274   0.03014   0.00000  Uiso   1.00
H531   H     0.89799   0.47439   0.13827   0.00000  Uiso   1.00
H532   H     0.03390   0.46465   0.94417   0.00000  Uiso   1.00
H533   H     0.79008   0.55839   0.01764   0.00000  Uiso   1.00
H534   H     0.89170   0.42374   0.24284   0.00000  Uiso   1.00
H535   H     0.17826   0.40322   0.83356   0.00000  Uiso   1.00
H536   H     0.66411   0.60088   0.98848   0.00000  Uiso   1.00
H537   H     0.94880   0.25928   0.91219   0.00000  Uiso   1.00
H538   H     0.94059   0.22812   0.01385   0.00000  Uiso   1.00
H539   H     0.07650   0.21838   0.81975   0.00000  Uiso   1.00
H540   H     0.83268   0.31212   0.89322   0.00000  Uiso   1.00
H541   H     0.92628   0.22385   0.14186   0.00000  Uiso   1.00
H542   H     0.21284   0.20334   0.73258   0.00000  Uiso   1.00
H543   H     0.69868   0.40099   0.88750   0.00000  Uiso   1.00
O544   O     0.90289   0.30750   0.26135   0.00000  Uiso   1.00
O545   O     0.27883   0.28058   0.72439   0.00000  Uiso   1.00
O546   O     0.60427   0.53991   0.92764   0.00000  Uiso   1.00
N547   N     0.90095   0.38097   0.20513   0.00000  Uiso   1.00
N548   N     0.16887   0.36179   0.82248   0.00000  Uiso   1.00
N549   N     0.68819   0.54658   0.96730   0.00000  Uiso   1.00
N550   N     0.91956   0.27342   0.15079   0.00000  Uiso   1.00
N551   N     0.18748   0.25423   0.76814   0.00000  Uiso   1.00
N552   N     0.70680   0.43903   0.91297   0.00000  Uiso   1.00
