data_job_05914
_audit_creation_date              2018-12-19
_audit_creation_method            'Materials Studio'
_symmetry_space_group_name_H-M    'P1'
_symmetry_Int_Tables_number       1
_symmetry_cell_setting            triclinic
loop_
_symmetry_equiv_pos_as_xyz
  x,y,z
_cell_length_a                    15.6688
_cell_length_b                    15.2918
_cell_length_c                    14.1699
_cell_angle_alpha                 96.1600
_cell_angle_beta                  96.2497
_cell_angle_gamma                 93.9819
loop_
_atom_site_label
_atom_site_type_symbol
_atom_site_fract_x
_atom_site_fract_y
_atom_site_fract_z
_atom_site_U_iso_or_equiv
_atom_site_adp_type
_atom_site_occupancy
C1     C     0.35979   0.02585   0.69017   0.00000  Uiso   1.00
C2     C     0.36169   0.12046   0.66518   0.00000  Uiso   1.00
C3     C     0.31424   0.14902   0.58748   0.00000  Uiso   1.00
C4     C     0.32505   0.23822   0.57705   0.00000  Uiso   1.00
C5     C     0.31948   0.37622   0.52833   0.00000  Uiso   1.00
C6     C     0.45271   0.00125   0.69538   0.00000  Uiso   1.00
C7     C     0.48178   0.92958   0.64309   0.00000  Uiso   1.00
C8     C     0.56921   0.91843   0.65810   0.00000  Uiso   1.00
C9     C     0.70493   0.87132   0.65632   0.00000  Uiso   1.00
C10    C     0.33595   0.02959   0.79195   0.00000  Uiso   1.00
C11    C     0.26686   0.98174   0.82086   0.00000  Uiso   1.00
C12    C     0.25600   0.99443   0.91718   0.00000  Uiso   1.00
C13    C     0.21044   0.99132   0.06534   0.00000  Uiso   1.00
C14    C     0.46336   0.13346   0.80983   0.00000  Uiso   1.00
C15    C     0.41795   0.17890   0.73017   0.00000  Uiso   1.00
C16    C     0.42883   0.26808   0.71986   0.00000  Uiso   1.00
C17    C     0.38140   0.29678   0.64216   0.00000  Uiso   1.00
C18    C     0.50897   0.05970   0.76037   0.00000  Uiso   1.00
C19    C     0.59637   0.04865   0.77547   0.00000  Uiso   1.00
C20    C     0.62557   0.97699   0.72321   0.00000  Uiso   1.00
C21    C     0.39220   0.08804   0.85695   0.00000  Uiso   1.00
C22    C     0.38145   0.10080   0.95324   0.00000  Uiso   1.00
C23    C     0.31236   0.05298   0.98229   0.00000  Uiso   1.00
H24    H     0.31599   0.98034   0.63958   0.00000  Uiso   1.00
H25    H     0.27072   0.10377   0.53719   0.00000  Uiso   1.00
H26    H     0.43823   0.88436   0.59281   0.00000  Uiso   1.00
H27    H     0.22334   0.93651   0.77055   0.00000  Uiso   1.00
H28    H     0.24535   0.26638   0.45233   0.00000  Uiso   1.00
H29    H     0.59855   0.80373   0.56961   0.00000  Uiso   1.00
H30    H     0.14542   0.91369   0.94442   0.00000  Uiso   1.00
H31    H     0.50716   0.17897   0.86043   0.00000  Uiso   1.00
H32    H     0.47237   0.31330   0.77017   0.00000  Uiso   1.00
H33    H     0.63989   0.09389   0.82578   0.00000  Uiso   1.00
H34    H     0.42500   0.14604   0.00352   0.00000  Uiso   1.00
H35    H     0.40903   0.43644   0.64142   0.00000  Uiso   1.00
H36    H     0.76223   0.97379   0.75870   0.00000  Uiso   1.00
H37    H     0.30910   0.08376   0.13350   0.00000  Uiso   1.00
O38    O     0.30087   0.43618   0.48349   0.00000  Uiso   1.00
O39    O     0.76426   0.82920   0.63737   0.00000  Uiso   1.00
O40    O     0.16976   0.97347   0.12911   0.00000  Uiso   1.00
N41    N     0.28863   0.28797   0.50923   0.00000  Uiso   1.00
N42    N     0.61886   0.85543   0.61886   0.00000  Uiso   1.00
N43    N     0.19523   0.95822   0.96928   0.00000  Uiso   1.00
N44    N     0.37670   0.37948   0.61098   0.00000  Uiso   1.00
N45    N     0.70693   0.94694   0.72061   0.00000  Uiso   1.00
N46    N     0.28330   0.04973   0.07103   0.00000  Uiso   1.00
C47    C     0.70056   0.36123   0.02738   0.00000  Uiso   1.00
C48    C     0.67680   0.36463   0.12917   0.00000  Uiso   1.00
C49    C     0.60741   0.31708   0.15786   0.00000  Uiso   1.00
C50    C     0.59666   0.32941   0.25423   0.00000  Uiso   1.00
C51    C     0.55112   0.32593   0.40236   0.00000  Uiso   1.00
C52    C     0.70309   0.45606   0.00304   0.00000  Uiso   1.00
C53    C     0.65583   0.48536   0.92566   0.00000  Uiso   1.00
C54    C     0.66722   0.57465   0.91584   0.00000  Uiso   1.00
C55    C     0.66256   0.71309   0.86810   0.00000  Uiso   1.00
C56    C     0.79325   0.33597   0.03223   0.00000  Uiso   1.00
C57    C     0.82179   0.26431   0.97939   0.00000  Uiso   1.00
C58    C     0.90910   0.25250   0.99414   0.00000  Uiso   1.00
C59    C     0.04441   0.20448   0.99173   0.00000  Uiso   1.00
C60    C     0.80485   0.46768   0.14749   0.00000  Uiso   1.00
C61    C     0.73345   0.42246   0.19441   0.00000  Uiso   1.00
C62    C     0.72280   0.43485   0.29076   0.00000  Uiso   1.00
C63    C     0.65341   0.38733   0.31959   0.00000  Uiso   1.00
C64    C     0.75974   0.51388   0.06828   0.00000  Uiso   1.00
C65    C     0.77122   0.60314   0.05856   0.00000  Uiso   1.00
C66    C     0.72397   0.63258   0.98120   0.00000  Uiso   1.00
C67    C     0.84990   0.39378   0.09748   0.00000  Uiso   1.00
C68    C     0.93718   0.38208   0.11230   0.00000  Uiso   1.00
C69    C     0.96585   0.31043   0.05950   0.00000  Uiso   1.00
H70    H     0.65645   0.31622   0.97658   0.00000  Uiso   1.00
H71    H     0.56358   0.27235   0.10735   0.00000  Uiso   1.00
H72    H     0.61200   0.44060   0.87518   0.00000  Uiso   1.00
H73    H     0.77793   0.21958   0.92891   0.00000  Uiso   1.00
H74    H     0.48558   0.24923   0.28110   0.00000  Uiso   1.00
H75    H     0.58769   0.60400   0.79154   0.00000  Uiso   1.00
H76    H     0.93760   0.13793   0.90484   0.00000  Uiso   1.00
H77    H     0.84896   0.51270   0.19829   0.00000  Uiso   1.00
H78    H     0.76665   0.47960   0.34123   0.00000  Uiso   1.00
H79    H     0.81506   0.64786   0.10906   0.00000  Uiso   1.00
H80    H     0.98100   0.42684   0.16279   0.00000  Uiso   1.00
H81    H     0.65039   0.41745   0.47092   0.00000  Uiso   1.00
H82    H     0.75251   0.77222   0.98136   0.00000  Uiso   1.00
H83    H     0.10241   0.30615   0.09467   0.00000  Uiso   1.00
O84    O     0.51035   0.30804   0.46604   0.00000  Uiso   1.00
O85    O     0.64433   0.77348   0.82375   0.00000  Uiso   1.00
O86    O     0.10340   0.16202   0.97240   0.00000  Uiso   1.00
N87    N     0.53567   0.29335   0.30616   0.00000  Uiso   1.00
N88    N     0.63113   0.62504   0.84846   0.00000  Uiso   1.00
N89    N     0.95827   0.18932   0.95437   0.00000  Uiso   1.00
N90    N     0.62436   0.38386   0.40830   0.00000  Uiso   1.00
N91    N     0.71982   0.71555   0.95061   0.00000  Uiso   1.00
N92    N     0.04696   0.27984   0.05651   0.00000  Uiso   1.00
C93    C     0.02578   0.69723   0.35855   0.00000  Uiso   1.00
C94    C     0.11849   0.67204   0.36305   0.00000  Uiso   1.00
C95    C     0.14684   0.60009   0.31052   0.00000  Uiso   1.00
C96    C     0.23418   0.58839   0.32488   0.00000  Uiso   1.00
C97    C     0.36948   0.54039   0.32207   0.00000  Uiso   1.00
C98    C     0.00260   0.70128   0.46061   0.00000  Uiso   1.00
C99    C     0.93349   0.65392   0.49011   0.00000  Uiso   1.00
C100   C     0.92327   0.66685   0.58659   0.00000  Uiso   1.00
C101   C     0.87860   0.66429   0.73523   0.00000  Uiso   1.00
C102   C     0.02802   0.79181   0.33348   0.00000  Uiso   1.00
C103   C     0.98027   0.82059   0.25610   0.00000  Uiso   1.00
C104   C     0.99144   0.90974   0.24556   0.00000  Uiso   1.00
C105   C     0.98623   0.04775   0.19682   0.00000  Uiso   1.00
C106   C     0.13049   0.80440   0.47744   0.00000  Uiso   1.00
C107   C     0.17536   0.73025   0.42762   0.00000  Uiso   1.00
C108   C     0.26269   0.71866   0.44206   0.00000  Uiso   1.00
C109   C     0.29116   0.64670   0.38956   0.00000  Uiso   1.00
C110   C     0.05947   0.75949   0.52518   0.00000  Uiso   1.00
C111   C     0.04934   0.77249   0.62164   0.00000  Uiso   1.00
C112   C     0.98025   0.72516   0.65128   0.00000  Uiso   1.00
C113   C     0.08489   0.85002   0.39805   0.00000  Uiso   1.00
C114   C     0.09612   0.93915   0.38764   0.00000  Uiso   1.00
C115   C     0.04841   0.96805   0.31025   0.00000  Uiso   1.00
H116   H     0.98150   0.65191   0.30828   0.00000  Uiso   1.00
H117   H     0.10280   0.55505   0.26056   0.00000  Uiso   1.00
H118   H     0.88949   0.60889   0.44012   0.00000  Uiso   1.00
H119   H     0.93627   0.77552   0.20615   0.00000  Uiso   1.00
H120   H     0.26237   0.47331   0.23616   0.00000  Uiso   1.00
H121   H     0.81256   0.58685   0.61475   0.00000  Uiso   1.00
H122   H     0.91119   0.93823   0.12139   0.00000  Uiso   1.00
H123   H     0.17477   0.84972   0.52771   0.00000  Uiso   1.00
H124   H     0.30668   0.76371   0.49203   0.00000  Uiso   1.00
H125   H     0.09336   0.81755   0.67159   0.00000  Uiso   1.00
H126   H     0.14014   0.98418   0.43762   0.00000  Uiso   1.00
H127   H     0.42784   0.64267   0.42403   0.00000  Uiso   1.00
H128   H     0.97803   0.75621   0.80262   0.00000  Uiso   1.00
H129   H     0.07667   0.10759   0.30926   0.00000  Uiso   1.00
O130   O     0.42839   0.49783   0.30269   0.00000  Uiso   1.00
O131   O     0.83825   0.64679   0.79938   0.00000  Uiso   1.00
O132   O     0.96766   0.10780   0.15209   0.00000  Uiso   1.00
N133   N     0.28321   0.52498   0.28526   0.00000  Uiso   1.00
N134   N     0.86267   0.63112   0.63922   0.00000  Uiso   1.00
N135   N     0.95487   0.95964   0.17798   0.00000  Uiso   1.00
N136   N     0.37225   0.61611   0.38635   0.00000  Uiso   1.00
N137   N     0.95171   0.72225   0.74032   0.00000  Uiso   1.00
N138   N     0.04391   0.05077   0.27907   0.00000  Uiso   1.00
C139   C     0.64021   0.97415   0.30983   0.00000  Uiso   1.00
C140   C     0.63831   0.87954   0.33482   0.00000  Uiso   1.00
C141   C     0.68576   0.85098   0.41252   0.00000  Uiso   1.00
C142   C     0.67495   0.76178   0.42295   0.00000  Uiso   1.00
C143   C     0.68052   0.62378   0.47167   0.00000  Uiso   1.00
C144   C     0.54729   0.99875   0.30462   0.00000  Uiso   1.00
C145   C     0.51822   0.07042   0.35691   0.00000  Uiso   1.00
C146   C     0.43079   0.08157   0.34190   0.00000  Uiso   1.00
C147   C     0.29507   0.12868   0.34368   0.00000  Uiso   1.00
C148   C     0.66405   0.97041   0.20805   0.00000  Uiso   1.00
C149   C     0.73314   0.01826   0.17914   0.00000  Uiso   1.00
C150   C     0.74400   0.00557   0.08282   0.00000  Uiso   1.00
C151   C     0.78956   0.00868   0.93466   0.00000  Uiso   1.00
C152   C     0.53664   0.86654   0.19017   0.00000  Uiso   1.00
C153   C     0.58205   0.82110   0.26983   0.00000  Uiso   1.00
C154   C     0.57117   0.73192   0.28014   0.00000  Uiso   1.00
C155   C     0.61860   0.70322   0.35784   0.00000  Uiso   1.00
C156   C     0.49103   0.94030   0.23963   0.00000  Uiso   1.00
C157   C     0.40363   0.95135   0.22453   0.00000  Uiso   1.00
C158   C     0.37443   0.02301   0.27679   0.00000  Uiso   1.00
C159   C     0.60780   0.91196   0.14305   0.00000  Uiso   1.00
C160   C     0.61855   0.89920   0.04676   0.00000  Uiso   1.00
C161   C     0.68764   0.94702   0.01771   0.00000  Uiso   1.00
H162   H     0.68401   0.01966   0.36043   0.00000  Uiso   1.00
H163   H     0.72928   0.89623   0.46281   0.00000  Uiso   1.00
H164   H     0.56177   0.11564   0.40719   0.00000  Uiso   1.00
H165   H     0.77666   0.06349   0.22945   0.00000  Uiso   1.00
H166   H     0.75465   0.73362   0.54767   0.00000  Uiso   1.00
H167   H     0.40145   0.19627   0.43039   0.00000  Uiso   1.00
H168   H     0.85458   0.08631   0.05558   0.00000  Uiso   1.00
H169   H     0.49284   0.82103   0.13957   0.00000  Uiso   1.00
H170   H     0.52763   0.68670   0.22983   0.00000  Uiso   1.00
H171   H     0.36011   0.90611   0.17422   0.00000  Uiso   1.00
H172   H     0.57500   0.85396   0.99648   0.00000  Uiso   1.00
H173   H     0.59097   0.56356   0.35858   0.00000  Uiso   1.00
H174   H     0.23777   0.02621   0.24130   0.00000  Uiso   1.00
H175   H     0.69090   0.91624   0.86650   0.00000  Uiso   1.00
O176   O     0.69913   0.56382   0.51651   0.00000  Uiso   1.00
O177   O     0.23575   0.17080   0.36263   0.00000  Uiso   1.00
O178   O     0.83024   0.02653   0.87089   0.00000  Uiso   1.00
N179   N     0.71137   0.71203   0.49077   0.00000  Uiso   1.00
N180   N     0.38114   0.14457   0.38114   0.00000  Uiso   1.00
N181   N     0.80477   0.04178   0.03072   0.00000  Uiso   1.00
N182   N     0.62330   0.62052   0.38902   0.00000  Uiso   1.00
N183   N     0.29307   0.05306   0.27939   0.00000  Uiso   1.00
N184   N     0.71670   0.95027   0.92897   0.00000  Uiso   1.00
C185   C     0.29944   0.63877   0.97262   0.00000  Uiso   1.00
C186   C     0.32320   0.63537   0.87083   0.00000  Uiso   1.00
C187   C     0.39259   0.68292   0.84214   0.00000  Uiso   1.00
C188   C     0.40334   0.67059   0.74577   0.00000  Uiso   1.00
C189   C     0.44888   0.67407   0.59764   0.00000  Uiso   1.00
C190   C     0.29691   0.54394   0.99696   0.00000  Uiso   1.00
C191   C     0.34417   0.51464   0.07434   0.00000  Uiso   1.00
C192   C     0.33278   0.42535   0.08416   0.00000  Uiso   1.00
C193   C     0.33744   0.28691   0.13190   0.00000  Uiso   1.00
C194   C     0.20675   0.66403   0.96776   0.00000  Uiso   1.00
C195   C     0.17821   0.73569   0.02061   0.00000  Uiso   1.00
C196   C     0.09090   0.74750   0.00586   0.00000  Uiso   1.00
C197   C     0.95559   0.79552   0.00827   0.00000  Uiso   1.00
C198   C     0.19515   0.53232   0.85251   0.00000  Uiso   1.00
C199   C     0.26655   0.57754   0.80559   0.00000  Uiso   1.00
C200   C     0.27720   0.56515   0.70924   0.00000  Uiso   1.00
C201   C     0.34659   0.61267   0.68041   0.00000  Uiso   1.00
C202   C     0.24026   0.48612   0.93172   0.00000  Uiso   1.00
C203   C     0.22878   0.39686   0.94144   0.00000  Uiso   1.00
C204   C     0.27603   0.36742   0.01880   0.00000  Uiso   1.00
C205   C     0.15010   0.60622   0.90252   0.00000  Uiso   1.00
C206   C     0.06282   0.61792   0.88770   0.00000  Uiso   1.00
C207   C     0.03415   0.68957   0.94050   0.00000  Uiso   1.00
H208   H     0.34355   0.68378   0.02342   0.00000  Uiso   1.00
H209   H     0.43642   0.72765   0.89265   0.00000  Uiso   1.00
H210   H     0.38800   0.55940   0.12482   0.00000  Uiso   1.00
H211   H     0.22207   0.78041   0.07109   0.00000  Uiso   1.00
H212   H     0.51442   0.75077   0.71890   0.00000  Uiso   1.00
H213   H     0.41231   0.39600   0.20846   0.00000  Uiso   1.00
H214   H     0.06240   0.86207   0.09516   0.00000  Uiso   1.00
H215   H     0.15104   0.48730   0.80171   0.00000  Uiso   1.00
H216   H     0.23335   0.52040   0.65877   0.00000  Uiso   1.00
H217   H     0.18494   0.35214   0.89094   0.00000  Uiso   1.00
H218   H     0.01900   0.57316   0.83721   0.00000  Uiso   1.00
H219   H     0.34961   0.58255   0.52908   0.00000  Uiso   1.00
H220   H     0.24749   0.22778   0.01864   0.00000  Uiso   1.00
H221   H     0.89759   0.69385   0.90533   0.00000  Uiso   1.00
O222   O     0.48965   0.69196   0.53396   0.00000  Uiso   1.00
O223   O     0.35567   0.22652   0.17625   0.00000  Uiso   1.00
O224   O     0.89660   0.83798   0.02760   0.00000  Uiso   1.00
N225   N     0.46433   0.70665   0.69384   0.00000  Uiso   1.00
N226   N     0.36887   0.37496   0.15154   0.00000  Uiso   1.00
N227   N     0.04173   0.81068   0.04563   0.00000  Uiso   1.00
N228   N     0.37564   0.61614   0.59170   0.00000  Uiso   1.00
N229   N     0.28018   0.28445   0.04939   0.00000  Uiso   1.00
N230   N     0.95304   0.72016   0.94349   0.00000  Uiso   1.00
C231   C     0.97422   0.30277   0.64145   0.00000  Uiso   1.00
C232   C     0.88151   0.32796   0.63695   0.00000  Uiso   1.00
C233   C     0.85316   0.39991   0.68948   0.00000  Uiso   1.00
C234   C     0.76582   0.41161   0.67512   0.00000  Uiso   1.00
C235   C     0.63052   0.45961   0.67793   0.00000  Uiso   1.00
C236   C     0.99740   0.29872   0.53939   0.00000  Uiso   1.00
C237   C     0.06651   0.34608   0.50989   0.00000  Uiso   1.00
C238   C     0.07673   0.33315   0.41341   0.00000  Uiso   1.00
C239   C     0.12140   0.33571   0.26477   0.00000  Uiso   1.00
C240   C     0.97198   0.20819   0.66652   0.00000  Uiso   1.00
C241   C     0.01973   0.17941   0.74390   0.00000  Uiso   1.00
C242   C     0.00856   0.09026   0.75444   0.00000  Uiso   1.00
C243   C     0.01377   0.95225   0.80318   0.00000  Uiso   1.00
C244   C     0.86951   0.19560   0.52256   0.00000  Uiso   1.00
C245   C     0.82464   0.26975   0.57238   0.00000  Uiso   1.00
C246   C     0.73731   0.28134   0.55794   0.00000  Uiso   1.00
C247   C     0.70884   0.35330   0.61044   0.00000  Uiso   1.00
C248   C     0.94053   0.24051   0.47482   0.00000  Uiso   1.00
C249   C     0.95066   0.22751   0.37836   0.00000  Uiso   1.00
C250   C     0.01975   0.27484   0.34872   0.00000  Uiso   1.00
C251   C     0.91511   0.14998   0.60195   0.00000  Uiso   1.00
C252   C     0.90388   0.06085   0.61236   0.00000  Uiso   1.00
C253   C     0.95159   0.03195   0.68974   0.00000  Uiso   1.00
H254   H     0.01850   0.34809   0.69172   0.00000  Uiso   1.00
H255   H     0.89720   0.44495   0.73944   0.00000  Uiso   1.00
H256   H     0.11051   0.39111   0.55988   0.00000  Uiso   1.00
H257   H     0.06373   0.22448   0.79385   0.00000  Uiso   1.00
H258   H     0.73763   0.52669   0.76384   0.00000  Uiso   1.00
H259   H     0.18744   0.41315   0.38525   0.00000  Uiso   1.00
H260   H     0.08881   0.06177   0.87861   0.00000  Uiso   1.00
H261   H     0.82523   0.15028   0.47229   0.00000  Uiso   1.00
H262   H     0.69332   0.23629   0.50797   0.00000  Uiso   1.00
H263   H     0.90664   0.18245   0.32841   0.00000  Uiso   1.00
H264   H     0.85986   0.01582   0.56238   0.00000  Uiso   1.00
H265   H     0.57216   0.35733   0.57597   0.00000  Uiso   1.00
H266   H     0.02197   0.24379   0.19738   0.00000  Uiso   1.00
H267   H     0.92333   0.89241   0.69074   0.00000  Uiso   1.00
O268   O     0.57161   0.50217   0.69731   0.00000  Uiso   1.00
O269   O     0.16175   0.35321   0.20062   0.00000  Uiso   1.00
O270   O     0.03234   0.89220   0.84791   0.00000  Uiso   1.00
N271   N     0.71679   0.47502   0.71474   0.00000  Uiso   1.00
N272   N     0.13733   0.36888   0.36078   0.00000  Uiso   1.00
N273   N     0.04513   0.04036   0.82202   0.00000  Uiso   1.00
N274   N     0.62775   0.38389   0.61365   0.00000  Uiso   1.00
N275   N     0.04829   0.27775   0.25968   0.00000  Uiso   1.00
N276   N     0.95609   0.94923   0.72093   0.00000  Uiso   1.00
