data_job_02661
_audit_creation_date              2018-12-19
_audit_creation_method            'Materials Studio'
_symmetry_space_group_name_H-M    'P1'
_symmetry_Int_Tables_number       1
_symmetry_cell_setting            triclinic
loop_
_symmetry_equiv_pos_as_xyz
  x,y,z
_cell_length_a                    12.6315
_cell_length_b                    12.6315
_cell_length_c                    92.4160
_cell_angle_alpha                 90.0000
_cell_angle_beta                  90.0000
_cell_angle_gamma                 120.0000
loop_
_atom_site_label
_atom_site_type_symbol
_atom_site_fract_x
_atom_site_fract_y
_atom_site_fract_z
_atom_site_U_iso_or_equiv
_atom_site_adp_type
_atom_site_occupancy
C1     C     0.53085   0.84465   0.12865   0.00000  Uiso   1.00
C2     C     0.56806   0.97333   0.12350   0.00000  Uiso   1.00
C3     C     0.65063   0.08123   0.13036   0.00000  Uiso   1.00
C4     C     0.67232   0.18962   0.12393   0.00000  Uiso   1.00
C5     C     0.73899   0.38937   0.11789   0.00000  Uiso   1.00
C6     C     0.39205   0.77760   0.13014   0.00000  Uiso   1.00
C7     C     0.32665   0.72092   0.14259   0.00000  Uiso   1.00
C8     C     0.20018   0.66453   0.14175   0.00000  Uiso   1.00
C9     C     0.99360   0.56034   0.14602   0.00000  Uiso   1.00
C10    C     0.55820   0.78344   0.11612   0.00000  Uiso   1.00
C11    C     0.63248   0.73163   0.11677   0.00000  Uiso   1.00
C12    C     0.64587   0.68013   0.10412   0.00000  Uiso   1.00
C13    C     0.69726   0.58500   0.08662   0.00000  Uiso   1.00
C14    C     0.42252   0.84526   0.10503   0.00000  Uiso   1.00
C15    C     0.50921   0.97366   0.11067   0.00000  Uiso   1.00
C16    C     0.53078   0.08191   0.10423   0.00000  Uiso   1.00
C17    C     0.61338   0.18996   0.11108   0.00000  Uiso   1.00
C18    C     0.33321   0.77793   0.11731   0.00000  Uiso   1.00
C19    C     0.20680   0.72160   0.11645   0.00000  Uiso   1.00
C20    C     0.14123   0.66486   0.12889   0.00000  Uiso   1.00
C21    C     0.49936   0.78377   0.10329   0.00000  Uiso   1.00
C22    C     0.51263   0.73233   0.09064   0.00000  Uiso   1.00
C23    C     0.58691   0.68046   0.09127   0.00000  Uiso   1.00
H24    H     0.57666   0.84438   0.13864   0.00000  Uiso   1.00
H25    H     0.69614   0.08093   0.14029   0.00000  Uiso   1.00
H26    H     0.37222   0.72067   0.15251   0.00000  Uiso   1.00
H27    H     0.67800   0.73139   0.12670   0.00000  Uiso   1.00
H28    H     0.80263   0.34334   0.13647   0.00000  Uiso   1.00
H29    H     0.11961   0.58367   0.16224   0.00000  Uiso   1.00
H30    H     0.76441   0.60627   0.10781   0.00000  Uiso   1.00
H31    H     0.37670   0.84552   0.09504   0.00000  Uiso   1.00
H32    H     0.48523   0.08214   0.09430   0.00000  Uiso   1.00
H33    H     0.16129   0.72188   0.10653   0.00000  Uiso   1.00
H34    H     0.46708   0.73260   0.08071   0.00000  Uiso   1.00
H35    H     0.63144   0.34432   0.09914   0.00000  Uiso   1.00
H36    H     0.94842   0.58464   0.12491   0.00000  Uiso   1.00
H37    H     0.59322   0.60725   0.07048   0.00000  Uiso   1.00
O38    O     0.79200   0.49946   0.11810   0.00000  Uiso   1.00
O39    O     0.89591   0.50278   0.15192   0.00000  Uiso   1.00
O40    O     0.74187   0.53245   0.08051   0.00000  Uiso   1.00
N41    N     0.74747   0.31110   0.12778   0.00000  Uiso   1.00
N42    N     0.10889   0.60087   0.15188   0.00000  Uiso   1.00
N43    N     0.71169   0.62197   0.10099   0.00000  Uiso   1.00
N44    N     0.65535   0.31163   0.10770   0.00000  Uiso   1.00
N45    N     0.01677   0.60139   0.13179   0.00000  Uiso   1.00
N46    N     0.61958   0.62250   0.08091   0.00000  Uiso   1.00
C47    C     0.15535   0.68620   0.79531   0.00000  Uiso   1.00
C48    C     0.02667   0.59472   0.79017   0.00000  Uiso   1.00
C49    C     0.91877   0.56940   0.79703   0.00000  Uiso   1.00
C50    C     0.81038   0.48270   0.79060   0.00000  Uiso   1.00
C51    C     0.61063   0.34961   0.78456   0.00000  Uiso   1.00
C52    C     0.22240   0.61445   0.79681   0.00000  Uiso   1.00
C53    C     0.27908   0.60573   0.80925   0.00000  Uiso   1.00
C54    C     0.33547   0.53565   0.80841   0.00000  Uiso   1.00
C55    C     0.43966   0.43326   0.81268   0.00000  Uiso   1.00
C56    C     0.21656   0.77476   0.78278   0.00000  Uiso   1.00
C57    C     0.26837   0.90084   0.78344   0.00000  Uiso   1.00
C58    C     0.31987   0.96573   0.77079   0.00000  Uiso   1.00
C59    C     0.41500   0.11226   0.75329   0.00000  Uiso   1.00
C60    C     0.15474   0.57725   0.77170   0.00000  Uiso   1.00
C61    C     0.02634   0.53555   0.77734   0.00000  Uiso   1.00
C62    C     0.91809   0.44886   0.77089   0.00000  Uiso   1.00
C63    C     0.81004   0.42342   0.77774   0.00000  Uiso   1.00
C64    C     0.22207   0.55527   0.78398   0.00000  Uiso   1.00
C65    C     0.27840   0.48519   0.78312   0.00000  Uiso   1.00
C66    C     0.33514   0.47636   0.79556   0.00000  Uiso   1.00
C67    C     0.21623   0.71559   0.76996   0.00000  Uiso   1.00
C68    C     0.26767   0.78030   0.75731   0.00000  Uiso   1.00
C69    C     0.31954   0.90645   0.75794   0.00000  Uiso   1.00
H70    H     0.15562   0.73227   0.80530   0.00000  Uiso   1.00
H71    H     0.91907   0.61521   0.80695   0.00000  Uiso   1.00
H72    H     0.27933   0.65155   0.81918   0.00000  Uiso   1.00
H73    H     0.26861   0.94661   0.79337   0.00000  Uiso   1.00
H74    H     0.65666   0.45930   0.80313   0.00000  Uiso   1.00
H75    H     0.41633   0.53595   0.82890   0.00000  Uiso   1.00
H76    H     0.39373   0.15814   0.77448   0.00000  Uiso   1.00
H77    H     0.15448   0.53118   0.76171   0.00000  Uiso   1.00
H78    H     0.91786   0.40308   0.76097   0.00000  Uiso   1.00
H79    H     0.27812   0.43942   0.77319   0.00000  Uiso   1.00
H80    H     0.26740   0.73447   0.74738   0.00000  Uiso   1.00
H81    H     0.65568   0.28712   0.76581   0.00000  Uiso   1.00
H82    H     0.41536   0.36378   0.79158   0.00000  Uiso   1.00
H83    H     0.39275   0.98596   0.73715   0.00000  Uiso   1.00
O84    O     0.50054   0.29254   0.78477   0.00000  Uiso   1.00
O85    O     0.49722   0.39313   0.81858   0.00000  Uiso   1.00
O86    O     0.46755   0.20942   0.74717   0.00000  Uiso   1.00
N87    N     0.68890   0.43637   0.79445   0.00000  Uiso   1.00
N88    N     0.39913   0.50802   0.81854   0.00000  Uiso   1.00
N89    N     0.37803   0.08972   0.76766   0.00000  Uiso   1.00
N90    N     0.68837   0.34373   0.77436   0.00000  Uiso   1.00
N91    N     0.39861   0.41537   0.79846   0.00000  Uiso   1.00
N92    N     0.37750   0.99708   0.74757   0.00000  Uiso   1.00
C93    C     0.31380   0.46915   0.46198   0.00000  Uiso   1.00
C94    C     0.40528   0.43194   0.45683   0.00000  Uiso   1.00
C95    C     0.43060   0.34937   0.46369   0.00000  Uiso   1.00
C96    C     0.51730   0.32768   0.45726   0.00000  Uiso   1.00
C97    C     0.65039   0.26101   0.45122   0.00000  Uiso   1.00
C98    C     0.38555   0.60795   0.46348   0.00000  Uiso   1.00
C99    C     0.39427   0.67335   0.47592   0.00000  Uiso   1.00
C100   C     0.46435   0.79982   0.47508   0.00000  Uiso   1.00
C101   C     0.56674   0.00640   0.47935   0.00000  Uiso   1.00
C102   C     0.22524   0.44180   0.44945   0.00000  Uiso   1.00
C103   C     0.09916   0.36752   0.45010   0.00000  Uiso   1.00
C104   C     0.03427   0.35413   0.43746   0.00000  Uiso   1.00
C105   C     0.88774   0.30274   0.41995   0.00000  Uiso   1.00
C106   C     0.42275   0.57748   0.43836   0.00000  Uiso   1.00
C107   C     0.46445   0.49079   0.44400   0.00000  Uiso   1.00
C108   C     0.55114   0.46922   0.43756   0.00000  Uiso   1.00
C109   C     0.57658   0.38662   0.44441   0.00000  Uiso   1.00
C110   C     0.44473   0.66679   0.45065   0.00000  Uiso   1.00
C111   C     0.51481   0.79320   0.44979   0.00000  Uiso   1.00
C112   C     0.52364   0.85877   0.46223   0.00000  Uiso   1.00
C113   C     0.28441   0.50064   0.43662   0.00000  Uiso   1.00
C114   C     0.21970   0.48737   0.42397   0.00000  Uiso   1.00
C115   C     0.09355   0.41309   0.42461   0.00000  Uiso   1.00
H116   H     0.26773   0.42334   0.47197   0.00000  Uiso   1.00
H117   H     0.38479   0.30386   0.47362   0.00000  Uiso   1.00
H118   H     0.34845   0.62778   0.48584   0.00000  Uiso   1.00
H119   H     0.05339   0.32200   0.46003   0.00000  Uiso   1.00
H120   H     0.54070   0.19737   0.46980   0.00000  Uiso   1.00
H121   H     0.46405   0.88039   0.49557   0.00000  Uiso   1.00
H122   H     0.84186   0.23559   0.44114   0.00000  Uiso   1.00
H123   H     0.46882   0.62330   0.42837   0.00000  Uiso   1.00
H124   H     0.59692   0.51477   0.42763   0.00000  Uiso   1.00
H125   H     0.56058   0.83871   0.43986   0.00000  Uiso   1.00
H126   H     0.26553   0.53292   0.41405   0.00000  Uiso   1.00
H127   H     0.71288   0.36856   0.43247   0.00000  Uiso   1.00
H128   H     0.63622   0.05158   0.45825   0.00000  Uiso   1.00
H129   H     0.01404   0.40678   0.40382   0.00000  Uiso   1.00
O130   O     0.70746   0.20800   0.45144   0.00000  Uiso   1.00
O131   O     0.60687   0.10409   0.48525   0.00000  Uiso   1.00
O132   O     0.79058   0.25813   0.41384   0.00000  Uiso   1.00
N133   N     0.56363   0.25253   0.46111   0.00000  Uiso   1.00
N134   N     0.49198   0.89111   0.48521   0.00000  Uiso   1.00
N135   N     0.91028   0.28831   0.43433   0.00000  Uiso   1.00
N136   N     0.65627   0.34465   0.44103   0.00000  Uiso   1.00
N137   N     0.58463   0.98323   0.46513   0.00000  Uiso   1.00
N138   N     0.00292   0.38042   0.41424   0.00000  Uiso   1.00
C139   C     0.46915   0.15535   0.62865   0.00000  Uiso   1.00
C140   C     0.43194   0.02667   0.62350   0.00000  Uiso   1.00
C141   C     0.34937   0.91877   0.63036   0.00000  Uiso   1.00
C142   C     0.32768   0.81038   0.62393   0.00000  Uiso   1.00
C143   C     0.26101   0.61063   0.61789   0.00000  Uiso   1.00
C144   C     0.60795   0.22240   0.63014   0.00000  Uiso   1.00
C145   C     0.67335   0.27908   0.64259   0.00000  Uiso   1.00
C146   C     0.79982   0.33547   0.64175   0.00000  Uiso   1.00
C147   C     0.00640   0.43966   0.64602   0.00000  Uiso   1.00
C148   C     0.44180   0.21656   0.61612   0.00000  Uiso   1.00
C149   C     0.36752   0.26837   0.61677   0.00000  Uiso   1.00
C150   C     0.35413   0.31987   0.60412   0.00000  Uiso   1.00
C151   C     0.30274   0.41500   0.58662   0.00000  Uiso   1.00
C152   C     0.57748   0.15474   0.60503   0.00000  Uiso   1.00
C153   C     0.49079   0.02634   0.61067   0.00000  Uiso   1.00
C154   C     0.46922   0.91809   0.60423   0.00000  Uiso   1.00
C155   C     0.38662   0.81004   0.61108   0.00000  Uiso   1.00
C156   C     0.66679   0.22207   0.61731   0.00000  Uiso   1.00
C157   C     0.79320   0.27840   0.61645   0.00000  Uiso   1.00
C158   C     0.85877   0.33514   0.62889   0.00000  Uiso   1.00
C159   C     0.50064   0.21623   0.60329   0.00000  Uiso   1.00
C160   C     0.48737   0.26767   0.59064   0.00000  Uiso   1.00
C161   C     0.41309   0.31954   0.59127   0.00000  Uiso   1.00
H162   H     0.42334   0.15562   0.63864   0.00000  Uiso   1.00
H163   H     0.30386   0.91907   0.64029   0.00000  Uiso   1.00
H164   H     0.62778   0.27933   0.65251   0.00000  Uiso   1.00
H165   H     0.32200   0.26861   0.62670   0.00000  Uiso   1.00
H166   H     0.19737   0.65666   0.63647   0.00000  Uiso   1.00
H167   H     0.88039   0.41633   0.66224   0.00000  Uiso   1.00
H168   H     0.23559   0.39373   0.60781   0.00000  Uiso   1.00
H169   H     0.62330   0.15448   0.59504   0.00000  Uiso   1.00
H170   H     0.51477   0.91786   0.59430   0.00000  Uiso   1.00
H171   H     0.83871   0.27812   0.60653   0.00000  Uiso   1.00
H172   H     0.53292   0.26740   0.58071   0.00000  Uiso   1.00
H173   H     0.36856   0.65568   0.59914   0.00000  Uiso   1.00
H174   H     0.05158   0.41536   0.62491   0.00000  Uiso   1.00
H175   H     0.40678   0.39275   0.57048   0.00000  Uiso   1.00
O176   O     0.20800   0.50054   0.61810   0.00000  Uiso   1.00
O177   O     0.10409   0.49722   0.65192   0.00000  Uiso   1.00
O178   O     0.25813   0.46755   0.58051   0.00000  Uiso   1.00
N179   N     0.25253   0.68890   0.62778   0.00000  Uiso   1.00
N180   N     0.89111   0.39913   0.65188   0.00000  Uiso   1.00
N181   N     0.28831   0.37803   0.60099   0.00000  Uiso   1.00
N182   N     0.34465   0.68837   0.60770   0.00000  Uiso   1.00
N183   N     0.98323   0.39861   0.63179   0.00000  Uiso   1.00
N184   N     0.38042   0.37750   0.58091   0.00000  Uiso   1.00
C185   C     0.84465   0.31380   0.29531   0.00000  Uiso   1.00
C186   C     0.97333   0.40528   0.29017   0.00000  Uiso   1.00
C187   C     0.08123   0.43060   0.29703   0.00000  Uiso   1.00
C188   C     0.18962   0.51730   0.29060   0.00000  Uiso   1.00
C189   C     0.38937   0.65039   0.28456   0.00000  Uiso   1.00
C190   C     0.77760   0.38555   0.29681   0.00000  Uiso   1.00
C191   C     0.72092   0.39427   0.30925   0.00000  Uiso   1.00
C192   C     0.66453   0.46435   0.30841   0.00000  Uiso   1.00
C193   C     0.56034   0.56674   0.31268   0.00000  Uiso   1.00
C194   C     0.78344   0.22524   0.28278   0.00000  Uiso   1.00
C195   C     0.73163   0.09916   0.28344   0.00000  Uiso   1.00
C196   C     0.68013   0.03427   0.27079   0.00000  Uiso   1.00
C197   C     0.58500   0.88774   0.25329   0.00000  Uiso   1.00
C198   C     0.84526   0.42275   0.27170   0.00000  Uiso   1.00
C199   C     0.97366   0.46445   0.27734   0.00000  Uiso   1.00
C200   C     0.08191   0.55114   0.27089   0.00000  Uiso   1.00
C201   C     0.18996   0.57658   0.27774   0.00000  Uiso   1.00
C202   C     0.77793   0.44473   0.28398   0.00000  Uiso   1.00
C203   C     0.72160   0.51481   0.28312   0.00000  Uiso   1.00
C204   C     0.66486   0.52364   0.29556   0.00000  Uiso   1.00
C205   C     0.78377   0.28441   0.26996   0.00000  Uiso   1.00
C206   C     0.73233   0.21970   0.25731   0.00000  Uiso   1.00
C207   C     0.68046   0.09355   0.25794   0.00000  Uiso   1.00
H208   H     0.84438   0.26773   0.30530   0.00000  Uiso   1.00
H209   H     0.08093   0.38479   0.30695   0.00000  Uiso   1.00
H210   H     0.72067   0.34845   0.31918   0.00000  Uiso   1.00
H211   H     0.73139   0.05339   0.29337   0.00000  Uiso   1.00
H212   H     0.34334   0.54070   0.30313   0.00000  Uiso   1.00
H213   H     0.58367   0.46405   0.32890   0.00000  Uiso   1.00
H214   H     0.60627   0.84186   0.27448   0.00000  Uiso   1.00
H215   H     0.84552   0.46882   0.26171   0.00000  Uiso   1.00
H216   H     0.08214   0.59692   0.26097   0.00000  Uiso   1.00
H217   H     0.72188   0.56058   0.27319   0.00000  Uiso   1.00
H218   H     0.73260   0.26553   0.24738   0.00000  Uiso   1.00
H219   H     0.34432   0.71288   0.26581   0.00000  Uiso   1.00
H220   H     0.58464   0.63622   0.29158   0.00000  Uiso   1.00
H221   H     0.60725   0.01404   0.23715   0.00000  Uiso   1.00
O222   O     0.49946   0.70746   0.28477   0.00000  Uiso   1.00
O223   O     0.50278   0.60687   0.31858   0.00000  Uiso   1.00
O224   O     0.53245   0.79058   0.24717   0.00000  Uiso   1.00
N225   N     0.31110   0.56363   0.29445   0.00000  Uiso   1.00
N226   N     0.60087   0.49198   0.31854   0.00000  Uiso   1.00
N227   N     0.62197   0.91028   0.26766   0.00000  Uiso   1.00
N228   N     0.31163   0.65627   0.27436   0.00000  Uiso   1.00
N229   N     0.60139   0.58463   0.29846   0.00000  Uiso   1.00
N230   N     0.62250   0.00292   0.24757   0.00000  Uiso   1.00
C231   C     0.68620   0.53085   0.96198   0.00000  Uiso   1.00
C232   C     0.59472   0.56806   0.95683   0.00000  Uiso   1.00
C233   C     0.56940   0.65063   0.96369   0.00000  Uiso   1.00
C234   C     0.48270   0.67232   0.95726   0.00000  Uiso   1.00
C235   C     0.34961   0.73899   0.95122   0.00000  Uiso   1.00
C236   C     0.61445   0.39205   0.96348   0.00000  Uiso   1.00
C237   C     0.60573   0.32665   0.97592   0.00000  Uiso   1.00
C238   C     0.53565   0.20018   0.97508   0.00000  Uiso   1.00
C239   C     0.43326   0.99360   0.97935   0.00000  Uiso   1.00
C240   C     0.77476   0.55820   0.94945   0.00000  Uiso   1.00
C241   C     0.90084   0.63248   0.95010   0.00000  Uiso   1.00
C242   C     0.96573   0.64587   0.93746   0.00000  Uiso   1.00
C243   C     0.11226   0.69726   0.91995   0.00000  Uiso   1.00
C244   C     0.57725   0.42252   0.93836   0.00000  Uiso   1.00
C245   C     0.53555   0.50921   0.94400   0.00000  Uiso   1.00
C246   C     0.44886   0.53078   0.93756   0.00000  Uiso   1.00
C247   C     0.42342   0.61338   0.94441   0.00000  Uiso   1.00
C248   C     0.55527   0.33321   0.95065   0.00000  Uiso   1.00
C249   C     0.48519   0.20680   0.94979   0.00000  Uiso   1.00
C250   C     0.47636   0.14123   0.96223   0.00000  Uiso   1.00
C251   C     0.71559   0.49936   0.93662   0.00000  Uiso   1.00
C252   C     0.78030   0.51263   0.92397   0.00000  Uiso   1.00
C253   C     0.90645   0.58691   0.92461   0.00000  Uiso   1.00
H254   H     0.73227   0.57666   0.97197   0.00000  Uiso   1.00
H255   H     0.61521   0.69614   0.97362   0.00000  Uiso   1.00
H256   H     0.65155   0.37222   0.98584   0.00000  Uiso   1.00
H257   H     0.94661   0.67800   0.96003   0.00000  Uiso   1.00
H258   H     0.45930   0.80263   0.96980   0.00000  Uiso   1.00
H259   H     0.53595   0.11961   0.99557   0.00000  Uiso   1.00
H260   H     0.15814   0.76441   0.94114   0.00000  Uiso   1.00
H261   H     0.53118   0.37670   0.92837   0.00000  Uiso   1.00
H262   H     0.40308   0.48523   0.92763   0.00000  Uiso   1.00
H263   H     0.43942   0.16129   0.93986   0.00000  Uiso   1.00
H264   H     0.73447   0.46708   0.91405   0.00000  Uiso   1.00
H265   H     0.28712   0.63144   0.93247   0.00000  Uiso   1.00
H266   H     0.36378   0.94842   0.95825   0.00000  Uiso   1.00
H267   H     0.98596   0.59322   0.90382   0.00000  Uiso   1.00
O268   O     0.29254   0.79200   0.95144   0.00000  Uiso   1.00
O269   O     0.39313   0.89591   0.98525   0.00000  Uiso   1.00
O270   O     0.20942   0.74187   0.91384   0.00000  Uiso   1.00
N271   N     0.43637   0.74747   0.96111   0.00000  Uiso   1.00
N272   N     0.50802   0.10889   0.98521   0.00000  Uiso   1.00
N273   N     0.08972   0.71169   0.93433   0.00000  Uiso   1.00
N274   N     0.34373   0.65535   0.94103   0.00000  Uiso   1.00
N275   N     0.41537   0.01677   0.96513   0.00000  Uiso   1.00
N276   N     0.99708   0.61958   0.91424   0.00000  Uiso   1.00
C277   C     0.84465   0.53085   0.53802   0.00000  Uiso   1.00
C278   C     0.97333   0.56806   0.54317   0.00000  Uiso   1.00
C279   C     0.08123   0.65063   0.53631   0.00000  Uiso   1.00
C280   C     0.18962   0.67232   0.54274   0.00000  Uiso   1.00
C281   C     0.38937   0.73899   0.54878   0.00000  Uiso   1.00
C282   C     0.77760   0.39205   0.53652   0.00000  Uiso   1.00
C283   C     0.72092   0.32665   0.52408   0.00000  Uiso   1.00
C284   C     0.66453   0.20018   0.52492   0.00000  Uiso   1.00
C285   C     0.56034   0.99360   0.52065   0.00000  Uiso   1.00
C286   C     0.78344   0.55820   0.55055   0.00000  Uiso   1.00
C287   C     0.73163   0.63248   0.54990   0.00000  Uiso   1.00
C288   C     0.68013   0.64587   0.56254   0.00000  Uiso   1.00
C289   C     0.58500   0.69726   0.58005   0.00000  Uiso   1.00
C290   C     0.84526   0.42252   0.56164   0.00000  Uiso   1.00
C291   C     0.97366   0.50921   0.55600   0.00000  Uiso   1.00
C292   C     0.08191   0.53078   0.56244   0.00000  Uiso   1.00
C293   C     0.18996   0.61338   0.55559   0.00000  Uiso   1.00
C294   C     0.77793   0.33321   0.54935   0.00000  Uiso   1.00
C295   C     0.72160   0.20680   0.55021   0.00000  Uiso   1.00
C296   C     0.66486   0.14123   0.53777   0.00000  Uiso   1.00
C297   C     0.78377   0.49936   0.56338   0.00000  Uiso   1.00
C298   C     0.73233   0.51263   0.57603   0.00000  Uiso   1.00
C299   C     0.68046   0.58691   0.57539   0.00000  Uiso   1.00
H300   H     0.84438   0.57666   0.52803   0.00000  Uiso   1.00
H301   H     0.08093   0.69614   0.52638   0.00000  Uiso   1.00
H302   H     0.72067   0.37222   0.51416   0.00000  Uiso   1.00
H303   H     0.73139   0.67800   0.53997   0.00000  Uiso   1.00
H304   H     0.34334   0.80263   0.53020   0.00000  Uiso   1.00
H305   H     0.58367   0.11961   0.50443   0.00000  Uiso   1.00
H306   H     0.60627   0.76441   0.55886   0.00000  Uiso   1.00
H307   H     0.84552   0.37670   0.57163   0.00000  Uiso   1.00
H308   H     0.08214   0.48523   0.57237   0.00000  Uiso   1.00
H309   H     0.72188   0.16129   0.56014   0.00000  Uiso   1.00
H310   H     0.73260   0.46708   0.58595   0.00000  Uiso   1.00
H311   H     0.34432   0.63144   0.56753   0.00000  Uiso   1.00
H312   H     0.58464   0.94842   0.54175   0.00000  Uiso   1.00
H313   H     0.60725   0.59322   0.59618   0.00000  Uiso   1.00
O314   O     0.49946   0.79200   0.54856   0.00000  Uiso   1.00
O315   O     0.50278   0.89591   0.51475   0.00000  Uiso   1.00
O316   O     0.53245   0.74187   0.58616   0.00000  Uiso   1.00
N317   N     0.31110   0.74747   0.53889   0.00000  Uiso   1.00
N318   N     0.60087   0.10889   0.51479   0.00000  Uiso   1.00
N319   N     0.62197   0.71169   0.56567   0.00000  Uiso   1.00
N320   N     0.31163   0.65535   0.55897   0.00000  Uiso   1.00
N321   N     0.60139   0.01677   0.53487   0.00000  Uiso   1.00
N322   N     0.62250   0.61958   0.58576   0.00000  Uiso   1.00
C323   C     0.68620   0.15535   0.87135   0.00000  Uiso   1.00
C324   C     0.59472   0.02667   0.87650   0.00000  Uiso   1.00
C325   C     0.56940   0.91877   0.86964   0.00000  Uiso   1.00
C326   C     0.48270   0.81038   0.87607   0.00000  Uiso   1.00
C327   C     0.34961   0.61063   0.88211   0.00000  Uiso   1.00
C328   C     0.61445   0.22240   0.86986   0.00000  Uiso   1.00
C329   C     0.60573   0.27908   0.85741   0.00000  Uiso   1.00
C330   C     0.53565   0.33547   0.85825   0.00000  Uiso   1.00
C331   C     0.43326   0.43966   0.85398   0.00000  Uiso   1.00
C332   C     0.77476   0.21656   0.88388   0.00000  Uiso   1.00
C333   C     0.90084   0.26837   0.88323   0.00000  Uiso   1.00
C334   C     0.96573   0.31987   0.89588   0.00000  Uiso   1.00
C335   C     0.11226   0.41500   0.91338   0.00000  Uiso   1.00
C336   C     0.57725   0.15474   0.89497   0.00000  Uiso   1.00
C337   C     0.53555   0.02634   0.88933   0.00000  Uiso   1.00
C338   C     0.44886   0.91809   0.89577   0.00000  Uiso   1.00
C339   C     0.42342   0.81004   0.88892   0.00000  Uiso   1.00
C340   C     0.55527   0.22207   0.88269   0.00000  Uiso   1.00
C341   C     0.48519   0.27840   0.88355   0.00000  Uiso   1.00
C342   C     0.47636   0.33514   0.87111   0.00000  Uiso   1.00
C343   C     0.71559   0.21623   0.89671   0.00000  Uiso   1.00
C344   C     0.78030   0.26767   0.90936   0.00000  Uiso   1.00
C345   C     0.90645   0.31954   0.90873   0.00000  Uiso   1.00
H346   H     0.73227   0.15562   0.86136   0.00000  Uiso   1.00
H347   H     0.61521   0.91907   0.85971   0.00000  Uiso   1.00
H348   H     0.65155   0.27933   0.84749   0.00000  Uiso   1.00
H349   H     0.94661   0.26861   0.87330   0.00000  Uiso   1.00
H350   H     0.45930   0.65666   0.86353   0.00000  Uiso   1.00
H351   H     0.53595   0.41633   0.83776   0.00000  Uiso   1.00
H352   H     0.15814   0.39373   0.89219   0.00000  Uiso   1.00
H353   H     0.53118   0.15448   0.90496   0.00000  Uiso   1.00
H354   H     0.40308   0.91786   0.90570   0.00000  Uiso   1.00
H355   H     0.43942   0.27812   0.89347   0.00000  Uiso   1.00
H356   H     0.73447   0.26740   0.91929   0.00000  Uiso   1.00
H357   H     0.28712   0.65568   0.90086   0.00000  Uiso   1.00
H358   H     0.36378   0.41536   0.87509   0.00000  Uiso   1.00
H359   H     0.98596   0.39275   0.92952   0.00000  Uiso   1.00
O360   O     0.29254   0.50054   0.88190   0.00000  Uiso   1.00
O361   O     0.39313   0.49722   0.84808   0.00000  Uiso   1.00
O362   O     0.20942   0.46755   0.91949   0.00000  Uiso   1.00
N363   N     0.43637   0.68890   0.87222   0.00000  Uiso   1.00
N364   N     0.50802   0.39913   0.84812   0.00000  Uiso   1.00
N365   N     0.08972   0.37803   0.89901   0.00000  Uiso   1.00
N366   N     0.34373   0.68837   0.89230   0.00000  Uiso   1.00
N367   N     0.41537   0.39861   0.86821   0.00000  Uiso   1.00
N368   N     0.99708   0.37750   0.91909   0.00000  Uiso   1.00
C369   C     0.46915   0.31380   0.20469   0.00000  Uiso   1.00
C370   C     0.43194   0.40528   0.20983   0.00000  Uiso   1.00
C371   C     0.34937   0.43060   0.20297   0.00000  Uiso   1.00
C372   C     0.32768   0.51730   0.20940   0.00000  Uiso   1.00
C373   C     0.26101   0.65039   0.21544   0.00000  Uiso   1.00
C374   C     0.60795   0.38555   0.20319   0.00000  Uiso   1.00
C375   C     0.67335   0.39427   0.19075   0.00000  Uiso   1.00
C376   C     0.79982   0.46435   0.19159   0.00000  Uiso   1.00
C377   C     0.00640   0.56674   0.18732   0.00000  Uiso   1.00
C378   C     0.44180   0.22524   0.21722   0.00000  Uiso   1.00
C379   C     0.36752   0.09916   0.21656   0.00000  Uiso   1.00
C380   C     0.35413   0.03427   0.22921   0.00000  Uiso   1.00
C381   C     0.30274   0.88774   0.24671   0.00000  Uiso   1.00
C382   C     0.57748   0.42275   0.22830   0.00000  Uiso   1.00
C383   C     0.49079   0.46445   0.22266   0.00000  Uiso   1.00
C384   C     0.46922   0.55114   0.22911   0.00000  Uiso   1.00
C385   C     0.38662   0.57658   0.22226   0.00000  Uiso   1.00
C386   C     0.66679   0.44473   0.21602   0.00000  Uiso   1.00
C387   C     0.79320   0.51481   0.21688   0.00000  Uiso   1.00
C388   C     0.85877   0.52364   0.20444   0.00000  Uiso   1.00
C389   C     0.50064   0.28441   0.23004   0.00000  Uiso   1.00
C390   C     0.48737   0.21970   0.24269   0.00000  Uiso   1.00
C391   C     0.41309   0.09355   0.24206   0.00000  Uiso   1.00
H392   H     0.42334   0.26773   0.19470   0.00000  Uiso   1.00
H393   H     0.30386   0.38479   0.19305   0.00000  Uiso   1.00
H394   H     0.62778   0.34845   0.18082   0.00000  Uiso   1.00
H395   H     0.32200   0.05339   0.20663   0.00000  Uiso   1.00
H396   H     0.19737   0.54070   0.19687   0.00000  Uiso   1.00
H397   H     0.88039   0.46405   0.17110   0.00000  Uiso   1.00
H398   H     0.23559   0.84186   0.22552   0.00000  Uiso   1.00
H399   H     0.62330   0.46882   0.23829   0.00000  Uiso   1.00
H400   H     0.51477   0.59692   0.23903   0.00000  Uiso   1.00
H401   H     0.83871   0.56058   0.22681   0.00000  Uiso   1.00
H402   H     0.53292   0.26553   0.25262   0.00000  Uiso   1.00
H403   H     0.36856   0.71288   0.23419   0.00000  Uiso   1.00
H404   H     0.05158   0.63622   0.20842   0.00000  Uiso   1.00
H405   H     0.40678   0.01404   0.26285   0.00000  Uiso   1.00
O406   O     0.20800   0.70746   0.21523   0.00000  Uiso   1.00
O407   O     0.10409   0.60687   0.18142   0.00000  Uiso   1.00
O408   O     0.25813   0.79058   0.25283   0.00000  Uiso   1.00
N409   N     0.25253   0.56363   0.20555   0.00000  Uiso   1.00
N410   N     0.89111   0.49198   0.18146   0.00000  Uiso   1.00
N411   N     0.28831   0.91028   0.23234   0.00000  Uiso   1.00
N412   N     0.34465   0.65627   0.22564   0.00000  Uiso   1.00
N413   N     0.98323   0.58463   0.20154   0.00000  Uiso   1.00
N414   N     0.38042   0.00292   0.25243   0.00000  Uiso   1.00
C415   C     0.15535   0.46915   0.03802   0.00000  Uiso   1.00
C416   C     0.02667   0.43194   0.04317   0.00000  Uiso   1.00
C417   C     0.91877   0.34937   0.03631   0.00000  Uiso   1.00
C418   C     0.81038   0.32768   0.04274   0.00000  Uiso   1.00
C419   C     0.61063   0.26101   0.04878   0.00000  Uiso   1.00
C420   C     0.22240   0.60795   0.03652   0.00000  Uiso   1.00
C421   C     0.27908   0.67335   0.02408   0.00000  Uiso   1.00
C422   C     0.33547   0.79982   0.02492   0.00000  Uiso   1.00
C423   C     0.43966   0.00640   0.02065   0.00000  Uiso   1.00
C424   C     0.21656   0.44180   0.05055   0.00000  Uiso   1.00
C425   C     0.26837   0.36752   0.04990   0.00000  Uiso   1.00
C426   C     0.31987   0.35413   0.06254   0.00000  Uiso   1.00
C427   C     0.41500   0.30274   0.08005   0.00000  Uiso   1.00
C428   C     0.15474   0.57748   0.06164   0.00000  Uiso   1.00
C429   C     0.02634   0.49079   0.05600   0.00000  Uiso   1.00
C430   C     0.91809   0.46922   0.06244   0.00000  Uiso   1.00
C431   C     0.81004   0.38662   0.05559   0.00000  Uiso   1.00
C432   C     0.22207   0.66679   0.04935   0.00000  Uiso   1.00
C433   C     0.27840   0.79320   0.05021   0.00000  Uiso   1.00
C434   C     0.33514   0.85877   0.03777   0.00000  Uiso   1.00
C435   C     0.21623   0.50064   0.06338   0.00000  Uiso   1.00
C436   C     0.26767   0.48737   0.07603   0.00000  Uiso   1.00
C437   C     0.31954   0.41309   0.07539   0.00000  Uiso   1.00
H438   H     0.15562   0.42334   0.02803   0.00000  Uiso   1.00
H439   H     0.91907   0.30386   0.02638   0.00000  Uiso   1.00
H440   H     0.27933   0.62778   0.01416   0.00000  Uiso   1.00
H441   H     0.26861   0.32200   0.03997   0.00000  Uiso   1.00
H442   H     0.65666   0.19737   0.03020   0.00000  Uiso   1.00
H443   H     0.41633   0.88039   0.00443   0.00000  Uiso   1.00
H444   H     0.39373   0.23559   0.05886   0.00000  Uiso   1.00
H445   H     0.15448   0.62330   0.07163   0.00000  Uiso   1.00
H446   H     0.91786   0.51477   0.07237   0.00000  Uiso   1.00
H447   H     0.27812   0.83871   0.06014   0.00000  Uiso   1.00
H448   H     0.26740   0.53292   0.08595   0.00000  Uiso   1.00
H449   H     0.65568   0.36856   0.06753   0.00000  Uiso   1.00
H450   H     0.41536   0.05158   0.04175   0.00000  Uiso   1.00
H451   H     0.39275   0.40678   0.09618   0.00000  Uiso   1.00
O452   O     0.50054   0.20800   0.04856   0.00000  Uiso   1.00
O453   O     0.49722   0.10409   0.01475   0.00000  Uiso   1.00
O454   O     0.46755   0.25813   0.08616   0.00000  Uiso   1.00
N455   N     0.68890   0.25253   0.03889   0.00000  Uiso   1.00
N456   N     0.39913   0.89111   0.01479   0.00000  Uiso   1.00
N457   N     0.37803   0.28831   0.06567   0.00000  Uiso   1.00
N458   N     0.68837   0.34465   0.05897   0.00000  Uiso   1.00
N459   N     0.39861   0.98323   0.03487   0.00000  Uiso   1.00
N460   N     0.37750   0.38042   0.08576   0.00000  Uiso   1.00
C461   C     0.31380   0.84465   0.37135   0.00000  Uiso   1.00
C462   C     0.40528   0.97333   0.37650   0.00000  Uiso   1.00
C463   C     0.43060   0.08123   0.36964   0.00000  Uiso   1.00
C464   C     0.51730   0.18962   0.37607   0.00000  Uiso   1.00
C465   C     0.65039   0.38937   0.38211   0.00000  Uiso   1.00
C466   C     0.38555   0.77760   0.36986   0.00000  Uiso   1.00
C467   C     0.39427   0.72092   0.35741   0.00000  Uiso   1.00
C468   C     0.46435   0.66453   0.35825   0.00000  Uiso   1.00
C469   C     0.56674   0.56034   0.35398   0.00000  Uiso   1.00
C470   C     0.22524   0.78344   0.38388   0.00000  Uiso   1.00
C471   C     0.09916   0.73163   0.38323   0.00000  Uiso   1.00
C472   C     0.03427   0.68013   0.39588   0.00000  Uiso   1.00
C473   C     0.88774   0.58500   0.41338   0.00000  Uiso   1.00
C474   C     0.42275   0.84526   0.39497   0.00000  Uiso   1.00
C475   C     0.46445   0.97366   0.38933   0.00000  Uiso   1.00
C476   C     0.55114   0.08191   0.39577   0.00000  Uiso   1.00
C477   C     0.57658   0.18996   0.38892   0.00000  Uiso   1.00
C478   C     0.44473   0.77793   0.38269   0.00000  Uiso   1.00
C479   C     0.51481   0.72160   0.38355   0.00000  Uiso   1.00
C480   C     0.52364   0.66486   0.37111   0.00000  Uiso   1.00
C481   C     0.28441   0.78377   0.39671   0.00000  Uiso   1.00
C482   C     0.21970   0.73233   0.40936   0.00000  Uiso   1.00
C483   C     0.09355   0.68046   0.40873   0.00000  Uiso   1.00
H484   H     0.26773   0.84438   0.36136   0.00000  Uiso   1.00
H485   H     0.38479   0.08093   0.35971   0.00000  Uiso   1.00
H486   H     0.34845   0.72067   0.34749   0.00000  Uiso   1.00
H487   H     0.05339   0.73139   0.37330   0.00000  Uiso   1.00
H488   H     0.54070   0.34334   0.36353   0.00000  Uiso   1.00
H489   H     0.46405   0.58367   0.33776   0.00000  Uiso   1.00
H490   H     0.84186   0.60627   0.39219   0.00000  Uiso   1.00
H491   H     0.46882   0.84552   0.40496   0.00000  Uiso   1.00
H492   H     0.59692   0.08214   0.40570   0.00000  Uiso   1.00
H493   H     0.56058   0.72188   0.39347   0.00000  Uiso   1.00
H494   H     0.26553   0.73260   0.41929   0.00000  Uiso   1.00
H495   H     0.71288   0.34432   0.40086   0.00000  Uiso   1.00
H496   H     0.63622   0.58464   0.37509   0.00000  Uiso   1.00
H497   H     0.01404   0.60725   0.42952   0.00000  Uiso   1.00
O498   O     0.70746   0.49946   0.38190   0.00000  Uiso   1.00
O499   O     0.60687   0.50278   0.34808   0.00000  Uiso   1.00
O500   O     0.79058   0.53245   0.41949   0.00000  Uiso   1.00
N501   N     0.56363   0.31110   0.37222   0.00000  Uiso   1.00
N502   N     0.49198   0.60087   0.34812   0.00000  Uiso   1.00
N503   N     0.91028   0.62197   0.39901   0.00000  Uiso   1.00
N504   N     0.65627   0.31163   0.39230   0.00000  Uiso   1.00
N505   N     0.58463   0.60139   0.36821   0.00000  Uiso   1.00
N506   N     0.00292   0.62250   0.41909   0.00000  Uiso   1.00
C507   C     0.53085   0.68620   0.70469   0.00000  Uiso   1.00
C508   C     0.56806   0.59472   0.70983   0.00000  Uiso   1.00
C509   C     0.65063   0.56940   0.70297   0.00000  Uiso   1.00
C510   C     0.67232   0.48270   0.70940   0.00000  Uiso   1.00
C511   C     0.73899   0.34961   0.71544   0.00000  Uiso   1.00
C512   C     0.39205   0.61445   0.70319   0.00000  Uiso   1.00
C513   C     0.32665   0.60573   0.69075   0.00000  Uiso   1.00
C514   C     0.20018   0.53565   0.69159   0.00000  Uiso   1.00
C515   C     0.99360   0.43326   0.68732   0.00000  Uiso   1.00
C516   C     0.55820   0.77476   0.71722   0.00000  Uiso   1.00
C517   C     0.63248   0.90084   0.71656   0.00000  Uiso   1.00
C518   C     0.64587   0.96573   0.72921   0.00000  Uiso   1.00
C519   C     0.69726   0.11226   0.74671   0.00000  Uiso   1.00
C520   C     0.42252   0.57725   0.72830   0.00000  Uiso   1.00
C521   C     0.50921   0.53555   0.72266   0.00000  Uiso   1.00
C522   C     0.53078   0.44886   0.72911   0.00000  Uiso   1.00
C523   C     0.61338   0.42342   0.72226   0.00000  Uiso   1.00
C524   C     0.33321   0.55527   0.71602   0.00000  Uiso   1.00
C525   C     0.20680   0.48519   0.71688   0.00000  Uiso   1.00
C526   C     0.14123   0.47636   0.70444   0.00000  Uiso   1.00
C527   C     0.49936   0.71559   0.73004   0.00000  Uiso   1.00
C528   C     0.51263   0.78030   0.74269   0.00000  Uiso   1.00
C529   C     0.58691   0.90645   0.74206   0.00000  Uiso   1.00
H530   H     0.57666   0.73227   0.69470   0.00000  Uiso   1.00
H531   H     0.69614   0.61521   0.69305   0.00000  Uiso   1.00
H532   H     0.37222   0.65155   0.68082   0.00000  Uiso   1.00
H533   H     0.67800   0.94661   0.70663   0.00000  Uiso   1.00
H534   H     0.80263   0.45930   0.69687   0.00000  Uiso   1.00
H535   H     0.11961   0.53595   0.67110   0.00000  Uiso   1.00
H536   H     0.76441   0.15814   0.72552   0.00000  Uiso   1.00
H537   H     0.37670   0.53118   0.73829   0.00000  Uiso   1.00
H538   H     0.48523   0.40308   0.73903   0.00000  Uiso   1.00
H539   H     0.16129   0.43942   0.72681   0.00000  Uiso   1.00
H540   H     0.46708   0.73447   0.75262   0.00000  Uiso   1.00
H541   H     0.63144   0.28712   0.73419   0.00000  Uiso   1.00
H542   H     0.94842   0.36378   0.70842   0.00000  Uiso   1.00
H543   H     0.59322   0.98596   0.76285   0.00000  Uiso   1.00
O544   O     0.79200   0.29254   0.71523   0.00000  Uiso   1.00
O545   O     0.89591   0.39313   0.68142   0.00000  Uiso   1.00
O546   O     0.74187   0.20942   0.75283   0.00000  Uiso   1.00
N547   N     0.74747   0.43637   0.70555   0.00000  Uiso   1.00
N548   N     0.10889   0.50802   0.68146   0.00000  Uiso   1.00
N549   N     0.71169   0.08972   0.73234   0.00000  Uiso   1.00
N550   N     0.65535   0.34373   0.72564   0.00000  Uiso   1.00
N551   N     0.01677   0.41537   0.70154   0.00000  Uiso   1.00
N552   N     0.61958   0.99708   0.75243   0.00000  Uiso   1.00
