data_job_06623
_audit_creation_date              2018-12-19
_audit_creation_method            'Materials Studio'
_symmetry_space_group_name_H-M    'P1'
_symmetry_Int_Tables_number       1
_symmetry_cell_setting            triclinic
loop_
_symmetry_equiv_pos_as_xyz
  x,y,z
_cell_length_a                    23.3028
_cell_length_b                    23.1343
_cell_length_c                    16.3900
_cell_angle_alpha                 106.6420
_cell_angle_beta                  108.6980
_cell_angle_gamma                 92.6346
loop_
_atom_site_label
_atom_site_type_symbol
_atom_site_fract_x
_atom_site_fract_y
_atom_site_fract_z
_atom_site_U_iso_or_equiv
_atom_site_adp_type
_atom_site_occupancy
C1     C     0.79277   0.79950   0.51715   0.00000  Uiso   1.00
C2     C     0.73150   0.76305   0.44895   0.00000  Uiso   1.00
C3     C     0.67409   0.77646   0.44911   0.00000  Uiso   1.00
C4     C     0.62361   0.73751   0.38092   0.00000  Uiso   1.00
C5     C     0.52744   0.68857   0.28507   0.00000  Uiso   1.00
C6     C     0.82772   0.75444   0.55796   0.00000  Uiso   1.00
C7     C     0.85121   0.76061   0.64977   0.00000  Uiso   1.00
C8     C     0.88173   0.71440   0.67334   0.00000  Uiso   1.00
C9     C     0.93498   0.65212   0.74673   0.00000  Uiso   1.00
C10    C     0.82763   0.81728   0.46138   0.00000  Uiso   1.00
C11    C     0.85107   0.87628   0.47200   0.00000  Uiso   1.00
C12    C     0.88153   0.88298   0.41427   0.00000  Uiso   1.00
C13    C     0.93465   0.91826   0.33771   0.00000  Uiso   1.00
C14    C     0.80522   0.70649   0.39576   0.00000  Uiso   1.00
C15    C     0.73826   0.71253   0.38302   0.00000  Uiso   1.00
C16    C     0.68786   0.67355   0.31480   0.00000  Uiso   1.00
C17    C     0.63038   0.68690   0.31486   0.00000  Uiso   1.00
C18    C     0.83448   0.70392   0.49203   0.00000  Uiso   1.00
C19    C     0.86498   0.65770   0.51546   0.00000  Uiso   1.00
C20    C     0.88850   0.66379   0.60729   0.00000  Uiso   1.00
C21    C     0.83439   0.76676   0.39544   0.00000  Uiso   1.00
C22    C     0.86483   0.77337   0.33769   0.00000  Uiso   1.00
C23    C     0.88831   0.83237   0.34822   0.00000  Uiso   1.00
H24    H     0.78752   0.83883   0.56849   0.00000  Uiso   1.00
H25    H     0.66888   0.81556   0.50015   0.00000  Uiso   1.00
H26    H     0.84598   0.79971   0.70078   0.00000  Uiso   1.00
H27    H     0.84583   0.91536   0.52303   0.00000  Uiso   1.00
H28    H     0.54033   0.76745   0.39532   0.00000  Uiso   1.00
H29    H     0.91377   0.73405   0.81836   0.00000  Uiso   1.00
H30    H     0.91346   0.97793   0.44355   0.00000  Uiso   1.00
H31    H     0.81048   0.66716   0.34443   0.00000  Uiso   1.00
H32    H     0.69310   0.63446   0.26379   0.00000  Uiso   1.00
H33    H     0.87020   0.61861   0.46442   0.00000  Uiso   1.00
H34    H     0.87005   0.73426   0.28668   0.00000  Uiso   1.00
H35    H     0.55999   0.62047   0.20349   0.00000  Uiso   1.00
H36    H     0.93343   0.58707   0.62653   0.00000  Uiso   1.00
H37    H     0.93312   0.83094   0.25172   0.00000  Uiso   1.00
O38    O     0.47253   0.67554   0.25042   0.00000  Uiso   1.00
O39    O     0.96247   0.63172   0.80543   0.00000  Uiso   1.00
O40    O     0.96207   0.95168   0.31368   0.00000  Uiso   1.00
N41    N     0.56107   0.73736   0.36123   0.00000  Uiso   1.00
N42    N     0.91020   0.70612   0.75674   0.00000  Uiso   1.00
N43    N     0.90993   0.93412   0.40634   0.00000  Uiso   1.00
N44    N     0.57164   0.65826   0.25801   0.00000  Uiso   1.00
N45    N     0.92078   0.62703   0.65352   0.00000  Uiso   1.00
N46    N     0.92051   0.85503   0.30312   0.00000  Uiso   1.00
C47    C     0.42836   0.75281   0.72397   0.00000  Uiso   1.00
C48    C     0.36592   0.71756   0.70432   0.00000  Uiso   1.00
C49    C     0.35032   0.69108   0.76183   0.00000  Uiso   1.00
C50    C     0.29085   0.66080   0.73140   0.00000  Uiso   1.00
C51    C     0.20035   0.60660   0.71379   0.00000  Uiso   1.00
C52    C     0.44928   0.72093   0.64555   0.00000  Uiso   1.00
C53    C     0.50377   0.69729   0.65366   0.00000  Uiso   1.00
C54    C     0.51447   0.66986   0.57376   0.00000  Uiso   1.00
C55    C     0.55341   0.62092   0.46492   0.00000  Uiso   1.00
C56    C     0.41650   0.81535   0.71490   0.00000  Uiso   1.00
C57    C     0.44343   0.87111   0.78132   0.00000  Uiso   1.00
C58    C     0.42654   0.92317   0.75980   0.00000  Uiso   1.00
C59    C     0.41457   0.02083   0.75864   0.00000  Uiso   1.00
C60    C     0.35048   0.74612   0.56765   0.00000  Uiso   1.00
C61    C     0.32362   0.71392   0.61941   0.00000  Uiso   1.00
C62    C     0.26416   0.68368   0.58888   0.00000  Uiso   1.00
C63    C     0.24847   0.65716   0.64634   0.00000  Uiso   1.00
C64    C     0.40698   0.71729   0.56065   0.00000  Uiso   1.00
C65    C     0.41760   0.68989   0.48071   0.00000  Uiso   1.00
C66    C     0.47209   0.66621   0.48870   0.00000  Uiso   1.00
C67    C     0.37419   0.81171   0.63000   0.00000  Uiso   1.00
C68    C     0.35726   0.86370   0.60837   0.00000  Uiso   1.00
C69    C     0.38416   0.91953   0.67474   0.00000  Uiso   1.00
H70    H     0.46129   0.75564   0.79007   0.00000  Uiso   1.00
H71    H     0.38308   0.69390   0.82753   0.00000  Uiso   1.00
H72    H     0.53650   0.70012   0.71938   0.00000  Uiso   1.00
H73    H     0.47617   0.87390   0.84701   0.00000  Uiso   1.00
H74    H     0.27771   0.62384   0.83161   0.00000  Uiso   1.00
H75    H     0.60122   0.63696   0.60357   0.00000  Uiso   1.00
H76    H     0.47400   0.00342   0.87271   0.00000  Uiso   1.00
H77    H     0.31754   0.74329   0.50154   0.00000  Uiso   1.00
H78    H     0.23143   0.68087   0.52317   0.00000  Uiso   1.00
H79    H     0.38486   0.68709   0.41502   0.00000  Uiso   1.00
H80    H     0.32453   0.86087   0.54266   0.00000  Uiso   1.00
H81    H     0.15463   0.61326   0.58458   0.00000  Uiso   1.00
H82    H     0.47815   0.62638   0.35654   0.00000  Uiso   1.00
H83    H     0.35092   0.99284   0.62568   0.00000  Uiso   1.00
O84    O     0.16212   0.57769   0.72752   0.00000  Uiso   1.00
O85    O     0.58657   0.59492   0.42834   0.00000  Uiso   1.00
O86    O     0.41965   0.07571   0.78145   0.00000  Uiso   1.00
N87    N     0.26055   0.62992   0.77051   0.00000  Uiso   1.00
N88    N     0.56302   0.64218   0.55730   0.00000  Uiso   1.00
N89    N     0.44409   0.98479   0.80892   0.00000  Uiso   1.00
N90    N     0.19433   0.62423   0.63759   0.00000  Uiso   1.00
N91    N     0.49679   0.63649   0.42438   0.00000  Uiso   1.00
N92    N     0.37786   0.97910   0.67600   0.00000  Uiso   1.00
C93    C     0.64550   0.46547   0.67963   0.00000  Uiso   1.00
C94    C     0.65401   0.39848   0.65511   0.00000  Uiso   1.00
C95    C     0.68919   0.37179   0.60466   0.00000  Uiso   1.00
C96    C     0.69108   0.30983   0.58960   0.00000  Uiso   1.00
C97    C     0.70915   0.21096   0.54629   0.00000  Uiso   1.00
C98    C     0.57656   0.46593   0.64395   0.00000  Uiso   1.00
C99    C     0.54664   0.49595   0.58414   0.00000  Uiso   1.00
C100   C     0.48334   0.49077   0.55970   0.00000  Uiso   1.00
C101   C     0.38119   0.49666   0.49912   0.00000  Uiso   1.00
C102   C     0.66536   0.48914   0.78296   0.00000  Uiso   1.00
C103   C     0.71009   0.53869   0.84002   0.00000  Uiso   1.00
C104   C     0.72155   0.55307   0.93261   0.00000  Uiso   1.00
C105   C     0.75727   0.59500   0.08785   0.00000  Uiso   1.00
C106   C     0.58631   0.40291   0.74259   0.00000  Uiso   1.00
C107   C     0.62185   0.36450   0.68931   0.00000  Uiso   1.00
C108   C     0.62370   0.30256   0.67433   0.00000  Uiso   1.00
C109   C     0.65888   0.27578   0.62386   0.00000  Uiso   1.00
C110   C     0.54441   0.43194   0.67815   0.00000  Uiso   1.00
C111   C     0.48115   0.42673   0.65380   0.00000  Uiso   1.00
C112   C     0.45113   0.45673   0.59396   0.00000  Uiso   1.00
C113   C     0.63321   0.45516   0.81716   0.00000  Uiso   1.00
C114   C     0.64460   0.46946   0.90968   0.00000  Uiso   1.00
C115   C     0.68934   0.51902   0.96687   0.00000  Uiso   1.00
H116   H     0.67053   0.49193   0.65300   0.00000  Uiso   1.00
H117   H     0.71406   0.39810   0.57819   0.00000  Uiso   1.00
H118   H     0.57153   0.52225   0.55769   0.00000  Uiso   1.00
H119   H     0.73496   0.56498   0.81352   0.00000  Uiso   1.00
H120   H     0.74812   0.27908   0.51032   0.00000  Uiso   1.00
H121   H     0.44760   0.54087   0.46710   0.00000  Uiso   1.00
H122   H     0.79222   0.63097   0.00658   0.00000  Uiso   1.00
H123   H     0.56127   0.37645   0.76922   0.00000  Uiso   1.00
H124   H     0.59881   0.27628   0.70080   0.00000  Uiso   1.00
H125   H     0.45628   0.40043   0.68029   0.00000  Uiso   1.00
H126   H     0.61971   0.44316   0.93612   0.00000  Uiso   1.00
H127   H     0.65458   0.18020   0.60983   0.00000  Uiso   1.00
H128   H     0.35406   0.44199   0.56661   0.00000  Uiso   1.00
H129   H     0.69868   0.53210   0.10609   0.00000  Uiso   1.00
O130   O     0.72800   0.16582   0.51294   0.00000  Uiso   1.00
O131   O     0.33373   0.50929   0.45625   0.00000  Uiso   1.00
O132   O     0.78586   0.62751   0.16404   0.00000  Uiso   1.00
N133   N     0.72096   0.26955   0.54315   0.00000  Uiso   1.00
N134   N     0.43999   0.51431   0.50272   0.00000  Uiso   1.00
N135   N     0.76217   0.59856   0.00709   0.00000  Uiso   1.00
N136   N     0.67063   0.21635   0.59669   0.00000  Uiso   1.00
N137   N     0.38966   0.46110   0.55627   0.00000  Uiso   1.00
N138   N     0.71184   0.54536   0.06064   0.00000  Uiso   1.00
C139   C     0.27451   0.98931   0.31131   0.00000  Uiso   1.00
C140   C     0.21099   0.95204   0.25696   0.00000  Uiso   1.00
C141   C     0.16046   0.95587   0.28450   0.00000  Uiso   1.00
C142   C     0.10643   0.91792   0.22500   0.00000  Uiso   1.00
C143   C     0.00829   0.86621   0.15335   0.00000  Uiso   1.00
C144   C     0.28957   0.02192   0.25029   0.00000  Uiso   1.00
C145   C     0.30512   0.08449   0.27225   0.00000  Uiso   1.00
C146   C     0.31725   0.10536   0.20714   0.00000  Uiso   1.00
C147   C     0.34115   0.16213   0.12518   0.00000  Uiso   1.00
C148   C     0.31881   0.94311   0.32070   0.00000  Uiso   1.00
C149   C     0.35896   0.93943   0.40185   0.00000  Uiso   1.00
C150   C     0.39573   0.89395   0.39602   0.00000  Uiso   1.00
C151   C     0.46503   0.82836   0.42338   0.00000  Uiso   1.00
C152   C     0.26843   0.91510   0.15665   0.00000  Uiso   1.00
C153   C     0.20769   0.91174   0.17295   0.00000  Uiso   1.00
C154   C     0.15372   0.87377   0.11339   0.00000  Uiso   1.00
C155   C     0.10312   0.87754   0.14084   0.00000  Uiso   1.00
C156   C     0.28627   0.98162   0.16629   0.00000  Uiso   1.00
C157   C     0.29839   0.00239   0.10113   0.00000  Uiso   1.00
C158   C     0.31394   0.06498   0.12298   0.00000  Uiso   1.00
C159   C     0.31551   0.90280   0.23669   0.00000  Uiso   1.00
C160   C     0.35222   0.85733   0.23073   0.00000  Uiso   1.00
C161   C     0.39242   0.85357   0.31186   0.00000  Uiso   1.00
H162   H     0.27709   0.02069   0.37672   0.00000  Uiso   1.00
H163   H     0.16303   0.98707   0.34952   0.00000  Uiso   1.00
H164   H     0.30768   0.11567   0.33727   0.00000  Uiso   1.00
H165   H     0.36150   0.97063   0.46685   0.00000  Uiso   1.00
H166   H     0.03511   0.93204   0.28230   0.00000  Uiso   1.00
H167   H     0.34013   0.20320   0.25649   0.00000  Uiso   1.00
H168   H     0.45364   0.89735   0.52974   0.00000  Uiso   1.00
H169   H     0.26586   0.88372   0.09124   0.00000  Uiso   1.00
H170   H     0.15118   0.84258   0.04838   0.00000  Uiso   1.00
H171   H     0.29583   0.97119   0.03613   0.00000  Uiso   1.00
H172   H     0.34966   0.82614   0.16571   0.00000  Uiso   1.00
H173   H     0.02549   0.81477   0.03789   0.00000  Uiso   1.00
H174   H     0.33051   0.08594   0.01208   0.00000  Uiso   1.00
H175   H     0.44402   0.78008   0.28532   0.00000  Uiso   1.00
O176   O     0.95506   0.84883   0.13704   0.00000  Uiso   1.00
O177   O     0.35524   0.20458   0.10318   0.00000  Uiso   1.00
O178   O     0.50416   0.80331   0.46167   0.00000  Uiso   1.00
N179   N     0.04859   0.91008   0.23067   0.00000  Uiso   1.00
N180   N     0.33375   0.16360   0.20653   0.00000  Uiso   1.00
N181   N     0.43989   0.87766   0.46199   0.00000  Uiso   1.00
N182   N     0.04341   0.84698   0.09915   0.00000  Uiso   1.00
N183   N     0.32857   0.10050   0.07501   0.00000  Uiso   1.00
N184   N     0.43471   0.81456   0.33047   0.00000  Uiso   1.00
C185   C     0.89984   0.30995   0.33056   0.00000  Uiso   1.00
C186   C     0.84116   0.33377   0.28894   0.00000  Uiso   1.00
C187   C     0.83795   0.38969   0.27360   0.00000  Uiso   1.00
C188   C     0.77990   0.40301   0.23485   0.00000  Uiso   1.00
C189   C     0.69683   0.44625   0.17361   0.00000  Uiso   1.00
C190   C     0.89806   0.24882   0.26171   0.00000  Uiso   1.00
C191   C     0.94269   0.23332   0.22348   0.00000  Uiso   1.00
C192   C     0.93253   0.17513   0.16182   0.00000  Uiso   1.00
C193   C     0.93782   0.08647   0.05835   0.00000  Uiso   1.00
C194   C     0.89357   0.29531   0.41258   0.00000  Uiso   1.00
C195   C     0.93444   0.31888   0.50121   0.00000  Uiso   1.00
C196   C     0.92052   0.29982   0.56658   0.00000  Uiso   1.00
C197   C     0.91885   0.28334   0.69736   0.00000  Uiso   1.00
C198   C     0.80246   0.23415   0.28904   0.00000  Uiso   1.00
C199   C     0.78827   0.29260   0.26639   0.00000  Uiso   1.00
C200   C     0.73021   0.30584   0.22766   0.00000  Uiso   1.00
C201   C     0.72691   0.36177   0.21226   0.00000  Uiso   1.00
C202   C     0.84516   0.20765   0.23915   0.00000  Uiso   1.00
C203   C     0.83495   0.14947   0.17754   0.00000  Uiso   1.00
C204   C     0.87955   0.13389   0.13923   0.00000  Uiso   1.00
C205   C     0.84068   0.25414   0.39003   0.00000  Uiso   1.00
C206   C     0.82670   0.23503   0.45527   0.00000  Uiso   1.00
C207   C     0.86753   0.25857   0.54398   0.00000  Uiso   1.00
H208   H     0.94102   0.34199   0.34812   0.00000  Uiso   1.00
H209   H     0.87889   0.42154   0.29105   0.00000  Uiso   1.00
H210   H     0.98362   0.26519   0.24095   0.00000  Uiso   1.00
H211   H     0.97537   0.35074   0.51864   0.00000  Uiso   1.00
H212   H     0.78669   0.49156   0.21780   0.00000  Uiso   1.00
H213   H     0.00751   0.16189   0.11219   0.00000  Uiso   1.00
H214   H     0.99012   0.34228   0.69775   0.00000  Uiso   1.00
H215   H     0.76128   0.20210   0.27149   0.00000  Uiso   1.00
H216   H     0.68928   0.27397   0.21021   0.00000  Uiso   1.00
H217   H     0.79401   0.11762   0.16011   0.00000  Uiso   1.00
H218   H     0.78576   0.20317   0.43780   0.00000  Uiso   1.00
H219   H     0.63279   0.37179   0.15219   0.00000  Uiso   1.00
H220   H     0.85362   0.04211   0.04658   0.00000  Uiso   1.00
H221   H     0.83623   0.22251   0.63213   0.00000  Uiso   1.00
O222   O     0.66562   0.48146   0.14605   0.00000  Uiso   1.00
O223   O     0.95535   0.04895   0.00750   0.00000  Uiso   1.00
O224   O     0.93253   0.28562   0.77573   0.00000  Uiso   1.00
N225   N     0.76035   0.45351   0.21079   0.00000  Uiso   1.00
N226   N     0.96680   0.14529   0.11203   0.00000  Uiso   1.00
N227   N     0.95055   0.31394   0.65948   0.00000  Uiso   1.00
N228   N     0.67754   0.38906   0.17548   0.00000  Uiso   1.00
N229   N     0.88399   0.08085   0.07673   0.00000  Uiso   1.00
N230   N     0.86774   0.24949   0.62417   0.00000  Uiso   1.00
C231   C     0.28025   0.29121   0.93154   0.00000  Uiso   1.00
C232   C     0.27076   0.24399   0.83983   0.00000  Uiso   1.00
C233   C     0.31210   0.20584   0.82013   0.00000  Uiso   1.00
C234   C     0.29486   0.16579   0.73217   0.00000  Uiso   1.00
C235   C     0.28871   0.09273   0.59980   0.00000  Uiso   1.00
C236   C     0.22601   0.27535   0.95817   0.00000  Uiso   1.00
C237   C     0.22974   0.26357   0.03797   0.00000  Uiso   1.00
C238   C     0.17482   0.24993   0.04962   0.00000  Uiso   1.00
C239   C     0.09921   0.22559   0.10100   0.00000  Uiso   1.00
C240   C     0.27261   0.35203   0.91357   0.00000  Uiso   1.00
C241   C     0.31552   0.40473   0.95589   0.00000  Uiso   1.00
C242   C     0.29983   0.45566   0.93001   0.00000  Uiso   1.00
C243   C     0.29657   0.55038   0.91215   0.00000  Uiso   1.00
C244   C     0.17610   0.28793   0.81035   0.00000  Uiso   1.00
C245   C     0.21419   0.24222   0.77401   0.00000  Uiso   1.00
C246   C     0.19687   0.20222   0.68605   0.00000  Uiso   1.00
C247   C     0.23819   0.16401   0.66622   0.00000  Uiso   1.00
C248   C     0.16944   0.27357   0.89234   0.00000  Uiso   1.00
C249   C     0.11451   0.25995   0.90388   0.00000  Uiso   1.00
C250   C     0.11815   0.24814   0.98368   0.00000  Uiso   1.00
C251   C     0.21605   0.35025   0.84774   0.00000  Uiso   1.00
C252   C     0.20029   0.40111   0.82180   0.00000  Uiso   1.00
C253   C     0.24316   0.45388   0.86407   0.00000  Uiso   1.00
H254   H     0.32429   0.29259   0.98279   0.00000  Uiso   1.00
H255   H     0.35588   0.20723   0.87110   0.00000  Uiso   1.00
H256   H     0.27352   0.26495   0.08890   0.00000  Uiso   1.00
H257   H     0.35929   0.40609   0.00683   0.00000  Uiso   1.00
H258   H     0.36593   0.11178   0.71824   0.00000  Uiso   1.00
H259   H     0.19229   0.23352   0.17751   0.00000  Uiso   1.00
H260   H     0.37314   0.53115   0.00445   0.00000  Uiso   1.00
H261   H     0.13206   0.28655   0.75910   0.00000  Uiso   1.00
H262   H     0.15309   0.20085   0.63512   0.00000  Uiso   1.00
H263   H     0.07074   0.25858   0.85293   0.00000  Uiso   1.00
H264   H     0.15651   0.39972   0.77086   0.00000  Uiso   1.00
H265   H     0.20135   0.10661   0.52672   0.00000  Uiso   1.00
H266   H     0.02770   0.22835   0.98599   0.00000  Uiso   1.00
H267   H     0.20855   0.52597   0.81292   0.00000  Uiso   1.00
O268   O     0.30094   0.05292   0.54497   0.00000  Uiso   1.00
O269   O     0.07313   0.21265   0.14752   0.00000  Uiso   1.00
O270   O     0.31040   0.60312   0.92047   0.00000  Uiso   1.00
N271   N     0.32432   0.12234   0.69018   0.00000  Uiso   1.00
N272   N     0.16197   0.23615   0.11956   0.00000  Uiso   1.00
N273   N     0.33104   0.51440   0.95778   0.00000  Uiso   1.00
N274   N     0.23575   0.11955   0.58712   0.00000  Uiso   1.00
N275   N     0.07341   0.23336   0.01650   0.00000  Uiso   1.00
N276   N     0.24248   0.51162   0.85472   0.00000  Uiso   1.00
C277   C     0.12310   0.25642   0.39657   0.00000  Uiso   1.00
C278   C     0.18764   0.26968   0.46675   0.00000  Uiso   1.00
C279   C     0.23960   0.25096   0.44978   0.00000  Uiso   1.00
C280   C     0.29437   0.26773   0.52309   0.00000  Uiso   1.00
C281   C     0.39419   0.28313   0.61880   0.00000  Uiso   1.00
C282   C     0.10225   0.31834   0.40016   0.00000  Uiso   1.00
C283   C     0.08240   0.34052   0.32720   0.00000  Uiso   1.00
C284   C     0.06528   0.39825   0.34446   0.00000  Uiso   1.00
C285   C     0.03248   0.48918   0.33676   0.00000  Uiso   1.00
C286   C     0.08275   0.22447   0.43272   0.00000  Uiso   1.00
C287   C     0.04650   0.16774   0.38713   0.00000  Uiso   1.00
C288   C     0.01295   0.14645   0.43179   0.00000  Uiso   1.00
C289   C     0.94989   0.09163   0.47465   0.00000  Uiso   1.00
C290   C     0.12798   0.31949   0.55695   0.00000  Uiso   1.00
C291   C     0.19029   0.30394   0.55386   0.00000  Uiso   1.00
C292   C     0.24500   0.32073   0.62722   0.00000  Uiso   1.00
C293   C     0.29703   0.30204   0.61036   0.00000  Uiso   1.00
C294   C     0.10490   0.35259   0.48726   0.00000  Uiso   1.00
C295   C     0.08779   0.41030   0.50464   0.00000  Uiso   1.00
C296   C     0.06793   0.43257   0.43173   0.00000  Uiso   1.00
C297   C     0.08540   0.25873   0.51983   0.00000  Uiso   1.00
C298   C     0.05190   0.23752   0.56457   0.00000  Uiso   1.00
C299   C     0.01561   0.18077   0.51906   0.00000  Uiso   1.00
H300   H     0.12104   0.22976   0.32875   0.00000  Uiso   1.00
H301   H     0.23753   0.22446   0.38235   0.00000  Uiso   1.00
H302   H     0.08035   0.31400   0.25979   0.00000  Uiso   1.00
H303   H     0.04446   0.14125   0.31972   0.00000  Uiso   1.00
H304   H     0.36786   0.23371   0.48019   0.00000  Uiso   1.00
H305   H     0.03641   0.42251   0.22176   0.00000  Uiso   1.00
H306   H     0.96073   0.05823   0.34812   0.00000  Uiso   1.00
H307   H     0.13004   0.34616   0.62477   0.00000  Uiso   1.00
H308   H     0.24703   0.34724   0.69462   0.00000  Uiso   1.00
H309   H     0.08985   0.43679   0.57206   0.00000  Uiso   1.00
H310   H     0.05396   0.26404   0.63198   0.00000  Uiso   1.00
H311   H     0.37557   0.33337   0.73364   0.00000  Uiso   1.00
H312   H     0.04412   0.52218   0.47520   0.00000  Uiso   1.00
H313   H     0.96844   0.15789   0.60156   0.00000  Uiso   1.00
O314   O     0.44852   0.28217   0.64752   0.00000  Uiso   1.00
O315   O     0.01366   0.52987   0.30845   0.00000  Uiso   1.00
O316   O     0.91438   0.05193   0.47424   0.00000  Uiso   1.00
N317   N     0.35362   0.25700   0.53026   0.00000  Uiso   1.00
N318   N     0.04374   0.43353   0.28864   0.00000  Uiso   1.00
N319   N     0.97298   0.09296   0.40676   0.00000  Uiso   1.00
N320   N     0.35777   0.31063   0.66664   0.00000  Uiso   1.00
N321   N     0.04789   0.48716   0.42502   0.00000  Uiso   1.00
N322   N     0.97713   0.14658   0.54314   0.00000  Uiso   1.00
C323   C     0.46625   0.34329   0.18018   0.00000  Uiso   1.00
C324   C     0.52482   0.38152   0.25397   0.00000  Uiso   1.00
C325   C     0.56016   0.42881   0.24749   0.00000  Uiso   1.00
C326   C     0.61206   0.45816   0.32247   0.00000  Uiso   1.00
C327   C     0.70056   0.52017   0.42511   0.00000  Uiso   1.00
C328   C     0.41689   0.34940   0.22341   0.00000  Uiso   1.00
C329   C     0.36149   0.36968   0.19124   0.00000  Uiso   1.00
C330   C     0.32254   0.37199   0.24049   0.00000  Uiso   1.00
C331   C     0.24346   0.38411   0.29566   0.00000  Uiso   1.00
C332   C     0.47715   0.27705   0.16229   0.00000  Uiso   1.00
C333   C     0.47240   0.23648   0.07871   0.00000  Uiso   1.00
C334   C     0.48417   0.17786   0.07649   0.00000  Uiso   1.00
C335   C     0.49865   0.07764   0.03675   0.00000  Uiso   1.00
C336   C     0.49560   0.31132   0.32484   0.00000  Uiso   1.00
C337   C     0.54075   0.36415   0.33254   0.00000  Uiso   1.00
C338   C     0.59262   0.39343   0.40754   0.00000  Uiso   1.00
C339   C     0.62803   0.44076   0.40118   0.00000  Uiso   1.00
C340   C     0.43283   0.33204   0.30199   0.00000  Uiso   1.00
C341   C     0.39395   0.33431   0.35129   0.00000  Uiso   1.00
C342   C     0.33850   0.35459   0.31921   0.00000  Uiso   1.00
C343   C     0.49309   0.25968   0.24086   0.00000  Uiso   1.00
C344   C     0.50487   0.20111   0.23876   0.00000  Uiso   1.00
C345   C     0.50013   0.16047   0.15521   0.00000  Uiso   1.00
H346   H     0.45384   0.35681   0.11901   0.00000  Uiso   1.00
H347   H     0.54780   0.44224   0.18668   0.00000  Uiso   1.00
H348   H     0.34916   0.38311   0.13043   0.00000  Uiso   1.00
H349   H     0.46006   0.24994   0.01792   0.00000  Uiso   1.00
H350   H     0.65899   0.52930   0.29637   0.00000  Uiso   1.00
H351   H     0.24014   0.40462   0.17775   0.00000  Uiso   1.00
H352   H     0.47399   0.12379   0.94050   0.00000  Uiso   1.00
H353   H     0.50800   0.29780   0.38601   0.00000  Uiso   1.00
H354   H     0.60494   0.37998   0.46834   0.00000  Uiso   1.00
H355   H     0.40630   0.32086   0.41209   0.00000  Uiso   1.00
H356   H     0.51720   0.18769   0.29958   0.00000  Uiso   1.00
H357   H     0.70537   0.47878   0.52498   0.00000  Uiso   1.00
H358   H     0.28651   0.35410   0.40636   0.00000  Uiso   1.00
H359   H     0.52036   0.07326   0.16911   0.00000  Uiso   1.00
O360   O     0.74496   0.55918   0.46002   0.00000  Uiso   1.00
O361   O     0.19544   0.39560   0.30439   0.00000  Uiso   1.00
O362   O     0.50224   0.02715   0.99313   0.00000  Uiso   1.00
N363   N     0.65661   0.50612   0.33887   0.00000  Uiso   1.00
N364   N     0.26501   0.38956   0.22798   0.00000  Uiso   1.00
N365   N     0.48363   0.12700   0.00616   0.00000  Uiso   1.00
N366   N     0.68157   0.47894   0.46188   0.00000  Uiso   1.00
N367   N     0.28997   0.36238   0.35099   0.00000  Uiso   1.00
N368   N     0.50858   0.09982   0.12917   0.00000  Uiso   1.00
C369   C     0.14833   0.67736   0.33320   0.00000  Uiso   1.00
C370   C     0.16717   0.74577   0.38229   0.00000  Uiso   1.00
C371   C     0.16729   0.77619   0.46866   0.00000  Uiso   1.00
C372   C     0.18611   0.83887   0.50155   0.00000  Uiso   1.00
C373   C     0.21264   0.94037   0.58566   0.00000  Uiso   1.00
C374   C     0.20299   0.65479   0.30867   0.00000  Uiso   1.00
C375   C     0.23321   0.60870   0.33312   0.00000  Uiso   1.00
C376   C     0.28217   0.59479   0.30402   0.00000  Uiso   1.00
C377   C     0.36429   0.55500   0.27377   0.00000  Uiso   1.00
C378   C     0.09761   0.67072   0.24340   0.00000  Uiso   1.00
C379   C     0.03923   0.63801   0.21297   0.00000  Uiso   1.00
C380   C     0.99947   0.63750   0.12891   0.00000  Uiso   1.00
C381   C     0.91796   0.62245   0.99734   0.00000  Uiso   1.00
C382   C     0.18154   0.73457   0.23801   0.00000  Uiso   1.00
C383   C     0.18521   0.77685   0.33059   0.00000  Uiso   1.00
C384   C     0.20403   0.83950   0.36335   0.00000  Uiso   1.00
C385   C     0.20418   0.87000   0.44975   0.00000  Uiso   1.00
C386   C     0.22103   0.68587   0.25697   0.00000  Uiso   1.00
C387   C     0.26995   0.67201   0.22781   0.00000  Uiso   1.00
C388   C     0.30025   0.62592   0.25223   0.00000  Uiso   1.00
C389   C     0.11564   0.70180   0.19170   0.00000  Uiso   1.00
C390   C     0.07597   0.70132   0.10767   0.00000  Uiso   1.00
C391   C     0.01754   0.66863   0.07712   0.00000  Uiso   1.00
H392   H     0.13429   0.65316   0.37344   0.00000  Uiso   1.00
H393   H     0.15333   0.75212   0.50865   0.00000  Uiso   1.00
H394   H     0.21924   0.58466   0.37313   0.00000  Uiso   1.00
H395   H     0.02529   0.61397   0.25300   0.00000  Uiso   1.00
H396   H     0.18242   0.87554   0.63577   0.00000  Uiso   1.00
H397   H     0.32137   0.52242   0.34998   0.00000  Uiso   1.00
H398   H     0.91238   0.58423   0.09666   0.00000  Uiso   1.00
H399   H     0.19559   0.75877   0.19776   0.00000  Uiso   1.00
H400   H     0.21799   0.86353   0.32333   0.00000  Uiso   1.00
H401   H     0.28390   0.69607   0.18780   0.00000  Uiso   1.00
H402   H     0.08995   0.72538   0.06768   0.00000  Uiso   1.00
H403   H     0.23490   0.96597   0.48535   0.00000  Uiso   1.00
H404   H     0.37385   0.61284   0.19956   0.00000  Uiso   1.00
H405   H     0.96487   0.67465   0.94625   0.00000  Uiso   1.00
O406   O     0.22231   0.98776   0.64635   0.00000  Uiso   1.00
O407   O     0.40460   0.52448   0.27139   0.00000  Uiso   1.00
O408   O     0.86802   0.60557   0.93905   0.00000  Uiso   1.00
N409   N     0.19168   0.88245   0.58313   0.00000  Uiso   1.00
N410   N     0.32160   0.55231   0.31594   0.00000  Uiso   1.00
N411   N     0.93924   0.61008   0.07911   0.00000  Uiso   1.00
N412   N     0.21992   0.93111   0.50219   0.00000  Uiso   1.00
N413   N     0.34984   0.60097   0.23501   0.00000  Uiso   1.00
N414   N     0.96748   0.65874   0.99817   0.00000  Uiso   1.00
C415   C     0.63690   0.01319   0.55372   0.00000  Uiso   1.00
C416   C     0.70109   0.05003   0.60106   0.00000  Uiso   1.00
C417   C     0.74891   0.04376   0.56757   0.00000  Uiso   1.00
C418   C     0.80411   0.08174   0.62117   0.00000  Uiso   1.00
C419   C     0.90271   0.13242   0.68192   0.00000  Uiso   1.00
C420   C     0.62565   0.98370   0.62045   0.00000  Uiso   1.00
C421   C     0.61004   0.92166   0.60326   0.00000  Uiso   1.00
C422   C     0.60172   0.90381   0.67318   0.00000  Uiso   1.00
C423   C     0.58316   0.85151   0.76400   0.00000  Uiso   1.00
C424   C     0.59286   0.05972   0.54571   0.00000  Uiso   1.00
C425   C     0.54966   0.06159   0.46567   0.00000  Uiso   1.00
C426   C     0.51372   0.10773   0.47266   0.00000  Uiso   1.00
C427   C     0.44424   0.17347   0.44743   0.00000  Uiso   1.00
C428   C     0.64987   0.09180   0.70848   0.00000  Uiso   1.00
C429   C     0.70813   0.09272   0.68512   0.00000  Uiso   1.00
C430   C     0.76327   0.13073   0.73879   0.00000  Uiso   1.00
C431   C     0.81117   0.12451   0.70538   0.00000  Uiso   1.00
C432   C     0.63270   0.02639   0.70451   0.00000  Uiso   1.00
C433   C     0.62439   0.00863   0.77447   0.00000  Uiso   1.00
C434   C     0.60878   0.94658   0.75739   0.00000  Uiso   1.00
C435   C     0.59990   0.10241   0.62976   0.00000  Uiso   1.00
C436   C     0.56402   0.14856   0.63689   0.00000  Uiso   1.00
C437   C     0.52078   0.15051   0.55687   0.00000  Uiso   1.00
H438   H     0.63141   0.97995   0.48828   0.00000  Uiso   1.00
H439   H     0.74344   0.01070   0.50252   0.00000  Uiso   1.00
H440   H     0.60459   0.88863   0.53820   0.00000  Uiso   1.00
H441   H     0.54422   0.02854   0.40063   0.00000  Uiso   1.00
H442   H     0.87076   0.06362   0.55539   0.00000  Uiso   1.00
H443   H     0.57795   0.80622   0.63061   0.00000  Uiso   1.00
H444   H     0.45066   0.10124   0.34052   0.00000  Uiso   1.00
H445   H     0.65536   0.12504   0.77392   0.00000  Uiso   1.00
H446   H     0.76871   0.16376   0.80383   0.00000  Uiso   1.00
H447   H     0.62985   0.04168   0.83951   0.00000  Uiso   1.00
H448   H     0.56948   0.18159   0.70194   0.00000  Uiso   1.00
H449   H     0.89127   0.18784   0.79995   0.00000  Uiso   1.00
H450   H     0.59846   0.93044   0.87516   0.00000  Uiso   1.00
H451   H     0.47116   0.22547   0.58508   0.00000  Uiso   1.00
O452   O     0.95515   0.14857   0.69221   0.00000  Uiso   1.00
O453   O     0.57099   0.81087   0.79088   0.00000  Uiso   1.00
O454   O     0.40398   0.19794   0.41029   0.00000  Uiso   1.00
N455   N     0.86003   0.08755   0.60883   0.00000  Uiso   1.00
N456   N     0.58628   0.84689   0.67916   0.00000  Uiso   1.00
N457   N     0.46726   0.12271   0.40796   0.00000  Uiso   1.00
N458   N     0.87106   0.15439   0.74043   0.00000  Uiso   1.00
N459   N     0.59731   0.91373   0.81076   0.00000  Uiso   1.00
N460   N     0.47829   0.18955   0.53955   0.00000  Uiso   1.00
C461   C     0.03829   0.88390   0.86056   0.00000  Uiso   1.00
C462   C     0.07208   0.93789   0.85019   0.00000  Uiso   1.00
C463   C     0.12564   0.97455   0.91379   0.00000  Uiso   1.00
C464   C     0.14937   0.02164   0.89151   0.00000  Uiso   1.00
C465   C     0.20621   0.10395   0.88805   0.00000  Uiso   1.00
C466   C     0.97309   0.89726   0.84805   0.00000  Uiso   1.00
C467   C     0.94342   0.89976   0.90985   0.00000  Uiso   1.00
C468   C     0.88382   0.91264   0.88577   0.00000  Uiso   1.00
C469   C     0.78696   0.93184   0.87896   0.00000  Uiso   1.00
C470   C     0.03329   0.82920   0.77882   0.00000  Uiso   1.00
C471   C     0.05423   0.77446   0.78239   0.00000  Uiso   1.00
C472   C     0.04529   0.73004   0.70002   0.00000  Uiso   1.00
C473   C     0.04191   0.64356   0.58571   0.00000  Uiso   1.00
C474   C     0.98518   0.90234   0.70790   0.00000  Uiso   1.00
C475   C     0.04323   0.94790   0.76727   0.00000  Uiso   1.00
C476   C     0.06688   0.99494   0.74489   0.00000  Uiso   1.00
C477   C     0.12047   0.03167   0.80845   0.00000  Uiso   1.00
C478   C     0.94424   0.90727   0.76514   0.00000  Uiso   1.00
C479   C     0.88467   0.92015   0.74096   0.00000  Uiso   1.00
C480   C     0.85492   0.92267   0.80270   0.00000  Uiso   1.00
C481   C     0.00444   0.83921   0.69590   0.00000  Uiso   1.00
C482   C     0.99547   0.79486   0.61350   0.00000  Uiso   1.00
C483   C     0.01639   0.74007   0.61695   0.00000  Uiso   1.00
H484   H     0.06074   0.87611   0.92511   0.00000  Uiso   1.00
H485   H     0.14795   0.96679   0.97795   0.00000  Uiso   1.00
H486   H     0.96576   0.89200   0.97400   0.00000  Uiso   1.00
H487   H     0.07655   0.76673   0.84657   0.00000  Uiso   1.00
H488   H     0.23190   0.07175   0.99998   0.00000  Uiso   1.00
H489   H     0.84773   0.91404   0.99165   0.00000  Uiso   1.00
H490   H     0.08135   0.64988   0.72293   0.00000  Uiso   1.00
H491   H     0.96272   0.91013   0.64335   0.00000  Uiso   1.00
H492   H     0.04455   0.00268   0.68073   0.00000  Uiso   1.00
H493   H     0.86236   0.92789   0.67679   0.00000  Uiso   1.00
H494   H     0.97315   0.80262   0.54935   0.00000  Uiso   1.00
H495   H     0.14798   0.10088   0.75875   0.00000  Uiso   1.00
H496   H     0.76381   0.94317   0.75042   0.00000  Uiso   1.00
H497   H     0.99743   0.67901   0.48170   0.00000  Uiso   1.00
O498   O     0.24553   0.14660   0.90905   0.00000  Uiso   1.00
O499   O     0.74151   0.93967   0.89811   0.00000  Uiso   1.00
O500   O     0.04802   0.59310   0.54556   0.00000  Uiso   1.00
N501   N     0.20093   0.06590   0.93807   0.00000  Uiso   1.00
N502   N     0.84176   0.91846   0.93029   0.00000  Uiso   1.00
N503   N     0.06016   0.67148   0.67906   0.00000  Uiso   1.00
N504   N     0.15577   0.08157   0.80826   0.00000  Uiso   1.00
N505   N     0.79660   0.93413   0.80048   0.00000  Uiso   1.00
N506   N     0.01500   0.68716   0.54925   0.00000  Uiso   1.00
C507   C     0.60916   0.74623   0.93826   0.00000  Uiso   1.00
C508   C     0.60268   0.79822   0.01508   0.00000  Uiso   1.00
C509   C     0.56880   0.84506   0.00459   0.00000  Uiso   1.00
C510   C     0.56868   0.88825   0.08333   0.00000  Uiso   1.00
C511   C     0.55369   0.96953   0.18951   0.00000  Uiso   1.00
C512   C     0.67777   0.74856   0.95645   0.00000  Uiso   1.00
C513   C     0.70702   0.75365   0.89665   0.00000  Uiso   1.00
C514   C     0.77012   0.75502   0.92604   0.00000  Uiso   1.00
C515   C     0.87169   0.75917   0.94116   0.00000  Uiso   1.00
C516   C     0.58817   0.68739   0.95189   0.00000  Uiso   1.00
C517   C     0.54210   0.64103   0.88825   0.00000  Uiso   1.00
C518   C     0.52978   0.59089   0.91379   0.00000  Uiso   1.00
C519   C     0.49225   0.50005   0.92184   0.00000  Uiso   1.00
C520   C     0.66920   0.73961   0.09677   0.00000  Uiso   1.00
C521   C     0.63529   0.79462   0.10118   0.00000  Uiso   1.00
C522   C     0.63523   0.83774   0.17996   0.00000  Uiso   1.00
C523   C     0.60135   0.88464   0.16958   0.00000  Uiso   1.00
C524   C     0.71038   0.74496   0.04254   0.00000  Uiso   1.00
C525   C     0.77345   0.74633   0.07202   0.00000  Uiso   1.00
C526   C     0.80279   0.75142   0.01229   0.00000  Uiso   1.00
C527   C     0.62079   0.68379   0.03799   0.00000  Uiso   1.00
C528   C     0.60853   0.63371   0.06363   0.00000  Uiso   1.00
C529   C     0.56245   0.58729   0.00004   0.00000  Uiso   1.00
H530   H     0.58377   0.74903   0.87123   0.00000  Uiso   1.00
H531   H     0.54357   0.84784   0.93794   0.00000  Uiso   1.00
H532   H     0.68177   0.75643   0.83003   0.00000  Uiso   1.00
H533   H     0.51688   0.64383   0.82163   0.00000  Uiso   1.00
H534   H     0.51340   0.95580   0.04987   0.00000  Uiso   1.00
H535   H     0.80480   0.76305   0.82231   0.00000  Uiso   1.00
H536   H     0.45709   0.52560   0.80461   0.00000  Uiso   1.00
H537   H     0.69459   0.73681   0.16381   0.00000  Uiso   1.00
H538   H     0.66047   0.83494   0.24657   0.00000  Uiso   1.00
H539   H     0.79867   0.74354   0.13865   0.00000  Uiso   1.00
H540   H     0.63378   0.63094   0.13026   0.00000  Uiso   1.00
H541   H     0.60829   0.94534   0.30037   0.00000  Uiso   1.00
H542   H     0.89968   0.75258   0.07280   0.00000  Uiso   1.00
H543   H     0.55198   0.51514   0.05510   0.00000  Uiso   1.00
O544   O     0.53642   0.01536   0.22429   0.00000  Uiso   1.00
O545   O     0.91871   0.76246   0.92572   0.00000  Uiso   1.00
O546   O     0.46253   0.45094   0.90250   0.00000  Uiso   1.00
N547   N     0.54041   0.93987   0.09747   0.00000  Uiso   1.00
N548   N     0.81284   0.75966   0.88471   0.00000  Uiso   1.00
N549   N     0.48778   0.53766   0.86815   0.00000  Uiso   1.00
N550   N     0.59146   0.93424   0.23226   0.00000  Uiso   1.00
N551   N     0.86390   0.75403   0.01950   0.00000  Uiso   1.00
N552   N     0.53884   0.53204   0.00294   0.00000  Uiso   1.00
