data_job_03038
_audit_creation_date              2018-12-19
_audit_creation_method            'Materials Studio'
_symmetry_space_group_name_H-M    'P1'
_symmetry_Int_Tables_number       1
_symmetry_cell_setting            triclinic
loop_
_symmetry_equiv_pos_as_xyz
  x,y,z
_cell_length_a                    13.8212
_cell_length_b                    20.9070
_cell_length_c                    15.9364
_cell_angle_alpha                 90.0000
_cell_angle_beta                  71.8548
_cell_angle_gamma                 90.0000
loop_
_atom_site_label
_atom_site_type_symbol
_atom_site_fract_x
_atom_site_fract_y
_atom_site_fract_z
_atom_site_U_iso_or_equiv
_atom_site_adp_type
_atom_site_occupancy
C1     C     0.26226   0.22635   0.79434   0.00000  Uiso   1.00
C2     C     0.17946   0.26000   0.86721   0.00000  Uiso   1.00
C3     C     0.09259   0.28830   0.85784   0.00000  Uiso   1.00
C4     C     0.02612   0.31664   0.93242   0.00000  Uiso   1.00
C5     C     0.89456   0.36892   0.03323   0.00000  Uiso   1.00
C6     C     0.36173   0.25998   0.78961   0.00000  Uiso   1.00
C7     C     0.42811   0.28826   0.71498   0.00000  Uiso   1.00
C8     C     0.51509   0.31657   0.72424   0.00000  Uiso   1.00
C9     C     0.66655   0.36878   0.70455   0.00000  Uiso   1.00
C10    C     0.27058   0.15907   0.82841   0.00000  Uiso   1.00
C11    C     0.26035   0.10250   0.78639   0.00000  Uiso   1.00
C12    C     0.27060   0.04586   0.82831   0.00000  Uiso   1.00
C13    C     0.28053   0.94139   0.86887   0.00000  Uiso   1.00
C14    C     0.29870   0.22634   0.94348   0.00000  Uiso   1.00
C15    C     0.19926   0.26000   0.94821   0.00000  Uiso   1.00
C16    C     0.13290   0.28830   0.02283   0.00000  Uiso   1.00
C17    C     0.04594   0.31663   0.01357   0.00000  Uiso   1.00
C18    C     0.38153   0.25998   0.87061   0.00000  Uiso   1.00
C19    C     0.46843   0.28825   0.87998   0.00000  Uiso   1.00
C20    C     0.53492   0.31657   0.80538   0.00000  Uiso   1.00
C21    C     0.29037   0.15907   0.90941   0.00000  Uiso   1.00
C22    C     0.30066   0.10250   0.95140   0.00000  Uiso   1.00
C23    C     0.29043   0.04585   0.90946   0.00000  Uiso   1.00
H24    H     0.24686   0.22635   0.73128   0.00000  Uiso   1.00
H25    H     0.07730   0.28830   0.79513   0.00000  Uiso   1.00
H26    H     0.41278   0.28825   0.65230   0.00000  Uiso   1.00
H27    H     0.24503   0.10252   0.72371   0.00000  Uiso   1.00
H28    H     0.89806   0.35700   0.90165   0.00000  Uiso   1.00
H29    H     0.60545   0.35687   0.60046   0.00000  Uiso   1.00
H30    H     0.25173   0.96523   0.75104   0.00000  Uiso   1.00
H31    H     0.31412   0.22634   0.00654   0.00000  Uiso   1.00
H32    H     0.14824   0.28829   0.08551   0.00000  Uiso   1.00
H33    H     0.48372   0.28824   0.94267   0.00000  Uiso   1.00
H34    H     0.31597   0.10251   0.01408   0.00000  Uiso   1.00
H35    H     0.95564   0.35699   0.13732   0.00000  Uiso   1.00
H36    H     0.66304   0.35686   0.83614   0.00000  Uiso   1.00
H37    H     0.30931   0.96523   0.98672   0.00000  Uiso   1.00
O38    O     0.81654   0.39776   0.06646   0.00000  Uiso   1.00
O39    O     0.74461   0.39758   0.67131   0.00000  Uiso   1.00
O40    O     0.28053   0.88377   0.86887   0.00000  Uiso   1.00
N41    N     0.93436   0.34848   0.94628   0.00000  Uiso   1.00
N42    N     0.59573   0.34837   0.66469   0.00000  Uiso   1.00
N43    N     0.26505   0.98223   0.80546   0.00000  Uiso   1.00
N44    N     0.96535   0.34848   0.07310   0.00000  Uiso   1.00
N45    N     0.62671   0.34837   0.79151   0.00000  Uiso   1.00
N46    N     0.29603   0.98222   0.93228   0.00000  Uiso   1.00
C47    C     0.76226   0.72635   0.79434   0.00000  Uiso   1.00
C48    C     0.67946   0.76000   0.86721   0.00000  Uiso   1.00
C49    C     0.59259   0.78830   0.85784   0.00000  Uiso   1.00
C50    C     0.52612   0.81664   0.93242   0.00000  Uiso   1.00
C51    C     0.39456   0.86892   0.03323   0.00000  Uiso   1.00
C52    C     0.86173   0.75998   0.78961   0.00000  Uiso   1.00
C53    C     0.92811   0.78826   0.71498   0.00000  Uiso   1.00
C54    C     0.01509   0.81657   0.72424   0.00000  Uiso   1.00
C55    C     0.16655   0.86878   0.70455   0.00000  Uiso   1.00
C56    C     0.77058   0.65907   0.82841   0.00000  Uiso   1.00
C57    C     0.76035   0.60250   0.78639   0.00000  Uiso   1.00
C58    C     0.77060   0.54586   0.82831   0.00000  Uiso   1.00
C59    C     0.78053   0.44139   0.86887   0.00000  Uiso   1.00
C60    C     0.79870   0.72634   0.94348   0.00000  Uiso   1.00
C61    C     0.69926   0.76000   0.94821   0.00000  Uiso   1.00
C62    C     0.63290   0.78830   0.02283   0.00000  Uiso   1.00
C63    C     0.54594   0.81663   0.01357   0.00000  Uiso   1.00
C64    C     0.88153   0.75998   0.87061   0.00000  Uiso   1.00
C65    C     0.96843   0.78825   0.87998   0.00000  Uiso   1.00
C66    C     0.03492   0.81657   0.80538   0.00000  Uiso   1.00
C67    C     0.79037   0.65907   0.90941   0.00000  Uiso   1.00
C68    C     0.80066   0.60250   0.95140   0.00000  Uiso   1.00
C69    C     0.79043   0.54585   0.90946   0.00000  Uiso   1.00
H70    H     0.74686   0.72635   0.73128   0.00000  Uiso   1.00
H71    H     0.57730   0.78830   0.79513   0.00000  Uiso   1.00
H72    H     0.91278   0.78825   0.65230   0.00000  Uiso   1.00
H73    H     0.74503   0.60252   0.72371   0.00000  Uiso   1.00
H74    H     0.39806   0.85700   0.90165   0.00000  Uiso   1.00
H75    H     0.10545   0.85687   0.60046   0.00000  Uiso   1.00
H76    H     0.75173   0.46523   0.75104   0.00000  Uiso   1.00
H77    H     0.81412   0.72634   0.00654   0.00000  Uiso   1.00
H78    H     0.64824   0.78829   0.08551   0.00000  Uiso   1.00
H79    H     0.98372   0.78824   0.94267   0.00000  Uiso   1.00
H80    H     0.81597   0.60251   0.01408   0.00000  Uiso   1.00
H81    H     0.45564   0.85699   0.13732   0.00000  Uiso   1.00
H82    H     0.16304   0.85686   0.83614   0.00000  Uiso   1.00
H83    H     0.80931   0.46523   0.98672   0.00000  Uiso   1.00
O84    O     0.31654   0.89776   0.06646   0.00000  Uiso   1.00
O85    O     0.24461   0.89758   0.67131   0.00000  Uiso   1.00
O86    O     0.78053   0.38377   0.86887   0.00000  Uiso   1.00
N87    N     0.43436   0.84848   0.94628   0.00000  Uiso   1.00
N88    N     0.09573   0.84837   0.66469   0.00000  Uiso   1.00
N89    N     0.76505   0.48223   0.80546   0.00000  Uiso   1.00
N90    N     0.46535   0.84848   0.07310   0.00000  Uiso   1.00
N91    N     0.12671   0.84837   0.79151   0.00000  Uiso   1.00
N92    N     0.79603   0.48222   0.93228   0.00000  Uiso   1.00
C93    C     0.26226   0.77365   0.29434   0.00000  Uiso   1.00
C94    C     0.17946   0.74000   0.36721   0.00000  Uiso   1.00
C95    C     0.09259   0.71170   0.35784   0.00000  Uiso   1.00
C96    C     0.02612   0.68336   0.43242   0.00000  Uiso   1.00
C97    C     0.89456   0.63108   0.53323   0.00000  Uiso   1.00
C98    C     0.36173   0.74002   0.28961   0.00000  Uiso   1.00
C99    C     0.42811   0.71174   0.21498   0.00000  Uiso   1.00
C100   C     0.51509   0.68343   0.22424   0.00000  Uiso   1.00
C101   C     0.66655   0.63122   0.20455   0.00000  Uiso   1.00
C102   C     0.27058   0.84093   0.32841   0.00000  Uiso   1.00
C103   C     0.26035   0.89750   0.28639   0.00000  Uiso   1.00
C104   C     0.27060   0.95414   0.32831   0.00000  Uiso   1.00
C105   C     0.28053   0.05861   0.36887   0.00000  Uiso   1.00
C106   C     0.29870   0.77366   0.44348   0.00000  Uiso   1.00
C107   C     0.19926   0.74000   0.44821   0.00000  Uiso   1.00
C108   C     0.13290   0.71170   0.52283   0.00000  Uiso   1.00
C109   C     0.04594   0.68337   0.51357   0.00000  Uiso   1.00
C110   C     0.38153   0.74002   0.37061   0.00000  Uiso   1.00
C111   C     0.46843   0.71175   0.37998   0.00000  Uiso   1.00
C112   C     0.53492   0.68343   0.30538   0.00000  Uiso   1.00
C113   C     0.29037   0.84093   0.40941   0.00000  Uiso   1.00
C114   C     0.30066   0.89750   0.45140   0.00000  Uiso   1.00
C115   C     0.29043   0.95415   0.40946   0.00000  Uiso   1.00
H116   H     0.24686   0.77365   0.23128   0.00000  Uiso   1.00
H117   H     0.07730   0.71170   0.29513   0.00000  Uiso   1.00
H118   H     0.41278   0.71175   0.15230   0.00000  Uiso   1.00
H119   H     0.24503   0.89748   0.22371   0.00000  Uiso   1.00
H120   H     0.89806   0.64300   0.40165   0.00000  Uiso   1.00
H121   H     0.60545   0.64313   0.10046   0.00000  Uiso   1.00
H122   H     0.25173   0.03477   0.25104   0.00000  Uiso   1.00
H123   H     0.31412   0.77366   0.50654   0.00000  Uiso   1.00
H124   H     0.14824   0.71171   0.58551   0.00000  Uiso   1.00
H125   H     0.48372   0.71176   0.44267   0.00000  Uiso   1.00
H126   H     0.31597   0.89749   0.51408   0.00000  Uiso   1.00
H127   H     0.95564   0.64301   0.63732   0.00000  Uiso   1.00
H128   H     0.66304   0.64314   0.33614   0.00000  Uiso   1.00
H129   H     0.30931   0.03477   0.48672   0.00000  Uiso   1.00
O130   O     0.81654   0.60224   0.56646   0.00000  Uiso   1.00
O131   O     0.74461   0.60242   0.17131   0.00000  Uiso   1.00
O132   O     0.28053   0.11623   0.36887   0.00000  Uiso   1.00
N133   N     0.93436   0.65152   0.44628   0.00000  Uiso   1.00
N134   N     0.59573   0.65163   0.16469   0.00000  Uiso   1.00
N135   N     0.26505   0.01777   0.30546   0.00000  Uiso   1.00
N136   N     0.96535   0.65152   0.57310   0.00000  Uiso   1.00
N137   N     0.62671   0.65163   0.29151   0.00000  Uiso   1.00
N138   N     0.29603   0.01778   0.43228   0.00000  Uiso   1.00
C139   C     0.76226   0.27365   0.29434   0.00000  Uiso   1.00
C140   C     0.67946   0.24000   0.36721   0.00000  Uiso   1.00
C141   C     0.59259   0.21170   0.35784   0.00000  Uiso   1.00
C142   C     0.52612   0.18336   0.43242   0.00000  Uiso   1.00
C143   C     0.39456   0.13108   0.53323   0.00000  Uiso   1.00
C144   C     0.86173   0.24002   0.28961   0.00000  Uiso   1.00
C145   C     0.92811   0.21174   0.21498   0.00000  Uiso   1.00
C146   C     0.01509   0.18343   0.22424   0.00000  Uiso   1.00
C147   C     0.16655   0.13122   0.20455   0.00000  Uiso   1.00
C148   C     0.77058   0.34093   0.32841   0.00000  Uiso   1.00
C149   C     0.76035   0.39750   0.28639   0.00000  Uiso   1.00
C150   C     0.77060   0.45414   0.32831   0.00000  Uiso   1.00
C151   C     0.78053   0.55861   0.36887   0.00000  Uiso   1.00
C152   C     0.79870   0.27366   0.44348   0.00000  Uiso   1.00
C153   C     0.69926   0.24000   0.44821   0.00000  Uiso   1.00
C154   C     0.63290   0.21170   0.52283   0.00000  Uiso   1.00
C155   C     0.54594   0.18337   0.51357   0.00000  Uiso   1.00
C156   C     0.88153   0.24002   0.37061   0.00000  Uiso   1.00
C157   C     0.96843   0.21175   0.37998   0.00000  Uiso   1.00
C158   C     0.03492   0.18343   0.30538   0.00000  Uiso   1.00
C159   C     0.79037   0.34093   0.40941   0.00000  Uiso   1.00
C160   C     0.80066   0.39750   0.45140   0.00000  Uiso   1.00
C161   C     0.79043   0.45415   0.40946   0.00000  Uiso   1.00
H162   H     0.74686   0.27365   0.23128   0.00000  Uiso   1.00
H163   H     0.57730   0.21170   0.29513   0.00000  Uiso   1.00
H164   H     0.91278   0.21175   0.15230   0.00000  Uiso   1.00
H165   H     0.74503   0.39748   0.22371   0.00000  Uiso   1.00
H166   H     0.39806   0.14300   0.40165   0.00000  Uiso   1.00
H167   H     0.10545   0.14313   0.10046   0.00000  Uiso   1.00
H168   H     0.75173   0.53477   0.25104   0.00000  Uiso   1.00
H169   H     0.81412   0.27366   0.50654   0.00000  Uiso   1.00
H170   H     0.64824   0.21171   0.58551   0.00000  Uiso   1.00
H171   H     0.98372   0.21176   0.44267   0.00000  Uiso   1.00
H172   H     0.81597   0.39749   0.51408   0.00000  Uiso   1.00
H173   H     0.45564   0.14301   0.63732   0.00000  Uiso   1.00
H174   H     0.16304   0.14314   0.33614   0.00000  Uiso   1.00
H175   H     0.80931   0.53477   0.48672   0.00000  Uiso   1.00
O176   O     0.31654   0.10224   0.56646   0.00000  Uiso   1.00
O177   O     0.24461   0.10242   0.17131   0.00000  Uiso   1.00
O178   O     0.78053   0.61623   0.36887   0.00000  Uiso   1.00
N179   N     0.43436   0.15152   0.44628   0.00000  Uiso   1.00
N180   N     0.09573   0.15163   0.16469   0.00000  Uiso   1.00
N181   N     0.76505   0.51777   0.30546   0.00000  Uiso   1.00
N182   N     0.46535   0.15152   0.57310   0.00000  Uiso   1.00
N183   N     0.12671   0.15163   0.29151   0.00000  Uiso   1.00
N184   N     0.79603   0.51778   0.43228   0.00000  Uiso   1.00
