data_job_06119
_audit_creation_date              2018-12-19
_audit_creation_method            'Materials Studio'
_symmetry_space_group_name_H-M    'P1'
_symmetry_Int_Tables_number       1
_symmetry_cell_setting            triclinic
loop_
_symmetry_equiv_pos_as_xyz
  x,y,z
_cell_length_a                    12.6275
_cell_length_b                    18.3841
_cell_length_c                    19.2425
_cell_angle_alpha                 114.8820
_cell_angle_beta                  75.6752
_cell_angle_gamma                 82.0106
loop_
_atom_site_label
_atom_site_type_symbol
_atom_site_fract_x
_atom_site_fract_y
_atom_site_fract_z
_atom_site_U_iso_or_equiv
_atom_site_adp_type
_atom_site_occupancy
C1     C     0.72788   0.80676   0.58183   0.00000  Uiso   1.00
C2     C     0.62401   0.87179   0.59653   0.00000  Uiso   1.00
C3     C     0.51217   0.88143   0.63865   0.00000  Uiso   1.00
C4     C     0.42932   0.94461   0.64544   0.00000  Uiso   1.00
C5     C     0.26376   0.03770   0.67342   0.00000  Uiso   1.00
C6     C     0.78759   0.75830   0.48975   0.00000  Uiso   1.00
C7     C     0.81329   0.67254   0.44210   0.00000  Uiso   1.00
C8     C     0.86815   0.64019   0.35900   0.00000  Uiso   1.00
C9     C     0.95661   0.55709   0.22121   0.00000  Uiso   1.00
C10    C     0.80750   0.85531   0.61613   0.00000  Uiso   1.00
C11    C     0.84998   0.85109   0.67472   0.00000  Uiso   1.00
C12    C     0.92162   0.90040   0.69800   0.00000  Uiso   1.00
C13    C     0.04101   0.96792   0.75644   0.00000  Uiso   1.00
C14    C     0.77962   0.90180   0.51898   0.00000  Uiso   1.00
C15    C     0.65212   0.92341   0.56239   0.00000  Uiso   1.00
C16    C     0.56942   0.98659   0.56911   0.00000  Uiso   1.00
C17    C     0.45748   0.99633   0.61124   0.00000  Uiso   1.00
C18    C     0.81569   0.80993   0.45561   0.00000  Uiso   1.00
C19    C     0.87053   0.77769   0.37256   0.00000  Uiso   1.00
C20    C     0.89630   0.69190   0.32479   0.00000  Uiso   1.00
C21    C     0.83560   0.90694   0.58199   0.00000  Uiso   1.00
C22    C     0.90721   0.95626   0.60518   0.00000  Uiso   1.00
C23    C     0.94978   0.95212   0.66380   0.00000  Uiso   1.00
H24    H     0.70601   0.76656   0.60841   0.00000  Uiso   1.00
H25    H     0.49046   0.84146   0.66506   0.00000  Uiso   1.00
H26    H     0.79154   0.63260   0.46854   0.00000  Uiso   1.00
H27    H     0.82821   0.81114   0.70112   0.00000  Uiso   1.00
H28    H     0.26388   0.94725   0.71279   0.00000  Uiso   1.00
H29    H     0.89875   0.50685   0.29842   0.00000  Uiso   1.00
H30    H     0.97609   0.88333   0.78887   0.00000  Uiso   1.00
H31    H     0.80151   0.94200   0.49239   0.00000  Uiso   1.00
H32    H     0.59119   0.02653   0.54269   0.00000  Uiso   1.00
H33    H     0.89227   0.81766   0.34616   0.00000  Uiso   1.00
H34    H     0.92894   0.99620   0.57875   0.00000  Uiso   1.00
H35    H     0.34563   0.09745   0.61346   0.00000  Uiso   1.00
H36    H     0.98051   0.65705   0.19909   0.00000  Uiso   1.00
H37    H     0.05784   0.03353   0.68954   0.00000  Uiso   1.00
O38    O     0.16468   0.07478   0.69827   0.00000  Uiso   1.00
O39    O     0.99763   0.49699   0.15465   0.00000  Uiso   1.00
O40    O     0.09908   0.99092   0.79811   0.00000  Uiso   1.00
N41    N     0.31198   0.97101   0.68252   0.00000  Uiso   1.00
N42    N     0.90554   0.55927   0.29511   0.00000  Uiso   1.00
N43    N     0.97786   0.91122   0.75363   0.00000  Uiso   1.00
N44    N     0.35598   0.05184   0.62908   0.00000  Uiso   1.00
N45    N     0.94953   0.64009   0.24167   0.00000  Uiso   1.00
N46    N     0.02186   0.99204   0.70018   0.00000  Uiso   1.00
C47    C     0.30600   0.41557   0.22754   0.00000  Uiso   1.00
C48    C     0.21423   0.39439   0.27804   0.00000  Uiso   1.00
C49    C     0.14360   0.34671   0.24912   0.00000  Uiso   1.00
C50    C     0.06510   0.33450   0.30502   0.00000  Uiso   1.00
C51    C     0.92370   0.29644   0.37100   0.00000  Uiso   1.00
C52    C     0.27786   0.51053   0.26958   0.00000  Uiso   1.00
C53    C     0.26075   0.56049   0.23355   0.00000  Uiso   1.00
C54    C     0.23582   0.64605   0.28233   0.00000  Uiso   1.00
C55    C     0.19330   0.78829   0.33515   0.00000  Uiso   1.00
C56    C     0.41645   0.38502   0.23826   0.00000  Uiso   1.00
C57    C     0.51588   0.32948   0.17590   0.00000  Uiso   1.00
C58    C     0.60765   0.30938   0.19831   0.00000  Uiso   1.00
C59    C     0.78029   0.25676   0.20251   0.00000  Uiso   1.00
C60    C     0.29219   0.47866   0.37823   0.00000  Uiso   1.00
C61    C     0.20673   0.42867   0.35989   0.00000  Uiso   1.00
C62    C     0.12832   0.41652   0.41585   0.00000  Uiso   1.00
C63    C     0.05758   0.36883   0.38702   0.00000  Uiso   1.00
C64    C     0.27036   0.54480   0.35143   0.00000  Uiso   1.00
C65    C     0.24546   0.63030   0.40027   0.00000  Uiso   1.00
C66    C     0.22831   0.68038   0.36433   0.00000  Uiso   1.00
C67    C     0.40895   0.41929   0.32012   0.00000  Uiso   1.00
C68    C     0.50059   0.39928   0.34263   0.00000  Uiso   1.00
C69    C     0.60013   0.34371   0.28031   0.00000  Uiso   1.00
H70    H     0.31184   0.38889   0.16381   0.00000  Uiso   1.00
H71    H     0.14942   0.32021   0.18577   0.00000  Uiso   1.00
H72    H     0.26657   0.53395   0.17020   0.00000  Uiso   1.00
H73    H     0.52165   0.30297   0.11257   0.00000  Uiso   1.00
H74    H     0.96601   0.25920   0.24623   0.00000  Uiso   1.00
H75    H     0.21305   0.70989   0.21338   0.00000  Uiso   1.00
H76    H     0.75095   0.22282   0.09184   0.00000  Uiso   1.00
H77    H     0.28635   0.50534   0.44196   0.00000  Uiso   1.00
H78    H     0.12253   0.44305   0.47919   0.00000  Uiso   1.00
H79    H     0.23967   0.65680   0.46361   0.00000  Uiso   1.00
H80    H     0.49475   0.42581   0.40598   0.00000  Uiso   1.00
H81    H     0.94418   0.35890   0.48438   0.00000  Uiso   1.00
H82    H     0.19123   0.80960   0.45153   0.00000  Uiso   1.00
H83    H     0.72912   0.32253   0.32999   0.00000  Uiso   1.00
O84    O     0.84776   0.26599   0.38478   0.00000  Uiso   1.00
O85    O     0.17190   0.85728   0.34168   0.00000  Uiso   1.00
O86    O     0.87759   0.21826   0.18222   0.00000  Uiso   1.00
N87    N     0.98337   0.29120   0.29716   0.00000  Uiso   1.00
N88    N     0.21432   0.71257   0.26646   0.00000  Uiso   1.00
N89    N     0.71722   0.25722   0.15282   0.00000  Uiso   1.00
N90    N     0.97163   0.34485   0.42531   0.00000  Uiso   1.00
N91    N     0.20258   0.76622   0.39460   0.00000  Uiso   1.00
N92    N     0.70547   0.31087   0.28097   0.00000  Uiso   1.00
C93    C     0.53994   0.77523   0.19019   0.00000  Uiso   1.00
C94    C     0.49874   0.72089   0.12314   0.00000  Uiso   1.00
C95    C     0.40244   0.74658   0.10775   0.00000  Uiso   1.00
C96    C     0.37930   0.68745   0.04363   0.00000  Uiso   1.00
C97    C     0.30455   0.61551   0.94668   0.00000  Uiso   1.00
C98    C     0.54877   0.73051   0.24055   0.00000  Uiso   1.00
C99    C     0.49454   0.76429   0.32387   0.00000  Uiso   1.00
C100   C     0.51354   0.71326   0.35858   0.00000  Uiso   1.00
C101   C     0.51652   0.65628   0.44392   0.00000  Uiso   1.00
C102   C     0.66151   0.77102   0.14761   0.00000  Uiso   1.00
C103   C     0.70208   0.83887   0.15281   0.00000  Uiso   1.00
C104   C     0.81600   0.82194   0.10928   0.00000  Uiso   1.00
C105   C     0.99402   0.82786   0.05033   0.00000  Uiso   1.00
C106   C     0.67012   0.62454   0.10367   0.00000  Uiso   1.00
C107   C     0.56945   0.63904   0.07615   0.00000  Uiso   1.00
C108   C     0.54646   0.57985   0.01202   0.00000  Uiso   1.00
C109   C     0.45014   0.60545   0.99654   0.00000  Uiso   1.00
C110   C     0.61948   0.64866   0.19355   0.00000  Uiso   1.00
C111   C     0.63857   0.59757   0.22814   0.00000  Uiso   1.00
C112   C     0.58438   0.63126   0.31150   0.00000  Uiso   1.00
C113   C     0.73222   0.68917   0.10061   0.00000  Uiso   1.00
C114   C     0.84611   0.67214   0.05707   0.00000  Uiso   1.00
C115   C     0.88684   0.73994   0.06220   0.00000  Uiso   1.00
H116   H     0.48489   0.83896   0.22679   0.00000  Uiso   1.00
H117   H     0.34773   0.80993   0.14414   0.00000  Uiso   1.00
H118   H     0.43984   0.82764   0.36023   0.00000  Uiso   1.00
H119   H     0.64734   0.90220   0.18919   0.00000  Uiso   1.00
H120   H     0.22682   0.74164   0.03181   0.00000  Uiso   1.00
H121   H     0.42106   0.77900   0.48744   0.00000  Uiso   1.00
H122   H     0.85862   0.93622   0.12677   0.00000  Uiso   1.00
H123   H     0.72518   0.56081   0.06708   0.00000  Uiso   1.00
H124   H     0.60120   0.51652   0.97566   0.00000  Uiso   1.00
H125   H     0.69330   0.53423   0.19175   0.00000  Uiso   1.00
H126   H     0.90080   0.60879   0.02071   0.00000  Uiso   1.00
H127   H     0.43254   0.50349   0.89507   0.00000  Uiso   1.00
H128   H     0.62678   0.54086   0.35070   0.00000  Uiso   1.00
H129   H     0.06434   0.69807   0.99003   0.00000  Uiso   1.00
O130   O     0.24377   0.59844   0.90620   0.00000  Uiso   1.00
O131   O     0.49862   0.64746   0.50398   0.00000  Uiso   1.00
O132   O     0.07268   0.85373   0.03078   0.00000  Uiso   1.00
N133   N     0.29226   0.69167   0.01216   0.00000  Uiso   1.00
N134   N     0.47385   0.72660   0.43815   0.00000  Uiso   1.00
N135   N     0.88294   0.87359   0.10097   0.00000  Uiso   1.00
N136   N     0.40296   0.56353   0.93858   0.00000  Uiso   1.00
N137   N     0.58455   0.59846   0.36457   0.00000  Uiso   1.00
N138   N     0.99364   0.74545   0.02739   0.00000  Uiso   1.00
C139   C     0.27212   0.19324   0.41817   0.00000  Uiso   1.00
C140   C     0.37599   0.12821   0.40347   0.00000  Uiso   1.00
C141   C     0.48783   0.11857   0.36135   0.00000  Uiso   1.00
C142   C     0.57068   0.05539   0.35456   0.00000  Uiso   1.00
C143   C     0.73624   0.96230   0.32658   0.00000  Uiso   1.00
C144   C     0.21241   0.24169   0.51025   0.00000  Uiso   1.00
C145   C     0.18671   0.32746   0.55790   0.00000  Uiso   1.00
C146   C     0.13185   0.35981   0.64100   0.00000  Uiso   1.00
C147   C     0.04339   0.44291   0.77879   0.00000  Uiso   1.00
C148   C     0.19250   0.14469   0.38387   0.00000  Uiso   1.00
C149   C     0.15002   0.14891   0.32528   0.00000  Uiso   1.00
C150   C     0.07838   0.09960   0.30200   0.00000  Uiso   1.00
C151   C     0.95899   0.03208   0.24356   0.00000  Uiso   1.00
C152   C     0.22038   0.09820   0.48102   0.00000  Uiso   1.00
C153   C     0.34788   0.07659   0.43761   0.00000  Uiso   1.00
C154   C     0.43058   0.01341   0.43089   0.00000  Uiso   1.00
C155   C     0.54252   0.00367   0.38876   0.00000  Uiso   1.00
C156   C     0.18431   0.19007   0.54439   0.00000  Uiso   1.00
C157   C     0.12947   0.22231   0.62744   0.00000  Uiso   1.00
C158   C     0.10370   0.30810   0.67521   0.00000  Uiso   1.00
C159   C     0.16440   0.09306   0.41801   0.00000  Uiso   1.00
C160   C     0.09279   0.04374   0.39482   0.00000  Uiso   1.00
C161   C     0.05022   0.04788   0.33620   0.00000  Uiso   1.00
H162   H     0.29399   0.23344   0.39159   0.00000  Uiso   1.00
H163   H     0.50954   0.15854   0.33494   0.00000  Uiso   1.00
H164   H     0.20846   0.36740   0.53146   0.00000  Uiso   1.00
H165   H     0.17179   0.18886   0.29888   0.00000  Uiso   1.00
H166   H     0.73612   0.05275   0.28721   0.00000  Uiso   1.00
H167   H     0.10125   0.49315   0.70158   0.00000  Uiso   1.00
H168   H     0.02391   0.11667   0.21113   0.00000  Uiso   1.00
H169   H     0.19849   0.05800   0.50761   0.00000  Uiso   1.00
H170   H     0.40881   0.97347   0.45731   0.00000  Uiso   1.00
H171   H     0.10773   0.18234   0.65384   0.00000  Uiso   1.00
H172   H     0.07106   0.00380   0.42125   0.00000  Uiso   1.00
H173   H     0.65436   0.90255   0.38654   0.00000  Uiso   1.00
H174   H     0.01949   0.34295   0.80091   0.00000  Uiso   1.00
H175   H     0.94216   0.96647   0.31046   0.00000  Uiso   1.00
O176   O     0.83532   0.92522   0.30173   0.00000  Uiso   1.00
O177   O     0.00237   0.50301   0.84535   0.00000  Uiso   1.00
O178   O     0.90092   0.00908   0.20189   0.00000  Uiso   1.00
N179   N     0.68802   0.02899   0.31748   0.00000  Uiso   1.00
N180   N     0.09447   0.44073   0.70489   0.00000  Uiso   1.00
N181   N     0.02214   0.08878   0.24637   0.00000  Uiso   1.00
N182   N     0.64402   0.94816   0.37092   0.00000  Uiso   1.00
N183   N     0.05047   0.35991   0.75833   0.00000  Uiso   1.00
N184   N     0.97814   0.00796   0.29982   0.00000  Uiso   1.00
C185   C     0.69400   0.58443   0.77246   0.00000  Uiso   1.00
C186   C     0.78577   0.60561   0.72196   0.00000  Uiso   1.00
C187   C     0.85640   0.65329   0.75088   0.00000  Uiso   1.00
C188   C     0.93490   0.66550   0.69498   0.00000  Uiso   1.00
C189   C     0.07630   0.70356   0.62900   0.00000  Uiso   1.00
C190   C     0.72214   0.48947   0.73042   0.00000  Uiso   1.00
C191   C     0.73925   0.43951   0.76645   0.00000  Uiso   1.00
C192   C     0.76418   0.35395   0.71767   0.00000  Uiso   1.00
C193   C     0.80670   0.21171   0.66485   0.00000  Uiso   1.00
C194   C     0.58355   0.61498   0.76174   0.00000  Uiso   1.00
C195   C     0.48412   0.67052   0.82410   0.00000  Uiso   1.00
C196   C     0.39235   0.69062   0.80169   0.00000  Uiso   1.00
C197   C     0.21971   0.74324   0.79749   0.00000  Uiso   1.00
C198   C     0.70781   0.52134   0.62177   0.00000  Uiso   1.00
C199   C     0.79327   0.57133   0.64011   0.00000  Uiso   1.00
C200   C     0.87168   0.58348   0.58415   0.00000  Uiso   1.00
C201   C     0.94242   0.63117   0.61298   0.00000  Uiso   1.00
C202   C     0.72964   0.45520   0.64857   0.00000  Uiso   1.00
C203   C     0.75454   0.36970   0.59972   0.00000  Uiso   1.00
C204   C     0.77169   0.31962   0.63567   0.00000  Uiso   1.00
C205   C     0.59105   0.58071   0.67988   0.00000  Uiso   1.00
C206   C     0.49941   0.60072   0.65737   0.00000  Uiso   1.00
C207   C     0.39987   0.65629   0.71969   0.00000  Uiso   1.00
H208   H     0.68816   0.61111   0.83619   0.00000  Uiso   1.00
H209   H     0.85058   0.67979   0.81422   0.00000  Uiso   1.00
H210   H     0.73343   0.46605   0.82980   0.00000  Uiso   1.00
H211   H     0.47835   0.69703   0.88743   0.00000  Uiso   1.00
H212   H     0.03399   0.74080   0.75377   0.00000  Uiso   1.00
H213   H     0.78695   0.29011   0.78662   0.00000  Uiso   1.00
H214   H     0.24905   0.77718   0.90816   0.00000  Uiso   1.00
H215   H     0.71365   0.49465   0.55804   0.00000  Uiso   1.00
H216   H     0.87747   0.55695   0.52081   0.00000  Uiso   1.00
H217   H     0.76033   0.34320   0.53639   0.00000  Uiso   1.00
H218   H     0.50525   0.57419   0.59402   0.00000  Uiso   1.00
H219   H     0.05582   0.64110   0.51562   0.00000  Uiso   1.00
H220   H     0.80877   0.19040   0.54847   0.00000  Uiso   1.00
H221   H     0.27088   0.67747   0.67001   0.00000  Uiso   1.00
O222   O     0.15224   0.73401   0.61522   0.00000  Uiso   1.00
O223   O     0.82810   0.14271   0.65832   0.00000  Uiso   1.00
O224   O     0.12241   0.78174   0.81778   0.00000  Uiso   1.00
N225   N     0.01663   0.70880   0.70284   0.00000  Uiso   1.00
N226   N     0.78568   0.28742   0.73354   0.00000  Uiso   1.00
N227   N     0.28278   0.74278   0.84718   0.00000  Uiso   1.00
N228   N     0.02837   0.65515   0.57469   0.00000  Uiso   1.00
N229   N     0.79742   0.23378   0.60540   0.00000  Uiso   1.00
N230   N     0.29453   0.68913   0.71903   0.00000  Uiso   1.00
C231   C     0.46006   0.22477   0.80981   0.00000  Uiso   1.00
C232   C     0.50126   0.27911   0.87686   0.00000  Uiso   1.00
C233   C     0.59756   0.25342   0.89225   0.00000  Uiso   1.00
C234   C     0.62070   0.31255   0.95637   0.00000  Uiso   1.00
C235   C     0.69545   0.38449   0.05332   0.00000  Uiso   1.00
C236   C     0.45123   0.26949   0.75945   0.00000  Uiso   1.00
C237   C     0.50546   0.23570   0.67613   0.00000  Uiso   1.00
C238   C     0.48646   0.28674   0.64142   0.00000  Uiso   1.00
C239   C     0.48348   0.34372   0.55608   0.00000  Uiso   1.00
C240   C     0.33849   0.22898   0.85239   0.00000  Uiso   1.00
C241   C     0.29792   0.16113   0.84719   0.00000  Uiso   1.00
C242   C     0.18400   0.17806   0.89072   0.00000  Uiso   1.00
C243   C     0.00598   0.17214   0.94967   0.00000  Uiso   1.00
C244   C     0.32988   0.37546   0.89633   0.00000  Uiso   1.00
C245   C     0.43054   0.36096   0.92385   0.00000  Uiso   1.00
C246   C     0.45353   0.42015   0.98798   0.00000  Uiso   1.00
C247   C     0.54986   0.39455   0.00346   0.00000  Uiso   1.00
C248   C     0.38052   0.35134   0.80645   0.00000  Uiso   1.00
C249   C     0.36143   0.40243   0.77186   0.00000  Uiso   1.00
C250   C     0.41562   0.36874   0.68850   0.00000  Uiso   1.00
C251   C     0.26778   0.31083   0.89939   0.00000  Uiso   1.00
C252   C     0.15389   0.32786   0.94293   0.00000  Uiso   1.00
C253   C     0.11316   0.26006   0.93780   0.00000  Uiso   1.00
H254   H     0.51511   0.16104   0.77321   0.00000  Uiso   1.00
H255   H     0.65227   0.19007   0.85586   0.00000  Uiso   1.00
H256   H     0.56016   0.17236   0.63977   0.00000  Uiso   1.00
H257   H     0.35266   0.09780   0.81081   0.00000  Uiso   1.00
H258   H     0.77318   0.25836   0.96819   0.00000  Uiso   1.00
H259   H     0.57894   0.22100   0.51256   0.00000  Uiso   1.00
H260   H     0.14138   0.06378   0.87323   0.00000  Uiso   1.00
H261   H     0.27482   0.43919   0.93292   0.00000  Uiso   1.00
H262   H     0.39880   0.48348   0.02434   0.00000  Uiso   1.00
H263   H     0.30670   0.46577   0.80825   0.00000  Uiso   1.00
H264   H     0.09920   0.39121   0.97929   0.00000  Uiso   1.00
H265   H     0.56746   0.49651   0.10493   0.00000  Uiso   1.00
H266   H     0.37322   0.45914   0.64930   0.00000  Uiso   1.00
H267   H     0.93566   0.30193   0.00997   0.00000  Uiso   1.00
O268   O     0.75623   0.40156   0.09380   0.00000  Uiso   1.00
O269   O     0.50138   0.35254   0.49602   0.00000  Uiso   1.00
O270   O     0.92732   0.14627   0.96922   0.00000  Uiso   1.00
N271   N     0.70774   0.30833   0.98784   0.00000  Uiso   1.00
N272   N     0.52615   0.27340   0.56185   0.00000  Uiso   1.00
N273   N     0.11706   0.12641   0.89903   0.00000  Uiso   1.00
N274   N     0.59704   0.43647   0.06142   0.00000  Uiso   1.00
N275   N     0.41545   0.40154   0.63543   0.00000  Uiso   1.00
N276   N     0.00636   0.25455   0.97261   0.00000  Uiso   1.00
