data_job_02293
_audit_creation_date              2018-12-19
_audit_creation_method            'Materials Studio'
_symmetry_space_group_name_H-M    'P1'
_symmetry_Int_Tables_number       1
_symmetry_cell_setting            triclinic
loop_
_symmetry_equiv_pos_as_xyz
  x,y,z
_cell_length_a                    23.4515
_cell_length_b                    7.1347
_cell_length_c                    23.0767
_cell_angle_alpha                 90.0000
_cell_angle_beta                  116.7120
_cell_angle_gamma                 90.0000
loop_
_atom_site_label
_atom_site_type_symbol
_atom_site_fract_x
_atom_site_fract_y
_atom_site_fract_z
_atom_site_U_iso_or_equiv
_atom_site_adp_type
_atom_site_occupancy
C1     C     0.69855   0.28916   0.91795   0.00000  Uiso   1.00
C2     C     0.74876   0.14245   0.92565   0.00000  Uiso   1.00
C3     C     0.81368   0.17534   0.94902   0.00000  Uiso   1.00
C4     C     0.85169   0.02254   0.95232   0.00000  Uiso   1.00
C5     C     0.93361   0.82201   0.96720   0.00000  Uiso   1.00
C6     C     0.64909   0.28186   0.84692   0.00000  Uiso   1.00
C7     C     0.63021   0.43196   0.80410   0.00000  Uiso   1.00
C8     C     0.58432   0.39651   0.74113   0.00000  Uiso   1.00
C9     C     0.51147   0.41244   0.63380   0.00000  Uiso   1.00
C10    C     0.66494   0.21716   0.95682   0.00000  Uiso   1.00
C11    C     0.65937   0.31287   0.00638   0.00000  Uiso   1.00
C12    C     0.62681   0.22297   0.03593   0.00000  Uiso   1.00
C13    C     0.57856   0.13844   0.09922   0.00000  Uiso   1.00
C14    C     0.65060   0.95934   0.88227   0.00000  Uiso   1.00
C15    C     0.72271   0.96331   0.90627   0.00000  Uiso   1.00
C16    C     0.76063   0.81042   0.90955   0.00000  Uiso   1.00
C17    C     0.82560   0.84307   0.93291   0.00000  Uiso   1.00
C18    C     0.62305   0.10272   0.82754   0.00000  Uiso   1.00
C19    C     0.57716   0.06704   0.76463   0.00000  Uiso   1.00
C20    C     0.55823   0.21704   0.72172   0.00000  Uiso   1.00
C21    C     0.63890   0.03800   0.93744   0.00000  Uiso   1.00
C22    C     0.60633   0.94795   0.96691   0.00000  Uiso   1.00
C23    C     0.60071   0.04350   0.01652   0.00000  Uiso   1.00
H24    H     0.71882   0.42864   0.93303   0.00000  Uiso   1.00
H25    H     0.83382   0.31400   0.96400   0.00000  Uiso   1.00
H26    H     0.65037   0.57058   0.81911   0.00000  Uiso   1.00
H27    H     0.67953   0.45150   0.02136   0.00000  Uiso   1.00
H28    H     0.94982   0.10791   0.98977   0.00000  Uiso   1.00
H29    H     0.56300   0.64893   0.68427   0.00000  Uiso   1.00
H30    H     0.62449   0.39785   0.11076   0.00000  Uiso   1.00
H31    H     0.63032   0.81986   0.86718   0.00000  Uiso   1.00
H32    H     0.74046   0.67180   0.89455   0.00000  Uiso   1.00
H33    H     0.55702   0.92839   0.74965   0.00000  Uiso   1.00
H34    H     0.58618   0.80931   0.95191   0.00000  Uiso   1.00
H35    H     0.87405   0.58668   0.93340   0.00000  Uiso   1.00
H36    H     0.48723   0.12771   0.62789   0.00000  Uiso   1.00
H37    H     0.54872   0.87662   0.05438   0.00000  Uiso   1.00
O38    O     0.98598   0.76090   0.98075   0.00000  Uiso   1.00
O39    O     0.47849   0.47071   0.57994   0.00000  Uiso   1.00
O40    O     0.55916   0.14129   0.13949   0.00000  Uiso   1.00
N41    N     0.91687   0.00555   0.97276   0.00000  Uiso   1.00
N42    N     0.55523   0.51137   0.68713   0.00000  Uiso   1.00
N43    N     0.61270   0.27665   0.08585   0.00000  Uiso   1.00
N44    N     0.87610   0.72508   0.94243   0.00000  Uiso   1.00
N45    N     0.51446   0.23090   0.65679   0.00000  Uiso   1.00
N46    N     0.57193   0.99618   0.05552   0.00000  Uiso   1.00
C47    C     0.30145   0.28916   0.58205   0.00000  Uiso   1.00
C48    C     0.25124   0.14245   0.57435   0.00000  Uiso   1.00
C49    C     0.18632   0.17534   0.55098   0.00000  Uiso   1.00
C50    C     0.14831   0.02254   0.54768   0.00000  Uiso   1.00
C51    C     0.06639   0.82201   0.53280   0.00000  Uiso   1.00
C52    C     0.35091   0.28186   0.65308   0.00000  Uiso   1.00
C53    C     0.36979   0.43196   0.69590   0.00000  Uiso   1.00
C54    C     0.41568   0.39651   0.75887   0.00000  Uiso   1.00
C55    C     0.48853   0.41244   0.86620   0.00000  Uiso   1.00
C56    C     0.33506   0.21716   0.54318   0.00000  Uiso   1.00
C57    C     0.34063   0.31287   0.49362   0.00000  Uiso   1.00
C58    C     0.37319   0.22297   0.46407   0.00000  Uiso   1.00
C59    C     0.42144   0.13844   0.40078   0.00000  Uiso   1.00
C60    C     0.34940   0.95934   0.61773   0.00000  Uiso   1.00
C61    C     0.27729   0.96331   0.59373   0.00000  Uiso   1.00
C62    C     0.23937   0.81042   0.59045   0.00000  Uiso   1.00
C63    C     0.17440   0.84307   0.56709   0.00000  Uiso   1.00
C64    C     0.37695   0.10272   0.67246   0.00000  Uiso   1.00
C65    C     0.42284   0.06704   0.73537   0.00000  Uiso   1.00
C66    C     0.44177   0.21704   0.77828   0.00000  Uiso   1.00
C67    C     0.36110   0.03800   0.56256   0.00000  Uiso   1.00
C68    C     0.39367   0.94795   0.53309   0.00000  Uiso   1.00
C69    C     0.39929   0.04350   0.48348   0.00000  Uiso   1.00
H70    H     0.28118   0.42864   0.56697   0.00000  Uiso   1.00
H71    H     0.16618   0.31400   0.53600   0.00000  Uiso   1.00
H72    H     0.34963   0.57058   0.68089   0.00000  Uiso   1.00
H73    H     0.32047   0.45150   0.47864   0.00000  Uiso   1.00
H74    H     0.05018   0.10791   0.51023   0.00000  Uiso   1.00
H75    H     0.43700   0.64893   0.81573   0.00000  Uiso   1.00
H76    H     0.37551   0.39785   0.38924   0.00000  Uiso   1.00
H77    H     0.36968   0.81986   0.63282   0.00000  Uiso   1.00
H78    H     0.25954   0.67180   0.60545   0.00000  Uiso   1.00
H79    H     0.44298   0.92839   0.75035   0.00000  Uiso   1.00
H80    H     0.41382   0.80931   0.54809   0.00000  Uiso   1.00
H81    H     0.12595   0.58668   0.56660   0.00000  Uiso   1.00
H82    H     0.51277   0.12771   0.87211   0.00000  Uiso   1.00
H83    H     0.45128   0.87662   0.44562   0.00000  Uiso   1.00
O84    O     0.01402   0.76090   0.51925   0.00000  Uiso   1.00
O85    O     0.52151   0.47071   0.92006   0.00000  Uiso   1.00
O86    O     0.44084   0.14129   0.36051   0.00000  Uiso   1.00
N87    N     0.08313   0.00555   0.52724   0.00000  Uiso   1.00
N88    N     0.44477   0.51137   0.81287   0.00000  Uiso   1.00
N89    N     0.38730   0.27665   0.41415   0.00000  Uiso   1.00
N90    N     0.12390   0.72508   0.55757   0.00000  Uiso   1.00
N91    N     0.48554   0.23090   0.84321   0.00000  Uiso   1.00
N92    N     0.42807   0.99618   0.44448   0.00000  Uiso   1.00
C93    C     0.30145   0.71084   0.08205   0.00000  Uiso   1.00
C94    C     0.25124   0.85755   0.07435   0.00000  Uiso   1.00
C95    C     0.18632   0.82466   0.05098   0.00000  Uiso   1.00
C96    C     0.14831   0.97746   0.04768   0.00000  Uiso   1.00
C97    C     0.06639   0.17799   0.03280   0.00000  Uiso   1.00
C98    C     0.35091   0.71814   0.15308   0.00000  Uiso   1.00
C99    C     0.36979   0.56804   0.19590   0.00000  Uiso   1.00
C100   C     0.41568   0.60349   0.25887   0.00000  Uiso   1.00
C101   C     0.48853   0.58756   0.36620   0.00000  Uiso   1.00
C102   C     0.33506   0.78284   0.04318   0.00000  Uiso   1.00
C103   C     0.34063   0.68713   0.99362   0.00000  Uiso   1.00
C104   C     0.37319   0.77703   0.96407   0.00000  Uiso   1.00
C105   C     0.42144   0.86156   0.90078   0.00000  Uiso   1.00
C106   C     0.34940   0.04066   0.11773   0.00000  Uiso   1.00
C107   C     0.27729   0.03669   0.09373   0.00000  Uiso   1.00
C108   C     0.23937   0.18958   0.09045   0.00000  Uiso   1.00
C109   C     0.17440   0.15693   0.06709   0.00000  Uiso   1.00
C110   C     0.37695   0.89728   0.17246   0.00000  Uiso   1.00
C111   C     0.42284   0.93296   0.23537   0.00000  Uiso   1.00
C112   C     0.44177   0.78296   0.27828   0.00000  Uiso   1.00
C113   C     0.36110   0.96200   0.06256   0.00000  Uiso   1.00
C114   C     0.39367   0.05205   0.03309   0.00000  Uiso   1.00
C115   C     0.39929   0.95650   0.98348   0.00000  Uiso   1.00
H116   H     0.28118   0.57136   0.06697   0.00000  Uiso   1.00
H117   H     0.16618   0.68600   0.03600   0.00000  Uiso   1.00
H118   H     0.34963   0.42942   0.18089   0.00000  Uiso   1.00
H119   H     0.32047   0.54850   0.97864   0.00000  Uiso   1.00
H120   H     0.05018   0.89209   0.01023   0.00000  Uiso   1.00
H121   H     0.43700   0.35107   0.31573   0.00000  Uiso   1.00
H122   H     0.37551   0.60215   0.88924   0.00000  Uiso   1.00
H123   H     0.36968   0.18014   0.13282   0.00000  Uiso   1.00
H124   H     0.25954   0.32820   0.10545   0.00000  Uiso   1.00
H125   H     0.44298   0.07161   0.25035   0.00000  Uiso   1.00
H126   H     0.41382   0.19069   0.04809   0.00000  Uiso   1.00
H127   H     0.12595   0.41332   0.06660   0.00000  Uiso   1.00
H128   H     0.51277   0.87229   0.37211   0.00000  Uiso   1.00
H129   H     0.45128   0.12338   0.94562   0.00000  Uiso   1.00
O130   O     0.01402   0.23910   0.01925   0.00000  Uiso   1.00
O131   O     0.52151   0.52929   0.42006   0.00000  Uiso   1.00
O132   O     0.44084   0.85871   0.86051   0.00000  Uiso   1.00
N133   N     0.08313   0.99445   0.02724   0.00000  Uiso   1.00
N134   N     0.44477   0.48863   0.31287   0.00000  Uiso   1.00
N135   N     0.38730   0.72335   0.91415   0.00000  Uiso   1.00
N136   N     0.12390   0.27492   0.05757   0.00000  Uiso   1.00
N137   N     0.48554   0.76910   0.34321   0.00000  Uiso   1.00
N138   N     0.42807   0.00382   0.94448   0.00000  Uiso   1.00
C139   C     0.69855   0.71084   0.41795   0.00000  Uiso   1.00
C140   C     0.74876   0.85755   0.42565   0.00000  Uiso   1.00
C141   C     0.81368   0.82466   0.44902   0.00000  Uiso   1.00
C142   C     0.85169   0.97746   0.45232   0.00000  Uiso   1.00
C143   C     0.93361   0.17799   0.46720   0.00000  Uiso   1.00
C144   C     0.64909   0.71814   0.34692   0.00000  Uiso   1.00
C145   C     0.63021   0.56804   0.30410   0.00000  Uiso   1.00
C146   C     0.58432   0.60349   0.24113   0.00000  Uiso   1.00
C147   C     0.51147   0.58756   0.13380   0.00000  Uiso   1.00
C148   C     0.66494   0.78284   0.45682   0.00000  Uiso   1.00
C149   C     0.65937   0.68713   0.50638   0.00000  Uiso   1.00
C150   C     0.62681   0.77703   0.53593   0.00000  Uiso   1.00
C151   C     0.57856   0.86156   0.59922   0.00000  Uiso   1.00
C152   C     0.65060   0.04066   0.38227   0.00000  Uiso   1.00
C153   C     0.72271   0.03669   0.40627   0.00000  Uiso   1.00
C154   C     0.76063   0.18958   0.40955   0.00000  Uiso   1.00
C155   C     0.82560   0.15693   0.43291   0.00000  Uiso   1.00
C156   C     0.62305   0.89728   0.32754   0.00000  Uiso   1.00
C157   C     0.57716   0.93296   0.26463   0.00000  Uiso   1.00
C158   C     0.55823   0.78296   0.22172   0.00000  Uiso   1.00
C159   C     0.63890   0.96200   0.43744   0.00000  Uiso   1.00
C160   C     0.60633   0.05205   0.46691   0.00000  Uiso   1.00
C161   C     0.60071   0.95650   0.51652   0.00000  Uiso   1.00
H162   H     0.71882   0.57136   0.43303   0.00000  Uiso   1.00
H163   H     0.83382   0.68600   0.46400   0.00000  Uiso   1.00
H164   H     0.65037   0.42942   0.31911   0.00000  Uiso   1.00
H165   H     0.67953   0.54850   0.52136   0.00000  Uiso   1.00
H166   H     0.94982   0.89209   0.48977   0.00000  Uiso   1.00
H167   H     0.56300   0.35107   0.18427   0.00000  Uiso   1.00
H168   H     0.62449   0.60215   0.61076   0.00000  Uiso   1.00
H169   H     0.63032   0.18014   0.36718   0.00000  Uiso   1.00
H170   H     0.74046   0.32820   0.39455   0.00000  Uiso   1.00
H171   H     0.55702   0.07161   0.24965   0.00000  Uiso   1.00
H172   H     0.58618   0.19069   0.45191   0.00000  Uiso   1.00
H173   H     0.87405   0.41332   0.43340   0.00000  Uiso   1.00
H174   H     0.48723   0.87229   0.12789   0.00000  Uiso   1.00
H175   H     0.54872   0.12338   0.55438   0.00000  Uiso   1.00
O176   O     0.98598   0.23910   0.48075   0.00000  Uiso   1.00
O177   O     0.47849   0.52929   0.07994   0.00000  Uiso   1.00
O178   O     0.55916   0.85871   0.63949   0.00000  Uiso   1.00
N179   N     0.91687   0.99445   0.47276   0.00000  Uiso   1.00
N180   N     0.55523   0.48863   0.18713   0.00000  Uiso   1.00
N181   N     0.61270   0.72335   0.58585   0.00000  Uiso   1.00
N182   N     0.87610   0.27492   0.44243   0.00000  Uiso   1.00
N183   N     0.51446   0.76910   0.15679   0.00000  Uiso   1.00
N184   N     0.57193   0.00382   0.55552   0.00000  Uiso   1.00
