data_job_04223
_audit_creation_date              2018-12-19
_audit_creation_method            'Materials Studio'
_symmetry_space_group_name_H-M    'P1'
_symmetry_Int_Tables_number       1
_symmetry_cell_setting            triclinic
loop_
_symmetry_equiv_pos_as_xyz
  x,y,z
_cell_length_a                    23.6197
_cell_length_b                    10.3432
_cell_length_c                    14.3122
_cell_angle_alpha                 90.0000
_cell_angle_beta                  90.0124
_cell_angle_gamma                 90.0000
loop_
_atom_site_label
_atom_site_type_symbol
_atom_site_fract_x
_atom_site_fract_y
_atom_site_fract_z
_atom_site_U_iso_or_equiv
_atom_site_adp_type
_atom_site_occupancy
C1     C     0.74998   0.17604   0.90787   0.00000  Uiso   1.00
C2     C     0.74997   0.05888   0.84319   0.00000  Uiso   1.00
C3     C     0.74998   0.93049   0.87136   0.00000  Uiso   1.00
C4     C     0.74997   0.83746   0.80143   0.00000  Uiso   1.00
C5     C     0.74999   0.65034   0.71539   0.00000  Uiso   1.00
C6     C     0.80155   0.25622   0.88050   0.00000  Uiso   1.00
C7     C     0.84493   0.29376   0.94004   0.00000  Uiso   1.00
C8     C     0.88835   0.36686   0.90151   0.00000  Uiso   1.00
C9     C     0.96843   0.48618   0.87341   0.00000  Uiso   1.00
C10    C     0.69841   0.25625   0.88050   0.00000  Uiso   1.00
C11    C     0.65507   0.29385   0.94005   0.00000  Uiso   1.00
C12    C     0.61165   0.36701   0.90153   0.00000  Uiso   1.00
C13    C     0.53159   0.48638   0.87344   0.00000  Uiso   1.00
C14    C     0.74996   0.23913   0.73359   0.00000  Uiso   1.00
C15    C     0.74996   0.09315   0.74853   0.00000  Uiso   1.00
C16    C     0.74995   0.00029   0.67853   0.00000  Uiso   1.00
C17    C     0.74996   0.87179   0.70659   0.00000  Uiso   1.00
C18    C     0.80155   0.29048   0.78584   0.00000  Uiso   1.00
C19    C     0.84491   0.36356   0.74721   0.00000  Uiso   1.00
C20    C     0.88834   0.40119   0.80667   0.00000  Uiso   1.00
C21    C     0.69840   0.29052   0.78584   0.00000  Uiso   1.00
C22    C     0.65504   0.36365   0.74722   0.00000  Uiso   1.00
C23    C     0.61164   0.40135   0.80670   0.00000  Uiso   1.00
H24    H     0.74999   0.14936   0.98157   0.00000  Uiso   1.00
H25    H     0.74999   0.90401   0.94462   0.00000  Uiso   1.00
H26    H     0.84492   0.26723   0.01329   0.00000  Uiso   1.00
H27    H     0.65509   0.26732   0.01330   0.00000  Uiso   1.00
H28    H     0.75000   0.64711   0.86191   0.00000  Uiso   1.00
H29    H     0.95017   0.41302   0.00671   0.00000  Uiso   1.00
H30    H     0.54987   0.41320   0.00673   0.00000  Uiso   1.00
H31    H     0.74995   0.26581   0.65989   0.00000  Uiso   1.00
H32    H     0.74995   0.02684   0.60528   0.00000  Uiso   1.00
H33    H     0.84488   0.39007   0.67396   0.00000  Uiso   1.00
H34    H     0.65505   0.39015   0.67397   0.00000  Uiso   1.00
H35    H     0.74997   0.74680   0.58649   0.00000  Uiso   1.00
H36    H     0.95014   0.51272   0.73129   0.00000  Uiso   1.00
H37    H     0.54984   0.51289   0.73131   0.00000  Uiso   1.00
O38    O     0.75000   0.53766   0.69408   0.00000  Uiso   1.00
O39    O     0.01260   0.54252   0.88406   0.00000  Uiso   1.00
O40    O     0.48742   0.54275   0.88409   0.00000  Uiso   1.00
N41    N     0.74998   0.70337   0.80458   0.00000  Uiso   1.00
N42    N     0.93713   0.41943   0.93996   0.00000  Uiso   1.00
N43    N     0.56289   0.41963   0.93999   0.00000  Uiso   1.00
N44    N     0.74997   0.75701   0.65638   0.00000  Uiso   1.00
N45    N     0.93711   0.47307   0.79176   0.00000  Uiso   1.00
N46    N     0.56287   0.47327   0.79179   0.00000  Uiso   1.00
C47    C     0.25002   0.17604   0.59213   0.00000  Uiso   1.00
C48    C     0.25003   0.05888   0.65681   0.00000  Uiso   1.00
C49    C     0.25002   0.93049   0.62864   0.00000  Uiso   1.00
C50    C     0.25003   0.83746   0.69857   0.00000  Uiso   1.00
C51    C     0.25001   0.65034   0.78461   0.00000  Uiso   1.00
C52    C     0.19845   0.25622   0.61950   0.00000  Uiso   1.00
C53    C     0.15507   0.29376   0.55996   0.00000  Uiso   1.00
C54    C     0.11165   0.36686   0.59849   0.00000  Uiso   1.00
C55    C     0.03157   0.48618   0.62659   0.00000  Uiso   1.00
C56    C     0.30159   0.25625   0.61950   0.00000  Uiso   1.00
C57    C     0.34493   0.29385   0.55995   0.00000  Uiso   1.00
C58    C     0.38835   0.36701   0.59847   0.00000  Uiso   1.00
C59    C     0.46841   0.48638   0.62656   0.00000  Uiso   1.00
C60    C     0.25004   0.23913   0.76641   0.00000  Uiso   1.00
C61    C     0.25004   0.09315   0.75147   0.00000  Uiso   1.00
C62    C     0.25005   0.00029   0.82147   0.00000  Uiso   1.00
C63    C     0.25004   0.87179   0.79341   0.00000  Uiso   1.00
C64    C     0.19845   0.29048   0.71416   0.00000  Uiso   1.00
C65    C     0.15509   0.36356   0.75279   0.00000  Uiso   1.00
C66    C     0.11166   0.40119   0.69333   0.00000  Uiso   1.00
C67    C     0.30160   0.29052   0.71416   0.00000  Uiso   1.00
C68    C     0.34496   0.36365   0.75278   0.00000  Uiso   1.00
C69    C     0.38836   0.40135   0.69330   0.00000  Uiso   1.00
H70    H     0.25001   0.14936   0.51843   0.00000  Uiso   1.00
H71    H     0.25001   0.90401   0.55538   0.00000  Uiso   1.00
H72    H     0.15508   0.26723   0.48671   0.00000  Uiso   1.00
H73    H     0.34491   0.26732   0.48670   0.00000  Uiso   1.00
H74    H     0.25000   0.64711   0.63809   0.00000  Uiso   1.00
H75    H     0.04983   0.41302   0.49329   0.00000  Uiso   1.00
H76    H     0.45013   0.41320   0.49327   0.00000  Uiso   1.00
H77    H     0.25005   0.26581   0.84011   0.00000  Uiso   1.00
H78    H     0.25005   0.02684   0.89472   0.00000  Uiso   1.00
H79    H     0.15512   0.39007   0.82604   0.00000  Uiso   1.00
H80    H     0.34495   0.39015   0.82603   0.00000  Uiso   1.00
H81    H     0.25003   0.74680   0.91351   0.00000  Uiso   1.00
H82    H     0.04986   0.51272   0.76871   0.00000  Uiso   1.00
H83    H     0.45016   0.51289   0.76869   0.00000  Uiso   1.00
O84    O     0.25000   0.53766   0.80592   0.00000  Uiso   1.00
O85    O     0.98740   0.54252   0.61594   0.00000  Uiso   1.00
O86    O     0.51258   0.54275   0.61591   0.00000  Uiso   1.00
N87    N     0.25002   0.70337   0.69542   0.00000  Uiso   1.00
N88    N     0.06287   0.41943   0.56004   0.00000  Uiso   1.00
N89    N     0.43711   0.41963   0.56001   0.00000  Uiso   1.00
N90    N     0.25003   0.75701   0.84362   0.00000  Uiso   1.00
N91    N     0.06289   0.47307   0.70824   0.00000  Uiso   1.00
N92    N     0.43713   0.47327   0.70821   0.00000  Uiso   1.00
C93    C     0.25002   0.82396   0.09213   0.00000  Uiso   1.00
C94    C     0.25003   0.94112   0.15681   0.00000  Uiso   1.00
C95    C     0.25002   0.06951   0.12864   0.00000  Uiso   1.00
C96    C     0.25003   0.16254   0.19857   0.00000  Uiso   1.00
C97    C     0.25001   0.34966   0.28461   0.00000  Uiso   1.00
C98    C     0.19845   0.74378   0.11950   0.00000  Uiso   1.00
C99    C     0.15507   0.70624   0.05996   0.00000  Uiso   1.00
C100   C     0.11165   0.63314   0.09849   0.00000  Uiso   1.00
C101   C     0.03157   0.51382   0.12659   0.00000  Uiso   1.00
C102   C     0.30159   0.74375   0.11950   0.00000  Uiso   1.00
C103   C     0.34493   0.70615   0.05995   0.00000  Uiso   1.00
C104   C     0.38835   0.63299   0.09847   0.00000  Uiso   1.00
C105   C     0.46841   0.51362   0.12656   0.00000  Uiso   1.00
C106   C     0.25004   0.76087   0.26641   0.00000  Uiso   1.00
C107   C     0.25004   0.90685   0.25147   0.00000  Uiso   1.00
C108   C     0.25005   0.99971   0.32147   0.00000  Uiso   1.00
C109   C     0.25004   0.12821   0.29341   0.00000  Uiso   1.00
C110   C     0.19845   0.70952   0.21416   0.00000  Uiso   1.00
C111   C     0.15509   0.63644   0.25279   0.00000  Uiso   1.00
C112   C     0.11166   0.59881   0.19333   0.00000  Uiso   1.00
C113   C     0.30160   0.70948   0.21416   0.00000  Uiso   1.00
C114   C     0.34496   0.63635   0.25278   0.00000  Uiso   1.00
C115   C     0.38836   0.59865   0.19330   0.00000  Uiso   1.00
H116   H     0.25001   0.85064   0.01843   0.00000  Uiso   1.00
H117   H     0.25001   0.09599   0.05538   0.00000  Uiso   1.00
H118   H     0.15508   0.73277   0.98671   0.00000  Uiso   1.00
H119   H     0.34491   0.73268   0.98670   0.00000  Uiso   1.00
H120   H     0.25000   0.35289   0.13809   0.00000  Uiso   1.00
H121   H     0.04983   0.58698   0.99329   0.00000  Uiso   1.00
H122   H     0.45013   0.58680   0.99327   0.00000  Uiso   1.00
H123   H     0.25005   0.73419   0.34011   0.00000  Uiso   1.00
H124   H     0.25005   0.97316   0.39472   0.00000  Uiso   1.00
H125   H     0.15512   0.60993   0.32604   0.00000  Uiso   1.00
H126   H     0.34495   0.60985   0.32603   0.00000  Uiso   1.00
H127   H     0.25003   0.25320   0.41351   0.00000  Uiso   1.00
H128   H     0.04986   0.48728   0.26871   0.00000  Uiso   1.00
H129   H     0.45016   0.48711   0.26869   0.00000  Uiso   1.00
O130   O     0.25000   0.46234   0.30592   0.00000  Uiso   1.00
O131   O     0.98740   0.45748   0.11594   0.00000  Uiso   1.00
O132   O     0.51258   0.45725   0.11591   0.00000  Uiso   1.00
N133   N     0.25002   0.29663   0.19542   0.00000  Uiso   1.00
N134   N     0.06287   0.58057   0.06004   0.00000  Uiso   1.00
N135   N     0.43711   0.58037   0.06001   0.00000  Uiso   1.00
N136   N     0.25003   0.24299   0.34362   0.00000  Uiso   1.00
N137   N     0.06289   0.52693   0.20824   0.00000  Uiso   1.00
N138   N     0.43713   0.52673   0.20821   0.00000  Uiso   1.00
C139   C     0.74998   0.82396   0.40787   0.00000  Uiso   1.00
C140   C     0.74997   0.94112   0.34319   0.00000  Uiso   1.00
C141   C     0.74998   0.06951   0.37136   0.00000  Uiso   1.00
C142   C     0.74997   0.16254   0.30143   0.00000  Uiso   1.00
C143   C     0.74999   0.34966   0.21539   0.00000  Uiso   1.00
C144   C     0.80155   0.74378   0.38050   0.00000  Uiso   1.00
C145   C     0.84493   0.70624   0.44004   0.00000  Uiso   1.00
C146   C     0.88835   0.63314   0.40151   0.00000  Uiso   1.00
C147   C     0.96843   0.51382   0.37341   0.00000  Uiso   1.00
C148   C     0.69841   0.74375   0.38050   0.00000  Uiso   1.00
C149   C     0.65507   0.70615   0.44005   0.00000  Uiso   1.00
C150   C     0.61165   0.63299   0.40153   0.00000  Uiso   1.00
C151   C     0.53159   0.51362   0.37344   0.00000  Uiso   1.00
C152   C     0.74996   0.76087   0.23359   0.00000  Uiso   1.00
C153   C     0.74996   0.90685   0.24853   0.00000  Uiso   1.00
C154   C     0.74995   0.99971   0.17853   0.00000  Uiso   1.00
C155   C     0.74996   0.12821   0.20659   0.00000  Uiso   1.00
C156   C     0.80155   0.70952   0.28584   0.00000  Uiso   1.00
C157   C     0.84491   0.63644   0.24721   0.00000  Uiso   1.00
C158   C     0.88834   0.59881   0.30667   0.00000  Uiso   1.00
C159   C     0.69840   0.70948   0.28584   0.00000  Uiso   1.00
C160   C     0.65504   0.63635   0.24722   0.00000  Uiso   1.00
C161   C     0.61164   0.59865   0.30670   0.00000  Uiso   1.00
H162   H     0.74999   0.85064   0.48157   0.00000  Uiso   1.00
H163   H     0.74999   0.09599   0.44462   0.00000  Uiso   1.00
H164   H     0.84492   0.73277   0.51329   0.00000  Uiso   1.00
H165   H     0.65509   0.73268   0.51330   0.00000  Uiso   1.00
H166   H     0.75000   0.35289   0.36191   0.00000  Uiso   1.00
H167   H     0.95017   0.58698   0.50671   0.00000  Uiso   1.00
H168   H     0.54987   0.58680   0.50673   0.00000  Uiso   1.00
H169   H     0.74995   0.73419   0.15989   0.00000  Uiso   1.00
H170   H     0.74995   0.97316   0.10528   0.00000  Uiso   1.00
H171   H     0.84488   0.60993   0.17396   0.00000  Uiso   1.00
H172   H     0.65505   0.60985   0.17397   0.00000  Uiso   1.00
H173   H     0.74997   0.25320   0.08649   0.00000  Uiso   1.00
H174   H     0.95014   0.48728   0.23129   0.00000  Uiso   1.00
H175   H     0.54984   0.48711   0.23131   0.00000  Uiso   1.00
O176   O     0.75000   0.46234   0.19408   0.00000  Uiso   1.00
O177   O     0.01260   0.45748   0.38406   0.00000  Uiso   1.00
O178   O     0.48742   0.45725   0.38409   0.00000  Uiso   1.00
N179   N     0.74998   0.29663   0.30458   0.00000  Uiso   1.00
N180   N     0.93713   0.58057   0.43996   0.00000  Uiso   1.00
N181   N     0.56289   0.58037   0.43999   0.00000  Uiso   1.00
N182   N     0.74997   0.24299   0.15638   0.00000  Uiso   1.00
N183   N     0.93711   0.52693   0.29176   0.00000  Uiso   1.00
N184   N     0.56287   0.52673   0.29179   0.00000  Uiso   1.00
