data_job_05104
_audit_creation_date              2018-12-19
_audit_creation_method            'Materials Studio'
_symmetry_space_group_name_H-M    'P1'
_symmetry_Int_Tables_number       1
_symmetry_cell_setting            triclinic
loop_
_symmetry_equiv_pos_as_xyz
  x,y,z
_cell_length_a                    16.8995
_cell_length_b                    11.5287
_cell_length_c                    24.7500
_cell_angle_alpha                 90.0000
_cell_angle_beta                  90.0000
_cell_angle_gamma                 90.0000
loop_
_atom_site_label
_atom_site_type_symbol
_atom_site_fract_x
_atom_site_fract_y
_atom_site_fract_z
_atom_site_U_iso_or_equiv
_atom_site_adp_type
_atom_site_occupancy
C1     C     0.57872   0.28071   0.13339   0.00000  Uiso   1.00
C2     C     0.50136   0.34295   0.12051   0.00000  Uiso   1.00
C3     C     0.46605   0.42808   0.15198   0.00000  Uiso   1.00
C4     C     0.39535   0.47432   0.13321   0.00000  Uiso   1.00
C5     C     0.28040   0.57664   0.12060   0.00000  Uiso   1.00
C6     C     0.55930   0.15154   0.13373   0.00000  Uiso   1.00
C7     C     0.57272   0.07573   0.17632   0.00000  Uiso   1.00
C8     C     0.55079   0.96083   0.16868   0.00000  Uiso   1.00
C9     C     0.52585   0.76597   0.17658   0.00000  Uiso   1.00
C10    C     0.63247   0.30017   0.08474   0.00000  Uiso   1.00
C11    C     0.70741   0.34930   0.08613   0.00000  Uiso   1.00
C12    C     0.74710   0.35950   0.03724   0.00000  Uiso   1.00
C13    C     0.83576   0.39541   0.96908   0.00000  Uiso   1.00
C14    C     0.51594   0.21145   0.04409   0.00000  Uiso   1.00
C15    C     0.46727   0.30533   0.07201   0.00000  Uiso   1.00
C16    C     0.39660   0.35145   0.05318   0.00000  Uiso   1.00
C17    C     0.36119   0.43663   0.08462   0.00000  Uiso   1.00
C18    C     0.52520   0.11392   0.08523   0.00000  Uiso   1.00
C19    C     0.50326   0.99910   0.07752   0.00000  Uiso   1.00
C20    C     0.51663   0.92314   0.12009   0.00000  Uiso   1.00
C21    C     0.59837   0.26255   0.03624   0.00000  Uiso   1.00
C22    C     0.63795   0.27267   0.98734   0.00000  Uiso   1.00
C23    C     0.71294   0.32181   0.98865   0.00000  Uiso   1.00
H24    H     0.60526   0.31000   0.17115   0.00000  Uiso   1.00
H25    H     0.49246   0.45717   0.18951   0.00000  Uiso   1.00
H26    H     0.59911   0.10487   0.21385   0.00000  Uiso   1.00
H27    H     0.73378   0.37840   0.12367   0.00000  Uiso   1.00
H28    H     0.35233   0.60371   0.18849   0.00000  Uiso   1.00
H29    H     0.57724   0.86087   0.23979   0.00000  Uiso   1.00
H30    H     0.86122   0.43766   0.04964   0.00000  Uiso   1.00
H31    H     0.48940   0.18215   0.00633   0.00000  Uiso   1.00
H32    H     0.37023   0.32231   0.01565   0.00000  Uiso   1.00
H33    H     0.47688   0.97002   0.03998   0.00000  Uiso   1.00
H34    H     0.61155   0.24354   0.94981   0.00000  Uiso   1.00
H35    H     0.25313   0.49425   0.04738   0.00000  Uiso   1.00
H36    H     0.47804   0.75141   0.09868   0.00000  Uiso   1.00
H37    H     0.76202   0.32820   0.90853   0.00000  Uiso   1.00
O38    O     0.22641   0.64346   0.12705   0.00000  Uiso   1.00
O39    O     0.52150   0.66889   0.19435   0.00000  Uiso   1.00
O40    O     0.89407   0.42562   0.94488   0.00000  Uiso   1.00
N41    N     0.34535   0.55873   0.15400   0.00000  Uiso   1.00
N42    N     0.55561   0.86422   0.20196   0.00000  Uiso   1.00
N43    N     0.82112   0.40344   0.02419   0.00000  Uiso   1.00
N44    N     0.29197   0.49983   0.07806   0.00000  Uiso   1.00
N45    N     0.50223   0.80533   0.12603   0.00000  Uiso   1.00
N46    N     0.76774   0.34455   0.94826   0.00000  Uiso   1.00
C47    C     0.35906   0.78018   0.86415   0.00000  Uiso   1.00
C48    C     0.43654   0.84164   0.87751   0.00000  Uiso   1.00
C49    C     0.47285   0.92602   0.84613   0.00000  Uiso   1.00
C50    C     0.54348   0.97161   0.86536   0.00000  Uiso   1.00
C51    C     0.65877   0.07271   0.87865   0.00000  Uiso   1.00
C52    C     0.37777   0.65078   0.86425   0.00000  Uiso   1.00
C53    C     0.36466   0.57469   0.82173   0.00000  Uiso   1.00
C54    C     0.38582   0.45962   0.82980   0.00000  Uiso   1.00
C55    C     0.40982   0.26439   0.82253   0.00000  Uiso   1.00
C56    C     0.30460   0.80077   0.91233   0.00000  Uiso   1.00
C57    C     0.22996   0.85077   0.91023   0.00000  Uiso   1.00
C58    C     0.18950   0.86195   0.95878   0.00000  Uiso   1.00
C59    C     0.09990   0.89961   0.02615   0.00000  Uiso   1.00
C60    C     0.41993   0.71111   0.95409   0.00000  Uiso   1.00
C61    C     0.46960   0.80412   0.92636   0.00000  Uiso   1.00
C62    C     0.54019   0.84960   0.94564   0.00000  Uiso   1.00
C63    C     0.57660   0.93404   0.91430   0.00000  Uiso   1.00
C64    C     0.41083   0.61326   0.91310   0.00000  Uiso   1.00
C65    C     0.43201   0.49827   0.92124   0.00000  Uiso   1.00
C66    C     0.41894   0.42203   0.87874   0.00000  Uiso   1.00
C67    C     0.33766   0.76326   0.96118   0.00000  Uiso   1.00
C68    C     0.29731   0.77436   0.00974   0.00000  Uiso   1.00
C69    C     0.22263   0.82437   0.00772   0.00000  Uiso   1.00
H70    H     0.33332   0.80938   0.82611   0.00000  Uiso   1.00
H71    H     0.44725   0.95502   0.80832   0.00000  Uiso   1.00
H72    H     0.33907   0.60375   0.78393   0.00000  Uiso   1.00
H73    H     0.20440   0.87979   0.87242   0.00000  Uiso   1.00
H74    H     0.58814   0.09992   0.81013   0.00000  Uiso   1.00
H75    H     0.36003   0.35923   0.75870   0.00000  Uiso   1.00
H76    H     0.07603   0.94132   0.94530   0.00000  Uiso   1.00
H77    H     0.44568   0.68190   0.99213   0.00000  Uiso   1.00
H78    H     0.56577   0.82055   0.98345   0.00000  Uiso   1.00
H79    H     0.45759   0.46927   0.95905   0.00000  Uiso   1.00
H80    H     0.32291   0.74532   0.04754   0.00000  Uiso   1.00
H81    H     0.68434   0.99077   0.95227   0.00000  Uiso   1.00
H82    H     0.45622   0.25008   0.90084   0.00000  Uiso   1.00
H83    H     0.17223   0.83217   0.08743   0.00000  Uiso   1.00
O84    O     0.71323   0.13883   0.87249   0.00000  Uiso   1.00
O85    O     0.41393   0.16707   0.80501   0.00000  Uiso   1.00
O86    O     0.04134   0.93076   0.04982   0.00000  Uiso   1.00
N87    N     0.59430   0.05522   0.84478   0.00000  Uiso   1.00
N88    N     0.38103   0.36272   0.79669   0.00000  Uiso   1.00
N89    N     0.11551   0.90690   0.97114   0.00000  Uiso   1.00
N90    N     0.64606   0.99649   0.92126   0.00000  Uiso   1.00
N91    N     0.43279   0.30399   0.87318   0.00000  Uiso   1.00
N92    N     0.16727   0.84817   0.04762   0.00000  Uiso   1.00
C93    C     0.42128   0.71929   0.63339   0.00000  Uiso   1.00
C94    C     0.49864   0.65705   0.62051   0.00000  Uiso   1.00
C95    C     0.53395   0.57192   0.65198   0.00000  Uiso   1.00
C96    C     0.60465   0.52568   0.63321   0.00000  Uiso   1.00
C97    C     0.71960   0.42336   0.62060   0.00000  Uiso   1.00
C98    C     0.44070   0.84846   0.63373   0.00000  Uiso   1.00
C99    C     0.42728   0.92427   0.67632   0.00000  Uiso   1.00
C100   C     0.44921   0.03917   0.66868   0.00000  Uiso   1.00
C101   C     0.47415   0.23403   0.67658   0.00000  Uiso   1.00
C102   C     0.36753   0.69983   0.58474   0.00000  Uiso   1.00
C103   C     0.29259   0.65070   0.58613   0.00000  Uiso   1.00
C104   C     0.25290   0.64050   0.53724   0.00000  Uiso   1.00
C105   C     0.16424   0.60459   0.46908   0.00000  Uiso   1.00
C106   C     0.48406   0.78855   0.54409   0.00000  Uiso   1.00
C107   C     0.53273   0.69467   0.57201   0.00000  Uiso   1.00
C108   C     0.60340   0.64855   0.55318   0.00000  Uiso   1.00
C109   C     0.63881   0.56337   0.58462   0.00000  Uiso   1.00
C110   C     0.47480   0.88608   0.58523   0.00000  Uiso   1.00
C111   C     0.49674   0.00090   0.57752   0.00000  Uiso   1.00
C112   C     0.48337   0.07686   0.62009   0.00000  Uiso   1.00
C113   C     0.40163   0.73745   0.53624   0.00000  Uiso   1.00
C114   C     0.36205   0.72733   0.48734   0.00000  Uiso   1.00
C115   C     0.28706   0.67819   0.48865   0.00000  Uiso   1.00
H116   H     0.39474   0.69000   0.67115   0.00000  Uiso   1.00
H117   H     0.50754   0.54283   0.68951   0.00000  Uiso   1.00
H118   H     0.40089   0.89513   0.71385   0.00000  Uiso   1.00
H119   H     0.26622   0.62160   0.62367   0.00000  Uiso   1.00
H120   H     0.64767   0.39629   0.68849   0.00000  Uiso   1.00
H121   H     0.42276   0.13913   0.73979   0.00000  Uiso   1.00
H122   H     0.13878   0.56234   0.54964   0.00000  Uiso   1.00
H123   H     0.51060   0.81785   0.50633   0.00000  Uiso   1.00
H124   H     0.62977   0.67769   0.51565   0.00000  Uiso   1.00
H125   H     0.52312   0.02998   0.53998   0.00000  Uiso   1.00
H126   H     0.38845   0.75646   0.44981   0.00000  Uiso   1.00
H127   H     0.74687   0.50575   0.54738   0.00000  Uiso   1.00
H128   H     0.52196   0.24859   0.59868   0.00000  Uiso   1.00
H129   H     0.23798   0.67180   0.40853   0.00000  Uiso   1.00
O130   O     0.77359   0.35654   0.62705   0.00000  Uiso   1.00
O131   O     0.47850   0.33111   0.69435   0.00000  Uiso   1.00
O132   O     0.10593   0.57438   0.44488   0.00000  Uiso   1.00
N133   N     0.65465   0.44127   0.65400   0.00000  Uiso   1.00
N134   N     0.44439   0.13578   0.70196   0.00000  Uiso   1.00
N135   N     0.17888   0.59656   0.52419   0.00000  Uiso   1.00
N136   N     0.70803   0.50017   0.57806   0.00000  Uiso   1.00
N137   N     0.49777   0.19467   0.62603   0.00000  Uiso   1.00
N138   N     0.23226   0.65545   0.44826   0.00000  Uiso   1.00
C139   C     0.64094   0.21982   0.36415   0.00000  Uiso   1.00
C140   C     0.56346   0.15836   0.37751   0.00000  Uiso   1.00
C141   C     0.52715   0.07398   0.34613   0.00000  Uiso   1.00
C142   C     0.45652   0.02839   0.36536   0.00000  Uiso   1.00
C143   C     0.34123   0.92729   0.37865   0.00000  Uiso   1.00
C144   C     0.62223   0.34922   0.36425   0.00000  Uiso   1.00
C145   C     0.63534   0.42531   0.32173   0.00000  Uiso   1.00
C146   C     0.61418   0.54038   0.32980   0.00000  Uiso   1.00
C147   C     0.59018   0.73561   0.32253   0.00000  Uiso   1.00
C148   C     0.69540   0.19923   0.41233   0.00000  Uiso   1.00
C149   C     0.77004   0.14923   0.41023   0.00000  Uiso   1.00
C150   C     0.81050   0.13805   0.45878   0.00000  Uiso   1.00
C151   C     0.90010   0.10039   0.52615   0.00000  Uiso   1.00
C152   C     0.58007   0.28889   0.45409   0.00000  Uiso   1.00
C153   C     0.53040   0.19588   0.42636   0.00000  Uiso   1.00
C154   C     0.45981   0.15040   0.44564   0.00000  Uiso   1.00
C155   C     0.42340   0.06596   0.41430   0.00000  Uiso   1.00
C156   C     0.58917   0.38674   0.41310   0.00000  Uiso   1.00
C157   C     0.56799   0.50173   0.42124   0.00000  Uiso   1.00
C158   C     0.58106   0.57797   0.37874   0.00000  Uiso   1.00
C159   C     0.66234   0.23674   0.46118   0.00000  Uiso   1.00
C160   C     0.70269   0.22564   0.50974   0.00000  Uiso   1.00
C161   C     0.77737   0.17563   0.50772   0.00000  Uiso   1.00
H162   H     0.66668   0.19062   0.32611   0.00000  Uiso   1.00
H163   H     0.55275   0.04498   0.30832   0.00000  Uiso   1.00
H164   H     0.66093   0.39625   0.28393   0.00000  Uiso   1.00
H165   H     0.79560   0.12021   0.37242   0.00000  Uiso   1.00
H166   H     0.41186   0.90008   0.31013   0.00000  Uiso   1.00
H167   H     0.63997   0.64077   0.25870   0.00000  Uiso   1.00
H168   H     0.92397   0.05868   0.44530   0.00000  Uiso   1.00
H169   H     0.55432   0.31810   0.49213   0.00000  Uiso   1.00
H170   H     0.43423   0.17945   0.48345   0.00000  Uiso   1.00
H171   H     0.54241   0.53073   0.45905   0.00000  Uiso   1.00
H172   H     0.67709   0.25468   0.54754   0.00000  Uiso   1.00
H173   H     0.31566   0.00923   0.45227   0.00000  Uiso   1.00
H174   H     0.54378   0.74992   0.40084   0.00000  Uiso   1.00
H175   H     0.82777   0.16783   0.58743   0.00000  Uiso   1.00
O176   O     0.28677   0.86117   0.37249   0.00000  Uiso   1.00
O177   O     0.58607   0.83293   0.30501   0.00000  Uiso   1.00
O178   O     0.95866   0.06924   0.54982   0.00000  Uiso   1.00
N179   N     0.40570   0.94478   0.34478   0.00000  Uiso   1.00
N180   N     0.61897   0.63728   0.29669   0.00000  Uiso   1.00
N181   N     0.88449   0.09310   0.47114   0.00000  Uiso   1.00
N182   N     0.35394   0.00351   0.42126   0.00000  Uiso   1.00
N183   N     0.56721   0.69601   0.37318   0.00000  Uiso   1.00
N184   N     0.83273   0.15183   0.54762   0.00000  Uiso   1.00
C185   C     0.07872   0.21929   0.13339   0.00000  Uiso   1.00
C186   C     0.00136   0.15705   0.12051   0.00000  Uiso   1.00
C187   C     0.96605   0.07192   0.15198   0.00000  Uiso   1.00
C188   C     0.89535   0.02568   0.13321   0.00000  Uiso   1.00
C189   C     0.78040   0.92336   0.12060   0.00000  Uiso   1.00
C190   C     0.05930   0.34846   0.13373   0.00000  Uiso   1.00
C191   C     0.07272   0.42427   0.17632   0.00000  Uiso   1.00
C192   C     0.05079   0.53917   0.16868   0.00000  Uiso   1.00
C193   C     0.02585   0.73403   0.17658   0.00000  Uiso   1.00
C194   C     0.13247   0.19983   0.08474   0.00000  Uiso   1.00
C195   C     0.20741   0.15070   0.08613   0.00000  Uiso   1.00
C196   C     0.24710   0.14050   0.03724   0.00000  Uiso   1.00
C197   C     0.33576   0.10459   0.96908   0.00000  Uiso   1.00
C198   C     0.01594   0.28855   0.04409   0.00000  Uiso   1.00
C199   C     0.96727   0.19467   0.07201   0.00000  Uiso   1.00
C200   C     0.89660   0.14855   0.05318   0.00000  Uiso   1.00
C201   C     0.86119   0.06337   0.08462   0.00000  Uiso   1.00
C202   C     0.02520   0.38608   0.08523   0.00000  Uiso   1.00
C203   C     0.00326   0.50090   0.07752   0.00000  Uiso   1.00
C204   C     0.01663   0.57686   0.12009   0.00000  Uiso   1.00
C205   C     0.09837   0.23745   0.03624   0.00000  Uiso   1.00
C206   C     0.13795   0.22733   0.98734   0.00000  Uiso   1.00
C207   C     0.21294   0.17819   0.98865   0.00000  Uiso   1.00
H208   H     0.10526   0.19000   0.17115   0.00000  Uiso   1.00
H209   H     0.99246   0.04283   0.18951   0.00000  Uiso   1.00
H210   H     0.09911   0.39513   0.21385   0.00000  Uiso   1.00
H211   H     0.23378   0.12160   0.12367   0.00000  Uiso   1.00
H212   H     0.85233   0.89629   0.18849   0.00000  Uiso   1.00
H213   H     0.07724   0.63913   0.23979   0.00000  Uiso   1.00
H214   H     0.36122   0.06234   0.04964   0.00000  Uiso   1.00
H215   H     0.98940   0.31785   0.00633   0.00000  Uiso   1.00
H216   H     0.87023   0.17769   0.01565   0.00000  Uiso   1.00
H217   H     0.97688   0.52998   0.03998   0.00000  Uiso   1.00
H218   H     0.11155   0.25646   0.94981   0.00000  Uiso   1.00
H219   H     0.75313   0.00575   0.04738   0.00000  Uiso   1.00
H220   H     0.97804   0.74859   0.09868   0.00000  Uiso   1.00
H221   H     0.26202   0.17180   0.90853   0.00000  Uiso   1.00
O222   O     0.72641   0.85654   0.12705   0.00000  Uiso   1.00
O223   O     0.02150   0.83111   0.19435   0.00000  Uiso   1.00
O224   O     0.39407   0.07438   0.94488   0.00000  Uiso   1.00
N225   N     0.84535   0.94127   0.15400   0.00000  Uiso   1.00
N226   N     0.05561   0.63578   0.20196   0.00000  Uiso   1.00
N227   N     0.32112   0.09656   0.02419   0.00000  Uiso   1.00
N228   N     0.79197   0.00017   0.07806   0.00000  Uiso   1.00
N229   N     0.00223   0.69467   0.12603   0.00000  Uiso   1.00
N230   N     0.26774   0.15545   0.94826   0.00000  Uiso   1.00
C231   C     0.85906   0.71982   0.86415   0.00000  Uiso   1.00
C232   C     0.93654   0.65836   0.87751   0.00000  Uiso   1.00
C233   C     0.97285   0.57398   0.84613   0.00000  Uiso   1.00
C234   C     0.04348   0.52839   0.86536   0.00000  Uiso   1.00
C235   C     0.15877   0.42729   0.87865   0.00000  Uiso   1.00
C236   C     0.87777   0.84922   0.86425   0.00000  Uiso   1.00
C237   C     0.86466   0.92531   0.82173   0.00000  Uiso   1.00
C238   C     0.88582   0.04038   0.82980   0.00000  Uiso   1.00
C239   C     0.90982   0.23561   0.82253   0.00000  Uiso   1.00
C240   C     0.80460   0.69923   0.91233   0.00000  Uiso   1.00
C241   C     0.72996   0.64923   0.91023   0.00000  Uiso   1.00
C242   C     0.68950   0.63805   0.95878   0.00000  Uiso   1.00
C243   C     0.59990   0.60039   0.02615   0.00000  Uiso   1.00
C244   C     0.91993   0.78889   0.95409   0.00000  Uiso   1.00
C245   C     0.96960   0.69588   0.92636   0.00000  Uiso   1.00
C246   C     0.04019   0.65040   0.94564   0.00000  Uiso   1.00
C247   C     0.07660   0.56596   0.91430   0.00000  Uiso   1.00
C248   C     0.91083   0.88674   0.91310   0.00000  Uiso   1.00
C249   C     0.93201   0.00173   0.92124   0.00000  Uiso   1.00
C250   C     0.91894   0.07797   0.87874   0.00000  Uiso   1.00
C251   C     0.83766   0.73674   0.96118   0.00000  Uiso   1.00
C252   C     0.79731   0.72564   0.00974   0.00000  Uiso   1.00
C253   C     0.72263   0.67563   0.00772   0.00000  Uiso   1.00
H254   H     0.83332   0.69062   0.82611   0.00000  Uiso   1.00
H255   H     0.94725   0.54498   0.80832   0.00000  Uiso   1.00
H256   H     0.83907   0.89625   0.78393   0.00000  Uiso   1.00
H257   H     0.70440   0.62021   0.87242   0.00000  Uiso   1.00
H258   H     0.08814   0.40008   0.81013   0.00000  Uiso   1.00
H259   H     0.86003   0.14077   0.75870   0.00000  Uiso   1.00
H260   H     0.57603   0.55868   0.94530   0.00000  Uiso   1.00
H261   H     0.94568   0.81810   0.99213   0.00000  Uiso   1.00
H262   H     0.06577   0.67945   0.98345   0.00000  Uiso   1.00
H263   H     0.95759   0.03073   0.95905   0.00000  Uiso   1.00
H264   H     0.82291   0.75468   0.04754   0.00000  Uiso   1.00
H265   H     0.18434   0.50923   0.95227   0.00000  Uiso   1.00
H266   H     0.95622   0.24992   0.90084   0.00000  Uiso   1.00
H267   H     0.67223   0.66783   0.08743   0.00000  Uiso   1.00
O268   O     0.21323   0.36117   0.87249   0.00000  Uiso   1.00
O269   O     0.91393   0.33293   0.80501   0.00000  Uiso   1.00
O270   O     0.54134   0.56924   0.04982   0.00000  Uiso   1.00
N271   N     0.09430   0.44478   0.84478   0.00000  Uiso   1.00
N272   N     0.88103   0.13728   0.79669   0.00000  Uiso   1.00
N273   N     0.61551   0.59310   0.97114   0.00000  Uiso   1.00
N274   N     0.14606   0.50351   0.92126   0.00000  Uiso   1.00
N275   N     0.93279   0.19601   0.87318   0.00000  Uiso   1.00
N276   N     0.66727   0.65183   0.04762   0.00000  Uiso   1.00
C277   C     0.92128   0.78071   0.63339   0.00000  Uiso   1.00
C278   C     0.99864   0.84295   0.62051   0.00000  Uiso   1.00
C279   C     0.03395   0.92808   0.65198   0.00000  Uiso   1.00
C280   C     0.10465   0.97432   0.63321   0.00000  Uiso   1.00
C281   C     0.21960   0.07664   0.62060   0.00000  Uiso   1.00
C282   C     0.94070   0.65154   0.63373   0.00000  Uiso   1.00
C283   C     0.92728   0.57573   0.67632   0.00000  Uiso   1.00
C284   C     0.94921   0.46083   0.66868   0.00000  Uiso   1.00
C285   C     0.97415   0.26597   0.67658   0.00000  Uiso   1.00
C286   C     0.86753   0.80017   0.58474   0.00000  Uiso   1.00
C287   C     0.79259   0.84930   0.58613   0.00000  Uiso   1.00
C288   C     0.75290   0.85950   0.53724   0.00000  Uiso   1.00
C289   C     0.66424   0.89541   0.46908   0.00000  Uiso   1.00
C290   C     0.98406   0.71145   0.54409   0.00000  Uiso   1.00
C291   C     0.03273   0.80533   0.57201   0.00000  Uiso   1.00
C292   C     0.10340   0.85145   0.55318   0.00000  Uiso   1.00
C293   C     0.13881   0.93663   0.58462   0.00000  Uiso   1.00
C294   C     0.97480   0.61392   0.58523   0.00000  Uiso   1.00
C295   C     0.99674   0.49910   0.57752   0.00000  Uiso   1.00
C296   C     0.98337   0.42314   0.62009   0.00000  Uiso   1.00
C297   C     0.90163   0.76255   0.53624   0.00000  Uiso   1.00
C298   C     0.86205   0.77267   0.48734   0.00000  Uiso   1.00
C299   C     0.78706   0.82181   0.48865   0.00000  Uiso   1.00
H300   H     0.89474   0.81000   0.67115   0.00000  Uiso   1.00
H301   H     0.00754   0.95717   0.68951   0.00000  Uiso   1.00
H302   H     0.90089   0.60487   0.71385   0.00000  Uiso   1.00
H303   H     0.76622   0.87840   0.62367   0.00000  Uiso   1.00
H304   H     0.14767   0.10371   0.68849   0.00000  Uiso   1.00
H305   H     0.92276   0.36087   0.73979   0.00000  Uiso   1.00
H306   H     0.63878   0.93766   0.54964   0.00000  Uiso   1.00
H307   H     0.01060   0.68215   0.50633   0.00000  Uiso   1.00
H308   H     0.12977   0.82231   0.51565   0.00000  Uiso   1.00
H309   H     0.02312   0.47002   0.53998   0.00000  Uiso   1.00
H310   H     0.88845   0.74354   0.44981   0.00000  Uiso   1.00
H311   H     0.24687   0.99425   0.54738   0.00000  Uiso   1.00
H312   H     0.02196   0.25141   0.59868   0.00000  Uiso   1.00
H313   H     0.73798   0.82820   0.40853   0.00000  Uiso   1.00
O314   O     0.27359   0.14346   0.62705   0.00000  Uiso   1.00
O315   O     0.97850   0.16889   0.69435   0.00000  Uiso   1.00
O316   O     0.60593   0.92562   0.44488   0.00000  Uiso   1.00
N317   N     0.15465   0.05873   0.65400   0.00000  Uiso   1.00
N318   N     0.94439   0.36422   0.70196   0.00000  Uiso   1.00
N319   N     0.67888   0.90344   0.52419   0.00000  Uiso   1.00
N320   N     0.20803   0.99983   0.57806   0.00000  Uiso   1.00
N321   N     0.99777   0.30533   0.62603   0.00000  Uiso   1.00
N322   N     0.73226   0.84455   0.44826   0.00000  Uiso   1.00
C323   C     0.14094   0.28018   0.36415   0.00000  Uiso   1.00
C324   C     0.06346   0.34164   0.37751   0.00000  Uiso   1.00
C325   C     0.02715   0.42602   0.34613   0.00000  Uiso   1.00
C326   C     0.95652   0.47161   0.36536   0.00000  Uiso   1.00
C327   C     0.84123   0.57271   0.37865   0.00000  Uiso   1.00
C328   C     0.12223   0.15078   0.36425   0.00000  Uiso   1.00
C329   C     0.13534   0.07469   0.32173   0.00000  Uiso   1.00
C330   C     0.11418   0.95962   0.32980   0.00000  Uiso   1.00
C331   C     0.09018   0.76439   0.32253   0.00000  Uiso   1.00
C332   C     0.19540   0.30077   0.41233   0.00000  Uiso   1.00
C333   C     0.27004   0.35077   0.41023   0.00000  Uiso   1.00
C334   C     0.31050   0.36195   0.45878   0.00000  Uiso   1.00
C335   C     0.40010   0.39961   0.52615   0.00000  Uiso   1.00
C336   C     0.08007   0.21111   0.45409   0.00000  Uiso   1.00
C337   C     0.03040   0.30412   0.42636   0.00000  Uiso   1.00
C338   C     0.95981   0.34960   0.44564   0.00000  Uiso   1.00
C339   C     0.92340   0.43404   0.41430   0.00000  Uiso   1.00
C340   C     0.08917   0.11326   0.41310   0.00000  Uiso   1.00
C341   C     0.06799   0.99827   0.42124   0.00000  Uiso   1.00
C342   C     0.08106   0.92203   0.37874   0.00000  Uiso   1.00
C343   C     0.16234   0.26326   0.46118   0.00000  Uiso   1.00
C344   C     0.20269   0.27436   0.50974   0.00000  Uiso   1.00
C345   C     0.27737   0.32437   0.50772   0.00000  Uiso   1.00
H346   H     0.16668   0.30938   0.32611   0.00000  Uiso   1.00
H347   H     0.05275   0.45502   0.30832   0.00000  Uiso   1.00
H348   H     0.16093   0.10375   0.28393   0.00000  Uiso   1.00
H349   H     0.29560   0.37979   0.37242   0.00000  Uiso   1.00
H350   H     0.91186   0.59992   0.31013   0.00000  Uiso   1.00
H351   H     0.13997   0.85923   0.25870   0.00000  Uiso   1.00
H352   H     0.42397   0.44132   0.44530   0.00000  Uiso   1.00
H353   H     0.05432   0.18190   0.49213   0.00000  Uiso   1.00
H354   H     0.93423   0.32055   0.48345   0.00000  Uiso   1.00
H355   H     0.04241   0.96927   0.45905   0.00000  Uiso   1.00
H356   H     0.17709   0.24532   0.54754   0.00000  Uiso   1.00
H357   H     0.81566   0.49077   0.45227   0.00000  Uiso   1.00
H358   H     0.04378   0.75008   0.40084   0.00000  Uiso   1.00
H359   H     0.32777   0.33217   0.58743   0.00000  Uiso   1.00
O360   O     0.78677   0.63883   0.37249   0.00000  Uiso   1.00
O361   O     0.08607   0.66707   0.30501   0.00000  Uiso   1.00
O362   O     0.45866   0.43076   0.54982   0.00000  Uiso   1.00
N363   N     0.90570   0.55522   0.34478   0.00000  Uiso   1.00
N364   N     0.11897   0.86272   0.29669   0.00000  Uiso   1.00
N365   N     0.38449   0.40690   0.47114   0.00000  Uiso   1.00
N366   N     0.85394   0.49649   0.42126   0.00000  Uiso   1.00
N367   N     0.06721   0.80399   0.37318   0.00000  Uiso   1.00
N368   N     0.33273   0.34817   0.54762   0.00000  Uiso   1.00
