data_job_06533
_audit_creation_date              2018-12-19
_audit_creation_method            'Materials Studio'
_symmetry_space_group_name_H-M    'P1'
_symmetry_Int_Tables_number       1
_symmetry_cell_setting            triclinic
loop_
_symmetry_equiv_pos_as_xyz
  x,y,z
_cell_length_a                    21.0632
_cell_length_b                    18.6203
_cell_length_c                    21.2657
_cell_angle_alpha                 86.5067
_cell_angle_beta                  89.2493
_cell_angle_gamma                 94.4170
loop_
_atom_site_label
_atom_site_type_symbol
_atom_site_fract_x
_atom_site_fract_y
_atom_site_fract_z
_atom_site_U_iso_or_equiv
_atom_site_adp_type
_atom_site_occupancy
C1     C     0.66445   0.51921   0.21909   0.00000  Uiso   1.00
C2     C     0.68982   0.59277   0.18975   0.00000  Uiso   1.00
C3     C     0.75181   0.62315   0.19358   0.00000  Uiso   1.00
C4     C     0.76555   0.69098   0.16354   0.00000  Uiso   1.00
C5     C     0.81204   0.79973   0.12298   0.00000  Uiso   1.00
C6     C     0.60807   0.53314   0.26115   0.00000  Uiso   1.00
C7     C     0.60132   0.51337   0.32502   0.00000  Uiso   1.00
C8     C     0.54623   0.53100   0.35509   0.00000  Uiso   1.00
C9     C     0.46577   0.54712   0.42537   0.00000  Uiso   1.00
C10    C     0.63663   0.47727   0.16515   0.00000  Uiso   1.00
C11    C     0.65388   0.41051   0.14831   0.00000  Uiso   1.00
C12    C     0.62283   0.38108   0.09756   0.00000  Uiso   1.00
C13    C     0.58672   0.31045   0.01879   0.00000  Uiso   1.00
C14    C     0.57862   0.58566   0.15894   0.00000  Uiso   1.00
C15    C     0.64320   0.62887   0.15708   0.00000  Uiso   1.00
C16    C     0.65686   0.69667   0.12702   0.00000  Uiso   1.00
C17    C     0.71885   0.72714   0.13081   0.00000  Uiso   1.00
C18    C     0.56145   0.56924   0.22848   0.00000  Uiso   1.00
C19    C     0.50636   0.58689   0.25846   0.00000  Uiso   1.00
C20    C     0.49953   0.56716   0.32235   0.00000  Uiso   1.00
C21    C     0.59001   0.51336   0.13248   0.00000  Uiso   1.00
C22    C     0.55893   0.48403   0.08175   0.00000  Uiso   1.00
C23    C     0.57613   0.41724   0.06483   0.00000  Uiso   1.00
H24    H     0.70074   0.49111   0.24453   0.00000  Uiso   1.00
H25    H     0.78787   0.59520   0.21887   0.00000  Uiso   1.00
H26    H     0.63740   0.48544   0.35029   0.00000  Uiso   1.00
H27    H     0.68996   0.38259   0.17360   0.00000  Uiso   1.00
H28    H     0.86391   0.72653   0.17604   0.00000  Uiso   1.00
H29    H     0.54662   0.49506   0.45312   0.00000  Uiso   1.00
H30    H     0.65745   0.27819   0.08056   0.00000  Uiso   1.00
H31    H     0.54233   0.61376   0.13350   0.00000  Uiso   1.00
H32    H     0.62077   0.72459   0.10174   0.00000  Uiso   1.00
H33    H     0.47029   0.61482   0.23316   0.00000  Uiso   1.00
H34    H     0.52285   0.51198   0.05648   0.00000  Uiso   1.00
H35    H     0.72829   0.83155   0.08097   0.00000  Uiso   1.00
H36    H     0.41099   0.60008   0.35806   0.00000  Uiso   1.00
H37    H     0.52182   0.38321   0.98549   0.00000  Uiso   1.00
O38    O     0.85056   0.84974   0.10964   0.00000  Uiso   1.00
O39    O     0.43427   0.54605   0.47316   0.00000  Uiso   1.00
O40    O     0.57968   0.26152   0.98436   0.00000  Uiso   1.00
N41    N     0.82123   0.73603   0.15801   0.00000  Uiso   1.00
N42    N     0.52458   0.51963   0.41707   0.00000  Uiso   1.00
N43    N     0.62819   0.31687   0.06877   0.00000  Uiso   1.00
N44    N     0.74825   0.79254   0.10686   0.00000  Uiso   1.00
N45    N     0.45160   0.57614   0.36592   0.00000  Uiso   1.00
N46    N     0.55521   0.37337   0.01761   0.00000  Uiso   1.00
C47    C     0.23617   0.58172   0.35524   0.00000  Uiso   1.00
C48    C     0.21883   0.56936   0.42512   0.00000  Uiso   1.00
C49    C     0.25150   0.60062   0.47404   0.00000  Uiso   1.00
C50    C     0.22806   0.58240   0.53471   0.00000  Uiso   1.00
C51    C     0.20940   0.57045   0.64150   0.00000  Uiso   1.00
C52    C     0.24418   0.50726   0.33148   0.00000  Uiso   1.00
C53    C     0.29816   0.48632   0.30166   0.00000  Uiso   1.00
C54    C     0.29606   0.41582   0.28350   0.00000  Uiso   1.00
C55    C     0.31674   0.30747   0.24486   0.00000  Uiso   1.00
C56    C     0.17715   0.60824   0.32334   0.00000  Uiso   1.00
C57    C     0.17477   0.67221   0.28668   0.00000  Uiso   1.00
C58    C     0.11622   0.68672   0.26166   0.00000  Uiso   1.00
C59    C     0.03283   0.73518   0.21040   0.00000  Uiso   1.00
C60    C     0.13644   0.49375   0.37598   0.00000  Uiso   1.00
C61    C     0.16467   0.52157   0.43638   0.00000  Uiso   1.00
C62    C     0.14116   0.50330   0.49699   0.00000  Uiso   1.00
C63    C     0.17379   0.53453   0.54600   0.00000  Uiso   1.00
C64    C     0.19002   0.45947   0.34274   0.00000  Uiso   1.00
C65    C     0.18783   0.38899   0.32461   0.00000  Uiso   1.00
C66    C     0.24179   0.36795   0.29478   0.00000  Uiso   1.00
C67    C     0.12298   0.56046   0.33461   0.00000  Uiso   1.00
C68    C     0.06443   0.57488   0.30963   0.00000  Uiso   1.00
C69    C     0.06196   0.63886   0.27294   0.00000  Uiso   1.00
H70    H     0.27834   0.61891   0.34647   0.00000  Uiso   1.00
H71    H     0.29342   0.63759   0.46531   0.00000  Uiso   1.00
H72    H     0.34007   0.52331   0.29295   0.00000  Uiso   1.00
H73    H     0.21670   0.70917   0.27797   0.00000  Uiso   1.00
H74    H     0.28627   0.63721   0.60203   0.00000  Uiso   1.00
H75    H     0.38462   0.39624   0.23858   0.00000  Uiso   1.00
H76    H     0.12446   0.78817   0.20700   0.00000  Uiso   1.00
H77    H     0.09427   0.45654   0.38475   0.00000  Uiso   1.00
H78    H     0.09925   0.46632   0.50569   0.00000  Uiso   1.00
H79    H     0.14590   0.35203   0.33333   0.00000  Uiso   1.00
H80    H     0.02253   0.53789   0.31835   0.00000  Uiso   1.00
H81    H     0.12867   0.49820   0.63481   0.00000  Uiso   1.00
H82    H     0.22703   0.25723   0.27135   0.00000  Uiso   1.00
H83    H     0.96687   0.64915   0.23978   0.00000  Uiso   1.00
O84    O     0.21408   0.57705   0.69729   0.00000  Uiso   1.00
O85    O     0.34312   0.26091   0.22045   0.00000  Uiso   1.00
O86    O     0.00179   0.77511   0.17902   0.00000  Uiso   1.00
N87    N     0.24848   0.60317   0.59315   0.00000  Uiso   1.00
N88    N     0.34045   0.37787   0.25335   0.00000  Uiso   1.00
N89    N     0.09722   0.74428   0.22381   0.00000  Uiso   1.00
N90    N     0.16368   0.52836   0.61078   0.00000  Uiso   1.00
N91    N     0.25565   0.30307   0.27099   0.00000  Uiso   1.00
N92    N     0.01242   0.66948   0.24145   0.00000  Uiso   1.00
C93    C     0.43323   0.20401   0.58825   0.00000  Uiso   1.00
C94    C     0.49517   0.18644   0.61994   0.00000  Uiso   1.00
C95    C     0.52333   0.22231   0.66899   0.00000  Uiso   1.00
C96    C     0.57997   0.19804   0.69147   0.00000  Uiso   1.00
C97    C     0.67199   0.17961   0.74457   0.00000  Uiso   1.00
C98    C     0.44942   0.21784   0.51824   0.00000  Uiso   1.00
C99    C     0.43909   0.28010   0.48178   0.00000  Uiso   1.00
C100   C     0.45721   0.28226   0.41864   0.00000  Uiso   1.00
C101   C     0.47816   0.31256   0.31384   0.00000  Uiso   1.00
C102   C     0.38972   0.13450   0.59413   0.00000  Uiso   1.00
C103   C     0.32919   0.12669   0.62147   0.00000  Uiso   1.00
C104   C     0.29704   0.05868   0.62222   0.00000  Uiso   1.00
C105   C     0.22530   0.95958   0.63525   0.00000  Uiso   1.00
C106   C     0.48374   0.09712   0.54094   0.00000  Uiso   1.00
C107   C     0.52261   0.12839   0.59424   0.00000  Uiso   1.00
C108   C     0.57922   0.10405   0.61665   0.00000  Uiso   1.00
C109   C     0.60745   0.13987   0.66573   0.00000  Uiso   1.00
C110   C     0.47685   0.15979   0.49254   0.00000  Uiso   1.00
C111   C     0.49498   0.16185   0.42944   0.00000  Uiso   1.00
C112   C     0.48470   0.22410   0.39290   0.00000  Uiso   1.00
C113   C     0.41716   0.07644   0.56844   0.00000  Uiso   1.00
C114   C     0.38509   0.00843   0.56913   0.00000  Uiso   1.00
C115   C     0.32453   0.00052   0.59647   0.00000  Uiso   1.00
H116   H     0.41187   0.24921   0.60825   0.00000  Uiso   1.00
H117   H     0.50208   0.26724   0.68886   0.00000  Uiso   1.00
H118   H     0.41785   0.32502   0.50168   0.00000  Uiso   1.00
H119   H     0.30798   0.17163   0.64135   0.00000  Uiso   1.00
H120   H     0.61421   0.26164   0.76689   0.00000  Uiso   1.00
H121   H     0.43660   0.38347   0.37220   0.00000  Uiso   1.00
H122   H     0.20490   0.06001   0.66673   0.00000  Uiso   1.00
H123   H     0.50510   0.05192   0.52093   0.00000  Uiso   1.00
H124   H     0.60044   0.05912   0.59676   0.00000  Uiso   1.00
H125   H     0.51621   0.11691   0.40957   0.00000  Uiso   1.00
H126   H     0.40633   0.96352   0.54925   0.00000  Uiso   1.00
H127   H     0.69405   0.09273   0.69213   0.00000  Uiso   1.00
H128   H     0.51643   0.21455   0.29744   0.00000  Uiso   1.00
H129   H     0.28473   0.89110   0.59197   0.00000  Uiso   1.00
O130   O     0.71517   0.18550   0.78095   0.00000  Uiso   1.00
O131   O     0.48214   0.34532   0.26313   0.00000  Uiso   1.00
O132   O     0.17815   0.92096   0.64955   0.00000  Uiso   1.00
N133   N     0.61991   0.22089   0.73890   0.00000  Uiso   1.00
N134   N     0.45386   0.33480   0.36989   0.00000  Uiso   1.00
N135   N     0.23723   0.03240   0.64523   0.00000  Uiso   1.00
N136   N     0.66287   0.13000   0.69867   0.00000  Uiso   1.00
N137   N     0.49682   0.24390   0.32966   0.00000  Uiso   1.00
N138   N     0.28019   0.94151   0.60501   0.00000  Uiso   1.00
C139   C     0.16352   0.71291   0.94538   0.00000  Uiso   1.00
C140   C     0.18971   0.68790   0.00885   0.00000  Uiso   1.00
C141   C     0.25124   0.70364   0.02926   0.00000  Uiso   1.00
C142   C     0.26587   0.67571   0.08888   0.00000  Uiso   1.00
C143   C     0.31342   0.64333   0.18170   0.00000  Uiso   1.00
C144   C     0.10522   0.75303   0.96020   0.00000  Uiso   1.00
C145   C     0.09572   0.82352   0.93969   0.00000  Uiso   1.00
C146   C     0.03923   0.85041   0.95835   0.00000  Uiso   1.00
C147   C     0.95559   0.91912   0.97560   0.00000  Uiso   1.00
C148   C     0.13846   0.64462   0.91478   0.00000  Uiso   1.00
C149   C     0.15689   0.62397   0.85607   0.00000  Uiso   1.00
C150   C     0.12836   0.55959   0.83649   0.00000  Uiso   1.00
C151   C     0.09632   0.45998   0.78322   0.00000  Uiso   1.00
C152   C     0.08008   0.63531   0.01498   0.00000  Uiso   1.00
C153   C     0.14438   0.64576   0.04666   0.00000  Uiso   1.00
C154   C     0.15892   0.61779   0.10627   0.00000  Uiso   1.00
C155   C     0.22047   0.63349   0.12675   0.00000  Uiso   1.00
C156   C     0.05990   0.71089   0.99801   0.00000  Uiso   1.00
C157   C     0.00340   0.73768   0.01670   0.00000  Uiso   1.00
C158   C     0.99382   0.80819   0.99623   0.00000  Uiso   1.00
C159   C     0.09313   0.60247   0.95259   0.00000  Uiso   1.00
C160   C     0.06457   0.53812   0.93309   0.00000  Uiso   1.00
C161   C     0.08295   0.51737   0.87436   0.00000  Uiso   1.00
H162   H     0.19881   0.74572   0.91595   0.00000  Uiso   1.00
H163   H     0.28631   0.73627   0.99999   0.00000  Uiso   1.00
H164   H     0.13081   0.85612   0.91043   0.00000  Uiso   1.00
H165   H     0.19196   0.65660   0.82683   0.00000  Uiso   1.00
H166   H     0.36332   0.70722   0.10985   0.00000  Uiso   1.00
H167   H     0.03543   0.95993   0.92099   0.00000  Uiso   1.00
H168   H     0.16439   0.53920   0.74470   0.00000  Uiso   1.00
H169   H     0.04479   0.60250   0.04442   0.00000  Uiso   1.00
H170   H     0.12384   0.58518   0.13551   0.00000  Uiso   1.00
H171   H     0.96834   0.70504   0.04595   0.00000  Uiso   1.00
H172   H     0.02949   0.50552   0.96236   0.00000  Uiso   1.00
H173   H     0.23145   0.58460   0.21984   0.00000  Uiso   1.00
H174   H     0.90356   0.83731   0.03099   0.00000  Uiso   1.00
H175   H     0.03252   0.41658   0.85470   0.00000  Uiso   1.00
O176   O     0.35216   0.63712   0.22246   0.00000  Uiso   1.00
O177   O     0.92198   0.96867   0.97468   0.00000  Uiso   1.00
O178   O     0.09117   0.41668   0.74340   0.00000  Uiso   1.00
N179   N     0.32144   0.68072   0.12323   0.00000  Uiso   1.00
N180   N     0.01489   0.91700   0.94667   0.00000  Uiso   1.00
N181   N     0.13544   0.52366   0.78185   0.00000  Uiso   1.00
N182   N     0.25048   0.61474   0.18242   0.00000  Uiso   1.00
N183   N     0.94393   0.85102   0.00586   0.00000  Uiso   1.00
N184   N     0.06448   0.45768   0.84104   0.00000  Uiso   1.00
C185   C     0.70178   0.03188   0.14436   0.00000  Uiso   1.00
C186   C     0.68115   0.09777   0.17612   0.00000  Uiso   1.00
C187   C     0.70686   0.12495   0.23037   0.00000  Uiso   1.00
C188   C     0.68143   0.18572   0.25194   0.00000  Uiso   1.00
C189   C     0.65693   0.28312   0.30604   0.00000  Uiso   1.00
C190   C     0.71997   0.05783   0.07666   0.00000  Uiso   1.00
C191   C     0.77832   0.05142   0.04728   0.00000  Uiso   1.00
C192   C     0.78556   0.07856   0.98512   0.00000  Uiso   1.00
C193   C     0.82130   0.11391   0.88479   0.00000  Uiso   1.00
C194   C     0.64195   0.98088   0.14043   0.00000  Uiso   1.00
C195   C     0.63470   0.90977   0.16467   0.00000  Uiso   1.00
C196   C     0.57625   0.87211   0.15618   0.00000  Uiso   1.00
C197   C     0.49086   0.78799   0.15487   0.00000  Uiso   1.00
C198   C     0.61090   0.09146   0.08618   0.00000  Uiso   1.00
C199   C     0.63179   0.13013   0.14451   0.00000  Uiso   1.00
C200   C     0.60631   0.19087   0.16600   0.00000  Uiso   1.00
C201   C     0.63198   0.21814   0.22028   0.00000  Uiso   1.00
C202   C     0.67061   0.09019   0.04505   0.00000  Uiso   1.00
C203   C     0.67777   0.11734   0.98291   0.00000  Uiso   1.00
C204   C     0.73611   0.11098   0.95346   0.00000  Uiso   1.00
C205   C     0.59259   0.01324   0.10883   0.00000  Uiso   1.00
C206   C     0.53414   0.97569   0.10030   0.00000  Uiso   1.00
C207   C     0.52680   0.90453   0.12452   0.00000  Uiso   1.00
H208   H     0.74022   0.00669   0.16896   0.00000  Uiso   1.00
H209   H     0.74507   0.09990   0.25481   0.00000  Uiso   1.00
H210   H     0.81650   0.02637   0.07175   0.00000  Uiso   1.00
H211   H     0.67291   0.88474   0.18912   0.00000  Uiso   1.00
H212   H     0.72869   0.21752   0.33605   0.00000  Uiso   1.00
H213   H     0.87931   0.06247   0.95004   0.00000  Uiso   1.00
H214   H     0.57651   0.76381   0.19753   0.00000  Uiso   1.00
H215   H     0.57247   0.11666   0.06157   0.00000  Uiso   1.00
H216   H     0.56811   0.21590   0.14154   0.00000  Uiso   1.00
H217   H     0.63955   0.14237   0.95847   0.00000  Uiso   1.00
H218   H     0.49596   0.00075   0.07584   0.00000  Uiso   1.00
H219   H     0.58507   0.31168   0.24411   0.00000  Uiso   1.00
H220   H     0.73570   0.15662   0.85810   0.00000  Uiso   1.00
H221   H     0.43289   0.85796   0.10560   0.00000  Uiso   1.00
O222   O     0.65706   0.32792   0.34461   0.00000  Uiso   1.00
O223   O     0.85466   0.12447   0.83818   0.00000  Uiso   1.00
O224   O     0.45739   0.73265   0.16289   0.00000  Uiso   1.00
N225   N     0.69548   0.22605   0.30344   0.00000  Uiso   1.00
N226   N     0.83631   0.08110   0.94255   0.00000  Uiso   1.00
N227   N     0.55321   0.80187   0.17392   0.00000  Uiso   1.00
N228   N     0.61820   0.27672   0.25397   0.00000  Uiso   1.00
N229   N     0.75903   0.13176   0.89308   0.00000  Uiso   1.00
N230   N     0.47593   0.85253   0.12445   0.00000  Uiso   1.00
C231   C     0.06157   0.25365   0.59304   0.00000  Uiso   1.00
C232   C     0.12096   0.26833   0.55105   0.00000  Uiso   1.00
C233   C     0.16107   0.33122   0.54759   0.00000  Uiso   1.00
C234   C     0.21293   0.33409   0.50628   0.00000  Uiso   1.00
C235   C     0.30345   0.36569   0.44666   0.00000  Uiso   1.00
C236   C     0.07107   0.18453   0.63287   0.00000  Uiso   1.00
C237   C     0.06923   0.17697   0.69822   0.00000  Uiso   1.00
C238   C     0.07907   0.10930   0.72579   0.00000  Uiso   1.00
C239   C     0.09210   0.01078   0.79320   0.00000  Uiso   1.00
C240   C     0.00690   0.23495   0.54913   0.00000  Uiso   1.00
C241   C     0.95109   0.26977   0.54406   0.00000  Uiso   1.00
C242   C     0.90689   0.24454   0.50113   0.00000  Uiso   1.00
C243   C     0.82028   0.22431   0.43852   0.00000  Uiso   1.00
C244   C     0.08233   0.14693   0.52581   0.00000  Uiso   1.00
C245   C     0.13224   0.21036   0.51454   0.00000  Uiso   1.00
C246   C     0.18404   0.21314   0.47322   0.00000  Uiso   1.00
C247   C     0.22422   0.27602   0.46970   0.00000  Uiso   1.00
C248   C     0.08235   0.12657   0.59636   0.00000  Uiso   1.00
C249   C     0.09220   0.05889   0.62384   0.00000  Uiso   1.00
C250   C     0.09037   0.05122   0.68921   0.00000  Uiso   1.00
C251   C     0.01817   0.17699   0.51261   0.00000  Uiso   1.00
C252   C     0.97406   0.15169   0.46968   0.00000  Uiso   1.00
C253   C     0.91819   0.18646   0.46455   0.00000  Uiso   1.00
H254   H     0.05279   0.29878   0.62147   0.00000  Uiso   1.00
H255   H     0.15234   0.37606   0.57587   0.00000  Uiso   1.00
H256   H     0.06050   0.22183   0.72646   0.00000  Uiso   1.00
H257   H     0.94238   0.31462   0.57233   0.00000  Uiso   1.00
H258   H     0.26768   0.43618   0.50922   0.00000  Uiso   1.00
H259   H     0.07402   0.11096   0.82676   0.00000  Uiso   1.00
H260   H     0.82493   0.30663   0.50174   0.00000  Uiso   1.00
H261   H     0.09111   0.10180   0.49738   0.00000  Uiso   1.00
H262   H     0.19275   0.16827   0.44496   0.00000  Uiso   1.00
H263   H     0.10092   0.01404   0.59557   0.00000  Uiso   1.00
H264   H     0.98280   0.10683   0.44143   0.00000  Uiso   1.00
H265   H     0.30049   0.26752   0.40298   0.00000  Uiso   1.00
H266   H     0.10682   0.94231   0.72052   0.00000  Uiso   1.00
H267   H     0.85774   0.13798   0.39550   0.00000  Uiso   1.00
O268   O     0.35028   0.39913   0.42387   0.00000  Uiso   1.00
O269   O     0.09618   0.97246   0.84047   0.00000  Uiso   1.00
O270   O     0.76939   0.22917   0.41406   0.00000  Uiso   1.00
N271   N     0.26145   0.38737   0.49140   0.00000  Uiso   1.00
N272   N     0.08039   0.08332   0.78828   0.00000  Uiso   1.00
N273   N     0.84751   0.26623   0.48443   0.00000  Uiso   1.00
N274   N     0.27910   0.29662   0.43423   0.00000  Uiso   1.00
N275   N     0.09804   0.99257   0.73112   0.00000  Uiso   1.00
N276   N     0.86517   0.17548   0.42726   0.00000  Uiso   1.00
C277   C     0.33555   0.48079   0.78091   0.00000  Uiso   1.00
C278   C     0.31018   0.40723   0.81025   0.00000  Uiso   1.00
C279   C     0.24819   0.37685   0.80642   0.00000  Uiso   1.00
C280   C     0.23445   0.30902   0.83646   0.00000  Uiso   1.00
C281   C     0.18796   0.20027   0.87702   0.00000  Uiso   1.00
C282   C     0.39193   0.46686   0.73885   0.00000  Uiso   1.00
C283   C     0.39868   0.48663   0.67498   0.00000  Uiso   1.00
C284   C     0.45377   0.46900   0.64491   0.00000  Uiso   1.00
C285   C     0.53423   0.45288   0.57463   0.00000  Uiso   1.00
C286   C     0.36337   0.52273   0.83485   0.00000  Uiso   1.00
C287   C     0.34612   0.58949   0.85169   0.00000  Uiso   1.00
C288   C     0.37717   0.61892   0.90244   0.00000  Uiso   1.00
C289   C     0.41328   0.68955   0.98121   0.00000  Uiso   1.00
C290   C     0.42138   0.41434   0.84106   0.00000  Uiso   1.00
C291   C     0.35680   0.37113   0.84292   0.00000  Uiso   1.00
C292   C     0.34314   0.30333   0.87298   0.00000  Uiso   1.00
C293   C     0.28115   0.27286   0.86919   0.00000  Uiso   1.00
C294   C     0.43855   0.43076   0.77152   0.00000  Uiso   1.00
C295   C     0.49364   0.41311   0.74154   0.00000  Uiso   1.00
C296   C     0.50047   0.43284   0.67765   0.00000  Uiso   1.00
C297   C     0.40999   0.48664   0.86752   0.00000  Uiso   1.00
C298   C     0.44107   0.51597   0.91825   0.00000  Uiso   1.00
C299   C     0.42387   0.58276   0.93517   0.00000  Uiso   1.00
H300   H     0.29926   0.50889   0.75547   0.00000  Uiso   1.00
H301   H     0.21213   0.40480   0.78113   0.00000  Uiso   1.00
H302   H     0.36260   0.51456   0.64971   0.00000  Uiso   1.00
H303   H     0.31004   0.61741   0.82640   0.00000  Uiso   1.00
H304   H     0.13609   0.27347   0.82396   0.00000  Uiso   1.00
H305   H     0.45338   0.50494   0.54688   0.00000  Uiso   1.00
H306   H     0.34255   0.72181   0.91944   0.00000  Uiso   1.00
H307   H     0.45767   0.38624   0.86650   0.00000  Uiso   1.00
H308   H     0.37923   0.27541   0.89826   0.00000  Uiso   1.00
H309   H     0.52971   0.38518   0.76684   0.00000  Uiso   1.00
H310   H     0.47715   0.48802   0.94352   0.00000  Uiso   1.00
H311   H     0.27171   0.16845   0.91903   0.00000  Uiso   1.00
H312   H     0.58901   0.39992   0.64194   0.00000  Uiso   1.00
H313   H     0.47818   0.61679   0.01451   0.00000  Uiso   1.00
O314   O     0.14944   0.15026   0.89036   0.00000  Uiso   1.00
O315   O     0.56573   0.45395   0.52684   0.00000  Uiso   1.00
O316   O     0.42032   0.73848   0.01564   0.00000  Uiso   1.00
N317   N     0.17877   0.26397   0.84199   0.00000  Uiso   1.00
N318   N     0.47542   0.48037   0.58293   0.00000  Uiso   1.00
N319   N     0.37181   0.68313   0.93123   0.00000  Uiso   1.00
N320   N     0.25175   0.20746   0.89314   0.00000  Uiso   1.00
N321   N     0.54840   0.42386   0.63408   0.00000  Uiso   1.00
N322   N     0.44479   0.62663   0.98239   0.00000  Uiso   1.00
C323   C     0.76383   0.41828   0.64476   0.00000  Uiso   1.00
C324   C     0.78117   0.43064   0.57488   0.00000  Uiso   1.00
C325   C     0.74850   0.39938   0.52596   0.00000  Uiso   1.00
C326   C     0.77194   0.41760   0.46529   0.00000  Uiso   1.00
C327   C     0.79060   0.42955   0.35850   0.00000  Uiso   1.00
C328   C     0.75582   0.49274   0.66852   0.00000  Uiso   1.00
C329   C     0.70184   0.51368   0.69834   0.00000  Uiso   1.00
C330   C     0.70394   0.58418   0.71650   0.00000  Uiso   1.00
C331   C     0.68326   0.69253   0.75514   0.00000  Uiso   1.00
C332   C     0.82285   0.39176   0.67666   0.00000  Uiso   1.00
C333   C     0.82523   0.32779   0.71332   0.00000  Uiso   1.00
C334   C     0.88378   0.31328   0.73834   0.00000  Uiso   1.00
C335   C     0.96717   0.26482   0.78960   0.00000  Uiso   1.00
C336   C     0.86356   0.50625   0.62402   0.00000  Uiso   1.00
C337   C     0.83533   0.47843   0.56362   0.00000  Uiso   1.00
C338   C     0.85884   0.49670   0.50301   0.00000  Uiso   1.00
C339   C     0.82621   0.46547   0.45400   0.00000  Uiso   1.00
C340   C     0.80998   0.54053   0.65726   0.00000  Uiso   1.00
C341   C     0.81217   0.61101   0.67539   0.00000  Uiso   1.00
C342   C     0.75821   0.63205   0.70522   0.00000  Uiso   1.00
C343   C     0.87702   0.43954   0.66539   0.00000  Uiso   1.00
C344   C     0.93557   0.42512   0.69037   0.00000  Uiso   1.00
C345   C     0.93804   0.36114   0.72706   0.00000  Uiso   1.00
H346   H     0.72166   0.38109   0.65353   0.00000  Uiso   1.00
H347   H     0.70658   0.36241   0.53469   0.00000  Uiso   1.00
H348   H     0.65993   0.47669   0.70705   0.00000  Uiso   1.00
H349   H     0.78330   0.29083   0.72203   0.00000  Uiso   1.00
H350   H     0.71373   0.36279   0.39797   0.00000  Uiso   1.00
H351   H     0.61538   0.60376   0.76142   0.00000  Uiso   1.00
H352   H     0.87554   0.21183   0.79300   0.00000  Uiso   1.00
H353   H     0.90573   0.54346   0.61525   0.00000  Uiso   1.00
H354   H     0.90075   0.53368   0.49431   0.00000  Uiso   1.00
H355   H     0.85410   0.64797   0.66667   0.00000  Uiso   1.00
H356   H     0.97747   0.46211   0.68165   0.00000  Uiso   1.00
H357   H     0.87133   0.50180   0.36519   0.00000  Uiso   1.00
H358   H     0.77297   0.74277   0.72865   0.00000  Uiso   1.00
H359   H     0.03313   0.35085   0.76022   0.00000  Uiso   1.00
O360   O     0.78592   0.42295   0.30271   0.00000  Uiso   1.00
O361   O     0.65688   0.73909   0.77955   0.00000  Uiso   1.00
O362   O     0.99821   0.22489   0.82098   0.00000  Uiso   1.00
N363   N     0.75152   0.39683   0.40685   0.00000  Uiso   1.00
N364   N     0.65955   0.62213   0.74665   0.00000  Uiso   1.00
N365   N     0.90278   0.25572   0.77619   0.00000  Uiso   1.00
N366   N     0.83632   0.47164   0.38922   0.00000  Uiso   1.00
N367   N     0.74435   0.69693   0.72901   0.00000  Uiso   1.00
N368   N     0.98758   0.33052   0.75855   0.00000  Uiso   1.00
C369   C     0.56677   0.79599   0.41175   0.00000  Uiso   1.00
C370   C     0.50483   0.81356   0.38006   0.00000  Uiso   1.00
C371   C     0.47667   0.77769   0.33101   0.00000  Uiso   1.00
C372   C     0.42003   0.80196   0.30853   0.00000  Uiso   1.00
C373   C     0.32801   0.82039   0.25543   0.00000  Uiso   1.00
C374   C     0.55058   0.78216   0.48176   0.00000  Uiso   1.00
C375   C     0.56091   0.71990   0.51822   0.00000  Uiso   1.00
C376   C     0.54279   0.71774   0.58136   0.00000  Uiso   1.00
C377   C     0.52184   0.68744   0.68616   0.00000  Uiso   1.00
C378   C     0.61028   0.86550   0.40587   0.00000  Uiso   1.00
C379   C     0.67081   0.87331   0.37853   0.00000  Uiso   1.00
C380   C     0.70296   0.94132   0.37778   0.00000  Uiso   1.00
C381   C     0.77470   0.04042   0.36475   0.00000  Uiso   1.00
C382   C     0.51626   0.90288   0.45906   0.00000  Uiso   1.00
C383   C     0.47739   0.87161   0.40576   0.00000  Uiso   1.00
C384   C     0.42078   0.89595   0.38335   0.00000  Uiso   1.00
C385   C     0.39255   0.86013   0.33427   0.00000  Uiso   1.00
C386   C     0.52315   0.84021   0.50746   0.00000  Uiso   1.00
C387   C     0.50502   0.83815   0.57056   0.00000  Uiso   1.00
C388   C     0.51530   0.77590   0.60710   0.00000  Uiso   1.00
C389   C     0.58284   0.92356   0.43156   0.00000  Uiso   1.00
C390   C     0.61491   0.99157   0.43087   0.00000  Uiso   1.00
C391   C     0.67547   0.99948   0.40353   0.00000  Uiso   1.00
H392   H     0.58813   0.75079   0.39175   0.00000  Uiso   1.00
H393   H     0.49792   0.73276   0.31114   0.00000  Uiso   1.00
H394   H     0.58215   0.67498   0.49832   0.00000  Uiso   1.00
H395   H     0.69202   0.82837   0.35865   0.00000  Uiso   1.00
H396   H     0.38579   0.73836   0.23311   0.00000  Uiso   1.00
H397   H     0.56340   0.61653   0.62780   0.00000  Uiso   1.00
H398   H     0.79510   0.93999   0.33327   0.00000  Uiso   1.00
H399   H     0.49490   0.94808   0.47907   0.00000  Uiso   1.00
H400   H     0.39956   0.94088   0.40324   0.00000  Uiso   1.00
H401   H     0.48379   0.88309   0.59043   0.00000  Uiso   1.00
H402   H     0.59367   0.03648   0.45075   0.00000  Uiso   1.00
H403   H     0.30595   0.90727   0.30787   0.00000  Uiso   1.00
H404   H     0.48357   0.78545   0.70256   0.00000  Uiso   1.00
H405   H     0.71527   0.10890   0.40803   0.00000  Uiso   1.00
O406   O     0.28483   0.81450   0.21905   0.00000  Uiso   1.00
O407   O     0.51786   0.65468   0.73687   0.00000  Uiso   1.00
O408   O     0.82185   0.07904   0.35045   0.00000  Uiso   1.00
N409   N     0.38009   0.77911   0.26110   0.00000  Uiso   1.00
N410   N     0.54614   0.66520   0.63011   0.00000  Uiso   1.00
N411   N     0.76277   0.96760   0.35477   0.00000  Uiso   1.00
N412   N     0.33713   0.87000   0.30133   0.00000  Uiso   1.00
N413   N     0.50318   0.75610   0.67034   0.00000  Uiso   1.00
N414   N     0.71981   0.05849   0.39499   0.00000  Uiso   1.00
C415   C     0.83648   0.28709   0.05462   0.00000  Uiso   1.00
C416   C     0.81029   0.31210   0.99115   0.00000  Uiso   1.00
C417   C     0.74876   0.29636   0.97074   0.00000  Uiso   1.00
C418   C     0.73413   0.32429   0.91112   0.00000  Uiso   1.00
C419   C     0.68658   0.35667   0.81830   0.00000  Uiso   1.00
C420   C     0.89478   0.24697   0.03980   0.00000  Uiso   1.00
C421   C     0.90428   0.17648   0.06031   0.00000  Uiso   1.00
C422   C     0.96077   0.14959   0.04165   0.00000  Uiso   1.00
C423   C     0.04441   0.08088   0.02440   0.00000  Uiso   1.00
C424   C     0.86154   0.35538   0.08522   0.00000  Uiso   1.00
C425   C     0.84311   0.37603   0.14393   0.00000  Uiso   1.00
C426   C     0.87164   0.44041   0.16351   0.00000  Uiso   1.00
C427   C     0.90368   0.54002   0.21678   0.00000  Uiso   1.00
C428   C     0.91992   0.36469   0.98502   0.00000  Uiso   1.00
C429   C     0.85562   0.35424   0.95334   0.00000  Uiso   1.00
C430   C     0.84108   0.38221   0.89373   0.00000  Uiso   1.00
C431   C     0.77953   0.36651   0.87325   0.00000  Uiso   1.00
C432   C     0.94010   0.28911   0.00199   0.00000  Uiso   1.00
C433   C     0.99660   0.26232   0.98330   0.00000  Uiso   1.00
C434   C     0.00618   0.19181   0.00377   0.00000  Uiso   1.00
C435   C     0.90687   0.39753   0.04741   0.00000  Uiso   1.00
C436   C     0.93543   0.46188   0.06691   0.00000  Uiso   1.00
C437   C     0.91705   0.48263   0.12564   0.00000  Uiso   1.00
H438   H     0.80119   0.25428   0.08405   0.00000  Uiso   1.00
H439   H     0.71369   0.26373   0.00001   0.00000  Uiso   1.00
H440   H     0.86919   0.14388   0.08957   0.00000  Uiso   1.00
H441   H     0.80804   0.34340   0.17317   0.00000  Uiso   1.00
H442   H     0.63668   0.29278   0.89015   0.00000  Uiso   1.00
H443   H     0.96457   0.04007   0.07901   0.00000  Uiso   1.00
H444   H     0.83561   0.46080   0.25530   0.00000  Uiso   1.00
H445   H     0.95521   0.39750   0.95558   0.00000  Uiso   1.00
H446   H     0.87616   0.41482   0.86449   0.00000  Uiso   1.00
H447   H     0.03166   0.29496   0.95405   0.00000  Uiso   1.00
H448   H     0.97051   0.49448   0.03764   0.00000  Uiso   1.00
H449   H     0.76855   0.41540   0.78016   0.00000  Uiso   1.00
H450   H     0.09644   0.16269   0.96901   0.00000  Uiso   1.00
H451   H     0.96748   0.58342   0.14530   0.00000  Uiso   1.00
O452   O     0.64784   0.36288   0.77754   0.00000  Uiso   1.00
O453   O     0.07802   0.03133   0.02532   0.00000  Uiso   1.00
O454   O     0.90883   0.58332   0.25660   0.00000  Uiso   1.00
N455   N     0.67856   0.31928   0.87677   0.00000  Uiso   1.00
N456   N     0.98511   0.08300   0.05333   0.00000  Uiso   1.00
N457   N     0.86456   0.47634   0.21815   0.00000  Uiso   1.00
N458   N     0.74952   0.38526   0.81758   0.00000  Uiso   1.00
N459   N     0.05607   0.14898   0.99414   0.00000  Uiso   1.00
N460   N     0.93552   0.54232   0.15896   0.00000  Uiso   1.00
C461   C     0.29822   0.96812   0.85564   0.00000  Uiso   1.00
C462   C     0.31885   0.90223   0.82388   0.00000  Uiso   1.00
C463   C     0.29314   0.87505   0.76963   0.00000  Uiso   1.00
C464   C     0.31857   0.81428   0.74806   0.00000  Uiso   1.00
C465   C     0.34307   0.71688   0.69396   0.00000  Uiso   1.00
C466   C     0.28003   0.94217   0.92334   0.00000  Uiso   1.00
C467   C     0.22168   0.94858   0.95272   0.00000  Uiso   1.00
C468   C     0.21444   0.92144   0.01488   0.00000  Uiso   1.00
C469   C     0.17870   0.88609   0.11521   0.00000  Uiso   1.00
C470   C     0.35805   0.01912   0.85957   0.00000  Uiso   1.00
C471   C     0.36530   0.09023   0.83533   0.00000  Uiso   1.00
C472   C     0.42375   0.12789   0.84382   0.00000  Uiso   1.00
C473   C     0.50914   0.21201   0.84513   0.00000  Uiso   1.00
C474   C     0.38910   0.90854   0.91382   0.00000  Uiso   1.00
C475   C     0.36821   0.86987   0.85549   0.00000  Uiso   1.00
C476   C     0.39369   0.80913   0.83400   0.00000  Uiso   1.00
C477   C     0.36802   0.78186   0.77972   0.00000  Uiso   1.00
C478   C     0.32939   0.90981   0.95495   0.00000  Uiso   1.00
C479   C     0.32223   0.88266   0.01709   0.00000  Uiso   1.00
C480   C     0.26389   0.88902   0.04654   0.00000  Uiso   1.00
C481   C     0.40741   0.98676   0.89117   0.00000  Uiso   1.00
C482   C     0.46586   0.02431   0.89970   0.00000  Uiso   1.00
C483   C     0.47320   0.09547   0.87548   0.00000  Uiso   1.00
H484   H     0.25978   0.99331   0.83104   0.00000  Uiso   1.00
H485   H     0.25493   0.90010   0.74519   0.00000  Uiso   1.00
H486   H     0.18350   0.97363   0.92825   0.00000  Uiso   1.00
H487   H     0.32709   0.11526   0.81088   0.00000  Uiso   1.00
H488   H     0.27131   0.78248   0.66395   0.00000  Uiso   1.00
H489   H     0.12069   0.93753   0.04996   0.00000  Uiso   1.00
H490   H     0.42349   0.23619   0.80247   0.00000  Uiso   1.00
H491   H     0.42753   0.88334   0.93843   0.00000  Uiso   1.00
H492   H     0.43189   0.78410   0.85846   0.00000  Uiso   1.00
H493   H     0.36045   0.85763   0.04153   0.00000  Uiso   1.00
H494   H     0.50404   0.99925   0.92416   0.00000  Uiso   1.00
H495   H     0.41493   0.68832   0.75589   0.00000  Uiso   1.00
H496   H     0.26430   0.84338   0.14190   0.00000  Uiso   1.00
H497   H     0.56711   0.14204   0.89440   0.00000  Uiso   1.00
O498   O     0.34294   0.67208   0.65539   0.00000  Uiso   1.00
O499   O     0.14534   0.87553   0.16182   0.00000  Uiso   1.00
O500   O     0.54261   0.26735   0.83711   0.00000  Uiso   1.00
N501   N     0.30452   0.77395   0.69656   0.00000  Uiso   1.00
N502   N     0.16369   0.91890   0.05745   0.00000  Uiso   1.00
N503   N     0.44679   0.19813   0.82608   0.00000  Uiso   1.00
N504   N     0.38180   0.72328   0.74603   0.00000  Uiso   1.00
N505   N     0.24097   0.86824   0.10692   0.00000  Uiso   1.00
N506   N     0.52407   0.14747   0.87555   0.00000  Uiso   1.00
C507   C     0.93843   0.74635   0.40696   0.00000  Uiso   1.00
C508   C     0.87904   0.73167   0.44895   0.00000  Uiso   1.00
C509   C     0.83893   0.66878   0.45241   0.00000  Uiso   1.00
C510   C     0.78707   0.66591   0.49372   0.00000  Uiso   1.00
C511   C     0.69655   0.63431   0.55334   0.00000  Uiso   1.00
C512   C     0.92893   0.81547   0.36713   0.00000  Uiso   1.00
C513   C     0.93077   0.82303   0.30178   0.00000  Uiso   1.00
C514   C     0.92093   0.89070   0.27421   0.00000  Uiso   1.00
C515   C     0.90790   0.98922   0.20680   0.00000  Uiso   1.00
C516   C     0.99310   0.76505   0.45087   0.00000  Uiso   1.00
C517   C     0.04891   0.73023   0.45594   0.00000  Uiso   1.00
C518   C     0.09311   0.75546   0.49887   0.00000  Uiso   1.00
C519   C     0.17972   0.77569   0.56148   0.00000  Uiso   1.00
C520   C     0.91767   0.85307   0.47419   0.00000  Uiso   1.00
C521   C     0.86776   0.78964   0.48546   0.00000  Uiso   1.00
C522   C     0.81596   0.78686   0.52678   0.00000  Uiso   1.00
C523   C     0.77578   0.72398   0.53030   0.00000  Uiso   1.00
C524   C     0.91765   0.87343   0.40364   0.00000  Uiso   1.00
C525   C     0.90780   0.94111   0.37616   0.00000  Uiso   1.00
C526   C     0.90963   0.94878   0.31079   0.00000  Uiso   1.00
C527   C     0.98183   0.82301   0.48739   0.00000  Uiso   1.00
C528   C     0.02594   0.84831   0.53032   0.00000  Uiso   1.00
C529   C     0.08181   0.81354   0.53545   0.00000  Uiso   1.00
H530   H     0.94721   0.70122   0.37853   0.00000  Uiso   1.00
H531   H     0.84766   0.62394   0.42413   0.00000  Uiso   1.00
H532   H     0.93950   0.77817   0.27354   0.00000  Uiso   1.00
H533   H     0.05762   0.68538   0.42767   0.00000  Uiso   1.00
H534   H     0.73232   0.56382   0.49078   0.00000  Uiso   1.00
H535   H     0.92598   0.88904   0.17324   0.00000  Uiso   1.00
H536   H     0.17507   0.69337   0.49826   0.00000  Uiso   1.00
H537   H     0.90889   0.89820   0.50262   0.00000  Uiso   1.00
H538   H     0.80725   0.83173   0.55504   0.00000  Uiso   1.00
H539   H     0.89908   0.98596   0.40443   0.00000  Uiso   1.00
H540   H     0.01720   0.89317   0.55857   0.00000  Uiso   1.00
H541   H     0.69951   0.73248   0.59702   0.00000  Uiso   1.00
H542   H     0.89318   0.05769   0.27948   0.00000  Uiso   1.00
H543   H     0.14226   0.86202   0.60450   0.00000  Uiso   1.00
O544   O     0.64972   0.60087   0.57613   0.00000  Uiso   1.00
O545   O     0.90382   0.02754   0.15953   0.00000  Uiso   1.00
O546   O     0.23061   0.77083   0.58594   0.00000  Uiso   1.00
N547   N     0.73855   0.61263   0.50860   0.00000  Uiso   1.00
N548   N     0.91961   0.91668   0.21172   0.00000  Uiso   1.00
N549   N     0.15249   0.73377   0.51557   0.00000  Uiso   1.00
N550   N     0.72090   0.70338   0.56577   0.00000  Uiso   1.00
N551   N     0.90196   0.00743   0.26888   0.00000  Uiso   1.00
N552   N     0.13483   0.82452   0.57274   0.00000  Uiso   1.00
