data_job_02483
_audit_creation_date              2018-12-19
_audit_creation_method            'Materials Studio'
_symmetry_space_group_name_H-M    'P1'
_symmetry_Int_Tables_number       1
_symmetry_cell_setting            triclinic
loop_
_symmetry_equiv_pos_as_xyz
  x,y,z
_cell_length_a                    40.3174
_cell_length_b                    7.1816
_cell_length_c                    39.7476
_cell_angle_alpha                 90.0000
_cell_angle_beta                  145.3617
_cell_angle_gamma                 90.0000
loop_
_atom_site_label
_atom_site_type_symbol
_atom_site_fract_x
_atom_site_fract_y
_atom_site_fract_z
_atom_site_U_iso_or_equiv
_atom_site_adp_type
_atom_site_occupancy
C1     C     0.31328   0.65657   0.89437   0.00000  Uiso   1.00
C2     C     0.26609   0.73887   0.83239   0.00000  Uiso   1.00
C3     C     0.24267   0.65465   0.78447   0.00000  Uiso   1.00
C4     C     0.19988   0.75268   0.73150   0.00000  Uiso   1.00
C5     C     0.12943   0.85367   0.63599   0.00000  Uiso   1.00
C6     C     0.28767   0.65352   0.90841   0.00000  Uiso   1.00
C7     C     0.28240   0.49755   0.92440   0.00000  Uiso   1.00
C8     C     0.25779   0.52375   0.93543   0.00000  Uiso   1.00
C9     C     0.22088   0.49227   0.95797   0.00000  Uiso   1.00
C10    C     0.36254   0.79923   0.93625   0.00000  Uiso   1.00
C11    C     0.42023   0.76578   0.97567   0.00000  Uiso   1.00
C12    C     0.45867   0.91465   0.01015   0.00000  Uiso   1.00
C13    C     0.53801   0.10941   0.07592   0.00000  Uiso   1.00
C14    C     0.27894   0.98041   0.88552   0.00000  Uiso   1.00
C15    C     0.24744   0.91477   0.82759   0.00000  Uiso   1.00
C16    C     0.20468   0.01295   0.77468   0.00000  Uiso   1.00
C17    C     0.18120   0.92890   0.72669   0.00000  Uiso   1.00
C18    C     0.26902   0.82941   0.90360   0.00000  Uiso   1.00
C19    C     0.24442   0.85585   0.91461   0.00000  Uiso   1.00
C20    C     0.23911   0.69997   0.93062   0.00000  Uiso   1.00
C21    C     0.34389   0.97514   0.93144   0.00000  Uiso   1.00
C22    C     0.38224   0.12408   0.96587   0.00000  Uiso   1.00
C23    C     0.43998   0.09087   0.00534   0.00000  Uiso   1.00
H24    H     0.32779   0.51962   0.89811   0.00000  Uiso   1.00
H25    H     0.25711   0.51852   0.78821   0.00000  Uiso   1.00
H26    H     0.29684   0.36145   0.92812   0.00000  Uiso   1.00
H27    H     0.43465   0.62964   0.97938   0.00000  Uiso   1.00
H28    H     0.17050   0.59484   0.66423   0.00000  Uiso   1.00
H29    H     0.25430   0.26367   0.95927   0.00000  Uiso   1.00
H30    H     0.54490   0.82919   0.06735   0.00000  Uiso   1.00
H31    H     0.26442   0.11736   0.88178   0.00000  Uiso   1.00
H32    H     0.19026   0.14907   0.77097   0.00000  Uiso   1.00
H33    H     0.22999   0.99200   0.91089   0.00000  Uiso   1.00
H34    H     0.36780   0.26018   0.96214   0.00000  Uiso   1.00
H35    H     0.11624   0.10662   0.65024   0.00000  Uiso   1.00
H36    H     0.20004   0.77544   0.94529   0.00000  Uiso   1.00
H37    H     0.49064   0.34097   0.05336   0.00000  Uiso   1.00
O38    O     0.09571   0.86077   0.58463   0.00000  Uiso   1.00
O39    O     0.20567   0.42630   0.97173   0.00000  Uiso   1.00
O40    O     0.58692   0.16825   0.11352   0.00000  Uiso   1.00
N41    N     0.16791   0.71095   0.67615   0.00000  Uiso   1.00
N42    N     0.24625   0.40132   0.95198   0.00000  Uiso   1.00
N43    N     0.51794   0.93002   0.05304   0.00000  Uiso   1.00
N44    N     0.13872   0.98634   0.66862   0.00000  Uiso   1.00
N45    N     0.21706   0.67670   0.94446   0.00000  Uiso   1.00
N46    N     0.48874   0.20541   0.04551   0.00000  Uiso   1.00
C47    C     0.81328   0.15657   0.89437   0.00000  Uiso   1.00
C48    C     0.76609   0.23887   0.83239   0.00000  Uiso   1.00
C49    C     0.74267   0.15465   0.78447   0.00000  Uiso   1.00
C50    C     0.69988   0.25268   0.73150   0.00000  Uiso   1.00
C51    C     0.62943   0.35367   0.63599   0.00000  Uiso   1.00
C52    C     0.78767   0.15352   0.90841   0.00000  Uiso   1.00
C53    C     0.78240   0.99755   0.92440   0.00000  Uiso   1.00
C54    C     0.75779   0.02375   0.93543   0.00000  Uiso   1.00
C55    C     0.72088   0.99227   0.95797   0.00000  Uiso   1.00
C56    C     0.86254   0.29923   0.93625   0.00000  Uiso   1.00
C57    C     0.92023   0.26578   0.97567   0.00000  Uiso   1.00
C58    C     0.95867   0.41465   0.01015   0.00000  Uiso   1.00
C59    C     0.03801   0.60941   0.07592   0.00000  Uiso   1.00
C60    C     0.77894   0.48041   0.88552   0.00000  Uiso   1.00
C61    C     0.74744   0.41477   0.82759   0.00000  Uiso   1.00
C62    C     0.70468   0.51295   0.77468   0.00000  Uiso   1.00
C63    C     0.68120   0.42890   0.72669   0.00000  Uiso   1.00
C64    C     0.76902   0.32941   0.90360   0.00000  Uiso   1.00
C65    C     0.74442   0.35585   0.91461   0.00000  Uiso   1.00
C66    C     0.73911   0.19997   0.93062   0.00000  Uiso   1.00
C67    C     0.84389   0.47514   0.93144   0.00000  Uiso   1.00
C68    C     0.88224   0.62408   0.96587   0.00000  Uiso   1.00
C69    C     0.93998   0.59087   0.00534   0.00000  Uiso   1.00
H70    H     0.82779   0.01962   0.89811   0.00000  Uiso   1.00
H71    H     0.75711   0.01852   0.78821   0.00000  Uiso   1.00
H72    H     0.79684   0.86145   0.92812   0.00000  Uiso   1.00
H73    H     0.93465   0.12964   0.97938   0.00000  Uiso   1.00
H74    H     0.67050   0.09484   0.66423   0.00000  Uiso   1.00
H75    H     0.75430   0.76367   0.95927   0.00000  Uiso   1.00
H76    H     0.04490   0.32919   0.06735   0.00000  Uiso   1.00
H77    H     0.76442   0.61736   0.88178   0.00000  Uiso   1.00
H78    H     0.69026   0.64907   0.77097   0.00000  Uiso   1.00
H79    H     0.72999   0.49200   0.91089   0.00000  Uiso   1.00
H80    H     0.86780   0.76018   0.96214   0.00000  Uiso   1.00
H81    H     0.61624   0.60662   0.65024   0.00000  Uiso   1.00
H82    H     0.70004   0.27544   0.94529   0.00000  Uiso   1.00
H83    H     0.99064   0.84097   0.05336   0.00000  Uiso   1.00
O84    O     0.59571   0.36077   0.58463   0.00000  Uiso   1.00
O85    O     0.70567   0.92630   0.97173   0.00000  Uiso   1.00
O86    O     0.08692   0.66825   0.11352   0.00000  Uiso   1.00
N87    N     0.66791   0.21095   0.67615   0.00000  Uiso   1.00
N88    N     0.74625   0.90132   0.95198   0.00000  Uiso   1.00
N89    N     0.01794   0.43002   0.05304   0.00000  Uiso   1.00
N90    N     0.63872   0.48634   0.66862   0.00000  Uiso   1.00
N91    N     0.71706   0.17670   0.94446   0.00000  Uiso   1.00
N92    N     0.98874   0.70541   0.04551   0.00000  Uiso   1.00
C93    C     0.68672   0.65657   0.60563   0.00000  Uiso   1.00
C94    C     0.73391   0.73887   0.66761   0.00000  Uiso   1.00
C95    C     0.75733   0.65465   0.71553   0.00000  Uiso   1.00
C96    C     0.80012   0.75268   0.76850   0.00000  Uiso   1.00
C97    C     0.87057   0.85367   0.86401   0.00000  Uiso   1.00
C98    C     0.71233   0.65352   0.59159   0.00000  Uiso   1.00
C99    C     0.71760   0.49755   0.57560   0.00000  Uiso   1.00
C100   C     0.74221   0.52375   0.56457   0.00000  Uiso   1.00
C101   C     0.77912   0.49227   0.54203   0.00000  Uiso   1.00
C102   C     0.63746   0.79923   0.56375   0.00000  Uiso   1.00
C103   C     0.57977   0.76578   0.52433   0.00000  Uiso   1.00
C104   C     0.54133   0.91465   0.48985   0.00000  Uiso   1.00
C105   C     0.46199   0.10941   0.42408   0.00000  Uiso   1.00
C106   C     0.72106   0.98041   0.61448   0.00000  Uiso   1.00
C107   C     0.75256   0.91477   0.67241   0.00000  Uiso   1.00
C108   C     0.79532   0.01295   0.72532   0.00000  Uiso   1.00
C109   C     0.81880   0.92890   0.77331   0.00000  Uiso   1.00
C110   C     0.73098   0.82941   0.59640   0.00000  Uiso   1.00
C111   C     0.75558   0.85585   0.58539   0.00000  Uiso   1.00
C112   C     0.76089   0.69997   0.56938   0.00000  Uiso   1.00
C113   C     0.65611   0.97514   0.56856   0.00000  Uiso   1.00
C114   C     0.61776   0.12408   0.53413   0.00000  Uiso   1.00
C115   C     0.56002   0.09087   0.49466   0.00000  Uiso   1.00
H116   H     0.67221   0.51962   0.60189   0.00000  Uiso   1.00
H117   H     0.74289   0.51852   0.71179   0.00000  Uiso   1.00
H118   H     0.70316   0.36145   0.57188   0.00000  Uiso   1.00
H119   H     0.56535   0.62964   0.52062   0.00000  Uiso   1.00
H120   H     0.82950   0.59484   0.83577   0.00000  Uiso   1.00
H121   H     0.74570   0.26367   0.54073   0.00000  Uiso   1.00
H122   H     0.45510   0.82919   0.43265   0.00000  Uiso   1.00
H123   H     0.73558   0.11736   0.61822   0.00000  Uiso   1.00
H124   H     0.80974   0.14907   0.72903   0.00000  Uiso   1.00
H125   H     0.77001   0.99200   0.58911   0.00000  Uiso   1.00
H126   H     0.63220   0.26018   0.53786   0.00000  Uiso   1.00
H127   H     0.88376   0.10662   0.84976   0.00000  Uiso   1.00
H128   H     0.79996   0.77544   0.55471   0.00000  Uiso   1.00
H129   H     0.50936   0.34097   0.44664   0.00000  Uiso   1.00
O130   O     0.90429   0.86077   0.91537   0.00000  Uiso   1.00
O131   O     0.79433   0.42630   0.52827   0.00000  Uiso   1.00
O132   O     0.41308   0.16825   0.38648   0.00000  Uiso   1.00
N133   N     0.83209   0.71095   0.82385   0.00000  Uiso   1.00
N134   N     0.75375   0.40132   0.54802   0.00000  Uiso   1.00
N135   N     0.48206   0.93002   0.44696   0.00000  Uiso   1.00
N136   N     0.86128   0.98634   0.83138   0.00000  Uiso   1.00
N137   N     0.78294   0.67670   0.55554   0.00000  Uiso   1.00
N138   N     0.51126   0.20541   0.45449   0.00000  Uiso   1.00
C139   C     0.18672   0.15657   0.60563   0.00000  Uiso   1.00
C140   C     0.23391   0.23887   0.66761   0.00000  Uiso   1.00
C141   C     0.25733   0.15465   0.71553   0.00000  Uiso   1.00
C142   C     0.30012   0.25268   0.76850   0.00000  Uiso   1.00
C143   C     0.37057   0.35367   0.86401   0.00000  Uiso   1.00
C144   C     0.21233   0.15352   0.59159   0.00000  Uiso   1.00
C145   C     0.21760   0.99755   0.57560   0.00000  Uiso   1.00
C146   C     0.24221   0.02375   0.56457   0.00000  Uiso   1.00
C147   C     0.27912   0.99227   0.54203   0.00000  Uiso   1.00
C148   C     0.13746   0.29923   0.56375   0.00000  Uiso   1.00
C149   C     0.07977   0.26578   0.52433   0.00000  Uiso   1.00
C150   C     0.04133   0.41465   0.48985   0.00000  Uiso   1.00
C151   C     0.96199   0.60941   0.42408   0.00000  Uiso   1.00
C152   C     0.22106   0.48041   0.61448   0.00000  Uiso   1.00
C153   C     0.25256   0.41477   0.67241   0.00000  Uiso   1.00
C154   C     0.29532   0.51295   0.72532   0.00000  Uiso   1.00
C155   C     0.31880   0.42890   0.77331   0.00000  Uiso   1.00
C156   C     0.23098   0.32941   0.59640   0.00000  Uiso   1.00
C157   C     0.25558   0.35585   0.58539   0.00000  Uiso   1.00
C158   C     0.26089   0.19997   0.56938   0.00000  Uiso   1.00
C159   C     0.15611   0.47514   0.56856   0.00000  Uiso   1.00
C160   C     0.11776   0.62408   0.53413   0.00000  Uiso   1.00
C161   C     0.06002   0.59087   0.49466   0.00000  Uiso   1.00
H162   H     0.17221   0.01962   0.60189   0.00000  Uiso   1.00
H163   H     0.24289   0.01852   0.71179   0.00000  Uiso   1.00
H164   H     0.20316   0.86145   0.57188   0.00000  Uiso   1.00
H165   H     0.06535   0.12964   0.52062   0.00000  Uiso   1.00
H166   H     0.32950   0.09484   0.83577   0.00000  Uiso   1.00
H167   H     0.24570   0.76367   0.54073   0.00000  Uiso   1.00
H168   H     0.95510   0.32919   0.43265   0.00000  Uiso   1.00
H169   H     0.23558   0.61736   0.61822   0.00000  Uiso   1.00
H170   H     0.30974   0.64907   0.72903   0.00000  Uiso   1.00
H171   H     0.27001   0.49200   0.58911   0.00000  Uiso   1.00
H172   H     0.13220   0.76018   0.53786   0.00000  Uiso   1.00
H173   H     0.38376   0.60662   0.84976   0.00000  Uiso   1.00
H174   H     0.29996   0.27544   0.55471   0.00000  Uiso   1.00
H175   H     0.00936   0.84097   0.44664   0.00000  Uiso   1.00
O176   O     0.40429   0.36077   0.91537   0.00000  Uiso   1.00
O177   O     0.29433   0.92630   0.52827   0.00000  Uiso   1.00
O178   O     0.91308   0.66825   0.38648   0.00000  Uiso   1.00
N179   N     0.33209   0.21095   0.82385   0.00000  Uiso   1.00
N180   N     0.25375   0.90132   0.54802   0.00000  Uiso   1.00
N181   N     0.98206   0.43002   0.44696   0.00000  Uiso   1.00
N182   N     0.36128   0.48634   0.83138   0.00000  Uiso   1.00
N183   N     0.28294   0.17670   0.55554   0.00000  Uiso   1.00
N184   N     0.01126   0.70541   0.45449   0.00000  Uiso   1.00
C185   C     0.68672   0.34343   0.10563   0.00000  Uiso   1.00
C186   C     0.73391   0.26113   0.16761   0.00000  Uiso   1.00
C187   C     0.75733   0.34535   0.21553   0.00000  Uiso   1.00
C188   C     0.80012   0.24732   0.26850   0.00000  Uiso   1.00
C189   C     0.87057   0.14633   0.36401   0.00000  Uiso   1.00
C190   C     0.71233   0.34648   0.09159   0.00000  Uiso   1.00
C191   C     0.71760   0.50245   0.07560   0.00000  Uiso   1.00
C192   C     0.74221   0.47625   0.06457   0.00000  Uiso   1.00
C193   C     0.77912   0.50773   0.04203   0.00000  Uiso   1.00
C194   C     0.63746   0.20077   0.06375   0.00000  Uiso   1.00
C195   C     0.57977   0.23422   0.02433   0.00000  Uiso   1.00
C196   C     0.54133   0.08535   0.98985   0.00000  Uiso   1.00
C197   C     0.46199   0.89059   0.92408   0.00000  Uiso   1.00
C198   C     0.72106   0.01959   0.11448   0.00000  Uiso   1.00
C199   C     0.75256   0.08523   0.17241   0.00000  Uiso   1.00
C200   C     0.79532   0.98705   0.22532   0.00000  Uiso   1.00
C201   C     0.81880   0.07110   0.27331   0.00000  Uiso   1.00
C202   C     0.73098   0.17059   0.09640   0.00000  Uiso   1.00
C203   C     0.75558   0.14415   0.08539   0.00000  Uiso   1.00
C204   C     0.76089   0.30003   0.06938   0.00000  Uiso   1.00
C205   C     0.65611   0.02486   0.06856   0.00000  Uiso   1.00
C206   C     0.61776   0.87592   0.03413   0.00000  Uiso   1.00
C207   C     0.56002   0.90913   0.99466   0.00000  Uiso   1.00
H208   H     0.67221   0.48038   0.10189   0.00000  Uiso   1.00
H209   H     0.74289   0.48148   0.21179   0.00000  Uiso   1.00
H210   H     0.70316   0.63855   0.07188   0.00000  Uiso   1.00
H211   H     0.56535   0.37036   0.02062   0.00000  Uiso   1.00
H212   H     0.82950   0.40516   0.33577   0.00000  Uiso   1.00
H213   H     0.74570   0.73633   0.04073   0.00000  Uiso   1.00
H214   H     0.45510   0.17081   0.93265   0.00000  Uiso   1.00
H215   H     0.73558   0.88264   0.11822   0.00000  Uiso   1.00
H216   H     0.80974   0.85093   0.22903   0.00000  Uiso   1.00
H217   H     0.77001   0.00800   0.08911   0.00000  Uiso   1.00
H218   H     0.63220   0.73982   0.03786   0.00000  Uiso   1.00
H219   H     0.88376   0.89338   0.34976   0.00000  Uiso   1.00
H220   H     0.79996   0.22456   0.05471   0.00000  Uiso   1.00
H221   H     0.50936   0.65903   0.94664   0.00000  Uiso   1.00
O222   O     0.90429   0.13923   0.41537   0.00000  Uiso   1.00
O223   O     0.79433   0.57370   0.02827   0.00000  Uiso   1.00
O224   O     0.41308   0.83175   0.88648   0.00000  Uiso   1.00
N225   N     0.83209   0.28905   0.32385   0.00000  Uiso   1.00
N226   N     0.75375   0.59868   0.04802   0.00000  Uiso   1.00
N227   N     0.48206   0.06998   0.94696   0.00000  Uiso   1.00
N228   N     0.86128   0.01366   0.33138   0.00000  Uiso   1.00
N229   N     0.78294   0.32330   0.05554   0.00000  Uiso   1.00
N230   N     0.51126   0.79459   0.95449   0.00000  Uiso   1.00
C231   C     0.18672   0.84343   0.10563   0.00000  Uiso   1.00
C232   C     0.23391   0.76113   0.16761   0.00000  Uiso   1.00
C233   C     0.25733   0.84535   0.21553   0.00000  Uiso   1.00
C234   C     0.30012   0.74732   0.26850   0.00000  Uiso   1.00
C235   C     0.37057   0.64633   0.36401   0.00000  Uiso   1.00
C236   C     0.21233   0.84648   0.09159   0.00000  Uiso   1.00
C237   C     0.21760   0.00245   0.07560   0.00000  Uiso   1.00
C238   C     0.24221   0.97625   0.06457   0.00000  Uiso   1.00
C239   C     0.27912   0.00773   0.04203   0.00000  Uiso   1.00
C240   C     0.13746   0.70077   0.06375   0.00000  Uiso   1.00
C241   C     0.07977   0.73422   0.02433   0.00000  Uiso   1.00
C242   C     0.04133   0.58535   0.98985   0.00000  Uiso   1.00
C243   C     0.96199   0.39059   0.92408   0.00000  Uiso   1.00
C244   C     0.22106   0.51959   0.11448   0.00000  Uiso   1.00
C245   C     0.25256   0.58523   0.17241   0.00000  Uiso   1.00
C246   C     0.29532   0.48705   0.22532   0.00000  Uiso   1.00
C247   C     0.31880   0.57110   0.27331   0.00000  Uiso   1.00
C248   C     0.23098   0.67059   0.09640   0.00000  Uiso   1.00
C249   C     0.25558   0.64415   0.08539   0.00000  Uiso   1.00
C250   C     0.26089   0.80003   0.06938   0.00000  Uiso   1.00
C251   C     0.15611   0.52486   0.06856   0.00000  Uiso   1.00
C252   C     0.11776   0.37592   0.03413   0.00000  Uiso   1.00
C253   C     0.06002   0.40913   0.99466   0.00000  Uiso   1.00
H254   H     0.17221   0.98038   0.10189   0.00000  Uiso   1.00
H255   H     0.24289   0.98148   0.21179   0.00000  Uiso   1.00
H256   H     0.20316   0.13855   0.07188   0.00000  Uiso   1.00
H257   H     0.06535   0.87036   0.02062   0.00000  Uiso   1.00
H258   H     0.32950   0.90516   0.33577   0.00000  Uiso   1.00
H259   H     0.24570   0.23633   0.04073   0.00000  Uiso   1.00
H260   H     0.95510   0.67081   0.93265   0.00000  Uiso   1.00
H261   H     0.23558   0.38264   0.11822   0.00000  Uiso   1.00
H262   H     0.30974   0.35093   0.22903   0.00000  Uiso   1.00
H263   H     0.27001   0.50800   0.08911   0.00000  Uiso   1.00
H264   H     0.13220   0.23982   0.03786   0.00000  Uiso   1.00
H265   H     0.38376   0.39338   0.34976   0.00000  Uiso   1.00
H266   H     0.29996   0.72456   0.05471   0.00000  Uiso   1.00
H267   H     0.00936   0.15903   0.94664   0.00000  Uiso   1.00
O268   O     0.40429   0.63923   0.41537   0.00000  Uiso   1.00
O269   O     0.29433   0.07370   0.02827   0.00000  Uiso   1.00
O270   O     0.91308   0.33175   0.88648   0.00000  Uiso   1.00
N271   N     0.33209   0.78905   0.32385   0.00000  Uiso   1.00
N272   N     0.25375   0.09868   0.04802   0.00000  Uiso   1.00
N273   N     0.98206   0.56998   0.94696   0.00000  Uiso   1.00
N274   N     0.36128   0.51366   0.33138   0.00000  Uiso   1.00
N275   N     0.28294   0.82330   0.05554   0.00000  Uiso   1.00
N276   N     0.01126   0.29459   0.95449   0.00000  Uiso   1.00
C277   C     0.31328   0.34343   0.39437   0.00000  Uiso   1.00
C278   C     0.26609   0.26113   0.33239   0.00000  Uiso   1.00
C279   C     0.24267   0.34535   0.28447   0.00000  Uiso   1.00
C280   C     0.19988   0.24732   0.23150   0.00000  Uiso   1.00
C281   C     0.12943   0.14633   0.13599   0.00000  Uiso   1.00
C282   C     0.28767   0.34648   0.40841   0.00000  Uiso   1.00
C283   C     0.28240   0.50245   0.42440   0.00000  Uiso   1.00
C284   C     0.25779   0.47625   0.43543   0.00000  Uiso   1.00
C285   C     0.22088   0.50773   0.45797   0.00000  Uiso   1.00
C286   C     0.36254   0.20077   0.43625   0.00000  Uiso   1.00
C287   C     0.42023   0.23422   0.47567   0.00000  Uiso   1.00
C288   C     0.45867   0.08535   0.51015   0.00000  Uiso   1.00
C289   C     0.53801   0.89059   0.57592   0.00000  Uiso   1.00
C290   C     0.27894   0.01959   0.38552   0.00000  Uiso   1.00
C291   C     0.24744   0.08523   0.32759   0.00000  Uiso   1.00
C292   C     0.20468   0.98705   0.27468   0.00000  Uiso   1.00
C293   C     0.18120   0.07110   0.22669   0.00000  Uiso   1.00
C294   C     0.26902   0.17059   0.40360   0.00000  Uiso   1.00
C295   C     0.24442   0.14415   0.41461   0.00000  Uiso   1.00
C296   C     0.23911   0.30003   0.43062   0.00000  Uiso   1.00
C297   C     0.34389   0.02486   0.43144   0.00000  Uiso   1.00
C298   C     0.38224   0.87592   0.46587   0.00000  Uiso   1.00
C299   C     0.43998   0.90913   0.50534   0.00000  Uiso   1.00
H300   H     0.32779   0.48038   0.39811   0.00000  Uiso   1.00
H301   H     0.25711   0.48148   0.28821   0.00000  Uiso   1.00
H302   H     0.29684   0.63855   0.42812   0.00000  Uiso   1.00
H303   H     0.43465   0.37036   0.47938   0.00000  Uiso   1.00
H304   H     0.17050   0.40516   0.16423   0.00000  Uiso   1.00
H305   H     0.25430   0.73633   0.45927   0.00000  Uiso   1.00
H306   H     0.54490   0.17081   0.56735   0.00000  Uiso   1.00
H307   H     0.26442   0.88264   0.38178   0.00000  Uiso   1.00
H308   H     0.19026   0.85093   0.27097   0.00000  Uiso   1.00
H309   H     0.22999   0.00800   0.41089   0.00000  Uiso   1.00
H310   H     0.36780   0.73982   0.46214   0.00000  Uiso   1.00
H311   H     0.11624   0.89338   0.15024   0.00000  Uiso   1.00
H312   H     0.20004   0.22456   0.44529   0.00000  Uiso   1.00
H313   H     0.49064   0.65903   0.55336   0.00000  Uiso   1.00
O314   O     0.09571   0.13923   0.08463   0.00000  Uiso   1.00
O315   O     0.20567   0.57370   0.47173   0.00000  Uiso   1.00
O316   O     0.58692   0.83175   0.61352   0.00000  Uiso   1.00
N317   N     0.16791   0.28905   0.17615   0.00000  Uiso   1.00
N318   N     0.24625   0.59868   0.45198   0.00000  Uiso   1.00
N319   N     0.51794   0.06998   0.55304   0.00000  Uiso   1.00
N320   N     0.13872   0.01366   0.16862   0.00000  Uiso   1.00
N321   N     0.21706   0.32330   0.44446   0.00000  Uiso   1.00
N322   N     0.48874   0.79459   0.54551   0.00000  Uiso   1.00
C323   C     0.81328   0.84343   0.39437   0.00000  Uiso   1.00
C324   C     0.76609   0.76113   0.33239   0.00000  Uiso   1.00
C325   C     0.74267   0.84535   0.28447   0.00000  Uiso   1.00
C326   C     0.69988   0.74732   0.23150   0.00000  Uiso   1.00
C327   C     0.62943   0.64633   0.13599   0.00000  Uiso   1.00
C328   C     0.78767   0.84648   0.40841   0.00000  Uiso   1.00
C329   C     0.78240   0.00245   0.42440   0.00000  Uiso   1.00
C330   C     0.75779   0.97625   0.43543   0.00000  Uiso   1.00
C331   C     0.72088   0.00773   0.45797   0.00000  Uiso   1.00
C332   C     0.86254   0.70077   0.43625   0.00000  Uiso   1.00
C333   C     0.92023   0.73422   0.47567   0.00000  Uiso   1.00
C334   C     0.95867   0.58535   0.51015   0.00000  Uiso   1.00
C335   C     0.03801   0.39059   0.57592   0.00000  Uiso   1.00
C336   C     0.77894   0.51959   0.38552   0.00000  Uiso   1.00
C337   C     0.74744   0.58523   0.32759   0.00000  Uiso   1.00
C338   C     0.70468   0.48705   0.27468   0.00000  Uiso   1.00
C339   C     0.68120   0.57110   0.22669   0.00000  Uiso   1.00
C340   C     0.76902   0.67059   0.40360   0.00000  Uiso   1.00
C341   C     0.74442   0.64415   0.41461   0.00000  Uiso   1.00
C342   C     0.73911   0.80003   0.43062   0.00000  Uiso   1.00
C343   C     0.84389   0.52486   0.43144   0.00000  Uiso   1.00
C344   C     0.88224   0.37592   0.46587   0.00000  Uiso   1.00
C345   C     0.93998   0.40913   0.50534   0.00000  Uiso   1.00
H346   H     0.82779   0.98038   0.39811   0.00000  Uiso   1.00
H347   H     0.75711   0.98148   0.28821   0.00000  Uiso   1.00
H348   H     0.79684   0.13855   0.42812   0.00000  Uiso   1.00
H349   H     0.93465   0.87036   0.47938   0.00000  Uiso   1.00
H350   H     0.67050   0.90516   0.16423   0.00000  Uiso   1.00
H351   H     0.75430   0.23633   0.45927   0.00000  Uiso   1.00
H352   H     0.04490   0.67081   0.56735   0.00000  Uiso   1.00
H353   H     0.76442   0.38264   0.38178   0.00000  Uiso   1.00
H354   H     0.69026   0.35093   0.27097   0.00000  Uiso   1.00
H355   H     0.72999   0.50800   0.41089   0.00000  Uiso   1.00
H356   H     0.86780   0.23982   0.46214   0.00000  Uiso   1.00
H357   H     0.61624   0.39338   0.15024   0.00000  Uiso   1.00
H358   H     0.70004   0.72456   0.44529   0.00000  Uiso   1.00
H359   H     0.99064   0.15903   0.55336   0.00000  Uiso   1.00
O360   O     0.59571   0.63923   0.08463   0.00000  Uiso   1.00
O361   O     0.70567   0.07370   0.47173   0.00000  Uiso   1.00
O362   O     0.08692   0.33175   0.61352   0.00000  Uiso   1.00
N363   N     0.66791   0.78905   0.17615   0.00000  Uiso   1.00
N364   N     0.74625   0.09868   0.45198   0.00000  Uiso   1.00
N365   N     0.01794   0.56998   0.55304   0.00000  Uiso   1.00
N366   N     0.63872   0.51366   0.16862   0.00000  Uiso   1.00
N367   N     0.71706   0.82330   0.44446   0.00000  Uiso   1.00
N368   N     0.98874   0.29459   0.54551   0.00000  Uiso   1.00
