data_job_06854
_audit_creation_date              2018-12-19
_audit_creation_method            'Materials Studio'
_symmetry_space_group_name_H-M    'P1'
_symmetry_Int_Tables_number       1
_symmetry_cell_setting            triclinic
loop_
_symmetry_equiv_pos_as_xyz
  x,y,z
_cell_length_a                    19.8410
_cell_length_b                    20.4645
_cell_length_c                    22.4020
_cell_angle_alpha                 75.9636
_cell_angle_beta                  67.9680
_cell_angle_gamma                 71.1475
loop_
_atom_site_label
_atom_site_type_symbol
_atom_site_fract_x
_atom_site_fract_y
_atom_site_fract_z
_atom_site_U_iso_or_equiv
_atom_site_adp_type
_atom_site_occupancy
C1     C     0.88542   0.11597   0.24032   0.00000  Uiso   1.00
C2     C     0.95346   0.09448   0.18124   0.00000  Uiso   1.00
C3     C     0.95108   0.09148   0.12085   0.00000  Uiso   1.00
C4     C     0.01953   0.07055   0.07313   0.00000  Uiso   1.00
C5     C     0.11477   0.03978   0.97954   0.00000  Uiso   1.00
C6     C     0.89138   0.05534   0.29488   0.00000  Uiso   1.00
C7     C     0.83681   0.01944   0.33005   0.00000  Uiso   1.00
C8     C     0.85300   0.96557   0.37799   0.00000  Uiso   1.00
C9     C     0.85186   0.87407   0.46086   0.00000  Uiso   1.00
C10    C     0.89762   0.17626   0.26034   0.00000  Uiso   1.00
C11    C     0.84828   0.24203   0.26648   0.00000  Uiso   1.00
C12    C     0.86972   0.28997   0.28536   0.00000  Uiso   1.00
C13    C     0.87826   0.38622   0.31459   0.00000  Uiso   1.00
C14    C     0.01120   0.08414   0.26294   0.00000  Uiso   1.00
C15    C     0.02177   0.07719   0.19353   0.00000  Uiso   1.00
C16    C     0.09024   0.05626   0.14589   0.00000  Uiso   1.00
C17    C     0.08797   0.05323   0.08544   0.00000  Uiso   1.00
C18    C     0.95970   0.03805   0.30717   0.00000  Uiso   1.00
C19    C     0.97597   0.98423   0.35508   0.00000  Uiso   1.00
C20    C     0.92144   0.94825   0.39030   0.00000  Uiso   1.00
C21    C     0.96594   0.15898   0.27262   0.00000  Uiso   1.00
C22    C     0.98745   0.20682   0.29150   0.00000  Uiso   1.00
C23    C     0.93816   0.27265   0.29767   0.00000  Uiso   1.00
H24    H     0.83223   0.12942   0.23075   0.00000  Uiso   1.00
H25    H     0.89820   0.10485   0.11137   0.00000  Uiso   1.00
H26    H     0.78394   0.03283   0.32053   0.00000  Uiso   1.00
H27    H     0.79542   0.25539   0.25696   0.00000  Uiso   1.00
H28    H     0.00146   0.06997   0.98443   0.00000  Uiso   1.00
H29    H     0.76054   0.91812   0.42548   0.00000  Uiso   1.00
H30    H     0.78474   0.38743   0.29144   0.00000  Uiso   1.00
H31    H     0.06439   0.07068   0.27251   0.00000  Uiso   1.00
H32    H     0.14310   0.04289   0.15541   0.00000  Uiso   1.00
H33    H     0.02885   0.97087   0.36457   0.00000  Uiso   1.00
H34    H     0.04032   0.19342   0.30101   0.00000  Uiso   1.00
H35    H     0.20024   0.01967   0.02018   0.00000  Uiso   1.00
H36    H     0.95931   0.86783   0.46123   0.00000  Uiso   1.00
H37    H     0.98351   0.33713   0.32719   0.00000  Uiso   1.00
O38    O     0.14844   0.02757   0.92453   0.00000  Uiso   1.00
O39    O     0.83235   0.82837   0.50317   0.00000  Uiso   1.00
O40    O     0.86410   0.44409   0.32731   0.00000  Uiso   1.00
N41    N     0.03744   0.06196   0.00891   0.00000  Uiso   1.00
N42    N     0.81220   0.91998   0.42126   0.00000  Uiso   1.00
N43    N     0.83481   0.35874   0.29596   0.00000  Uiso   1.00
N44    N     0.14440   0.03489   0.02815   0.00000  Uiso   1.00
N45    N     0.91916   0.89292   0.44049   0.00000  Uiso   1.00
N46    N     0.94177   0.33168   0.31520   0.00000  Uiso   1.00
C47    C     0.08029   0.34170   0.55091   0.00000  Uiso   1.00
C48    C     0.12393   0.28004   0.58714   0.00000  Uiso   1.00
C49    C     0.11830   0.27283   0.65193   0.00000  Uiso   1.00
C50    C     0.16298   0.21255   0.67600   0.00000  Uiso   1.00
C51    C     0.22339   0.12460   0.73824   0.00000  Uiso   1.00
C52    C     0.13922   0.36927   0.49227   0.00000  Uiso   1.00
C53    C     0.14644   0.43710   0.47729   0.00000  Uiso   1.00
C54    C     0.20399   0.45194   0.42149   0.00000  Uiso   1.00
C55    C     0.28810   0.50254   0.33642   0.00000  Uiso   1.00
C56    C     0.03896   0.31122   0.52364   0.00000  Uiso   1.00
C57    C     0.96189   0.33025   0.53503   0.00000  Uiso   1.00
C58    C     0.93503   0.29623   0.50563   0.00000  Uiso   1.00
C59    C     0.86348   0.25670   0.46927   0.00000  Uiso   1.00
C60    C     0.16965   0.24746   0.47844   0.00000  Uiso   1.00
C61    C     0.17247   0.22885   0.54778   0.00000  Uiso   1.00
C62    C     0.21717   0.16856   0.57175   0.00000  Uiso   1.00
C63    C     0.21161   0.16127   0.63657   0.00000  Uiso   1.00
C64    C     0.18776   0.31809   0.45291   0.00000  Uiso   1.00
C65    C     0.24531   0.33283   0.39712   0.00000  Uiso   1.00
C66    C     0.25261   0.40066   0.38206   0.00000  Uiso   1.00
C67    C     0.08750   0.26003   0.48428   0.00000  Uiso   1.00
C68    C     0.06076   0.22598   0.45486   0.00000  Uiso   1.00
C69    C     0.98366   0.24495   0.46619   0.00000  Uiso   1.00
H70    H     0.04250   0.38156   0.58154   0.00000  Uiso   1.00
H71    H     0.08073   0.31246   0.68237   0.00000  Uiso   1.00
H72    H     0.10886   0.47670   0.50775   0.00000  Uiso   1.00
H73    H     0.92434   0.36986   0.56549   0.00000  Uiso   1.00
H74    H     0.14455   0.21329   0.77679   0.00000  Uiso   1.00
H75    H     0.20384   0.55960   0.40859   0.00000  Uiso   1.00
H76    H     0.81475   0.33433   0.53033   0.00000  Uiso   1.00
H77    H     0.20744   0.20761   0.44779   0.00000  Uiso   1.00
H78    H     0.25473   0.12896   0.54128   0.00000  Uiso   1.00
H79    H     0.28286   0.29321   0.36667   0.00000  Uiso   1.00
H80    H     0.09834   0.18637   0.42440   0.00000  Uiso   1.00
H81    H     0.28577   0.06436   0.66228   0.00000  Uiso   1.00
H82    H     0.34506   0.41068   0.29408   0.00000  Uiso   1.00
H83    H     0.95597   0.18540   0.41582   0.00000  Uiso   1.00
O84    O     0.24330   0.09024   0.78344   0.00000  Uiso   1.00
O85    O     0.32108   0.54459   0.30037   0.00000  Uiso   1.00
O86    O     0.81061   0.24903   0.46009   0.00000  Uiso   1.00
N87    N     0.17128   0.18902   0.73701   0.00000  Uiso   1.00
N88    N     0.22673   0.51281   0.39277   0.00000  Uiso   1.00
N89    N     0.86296   0.30220   0.50658   0.00000  Uiso   1.00
N90    N     0.24727   0.10889   0.67540   0.00000  Uiso   1.00
N91    N     0.30272   0.43267   0.33116   0.00000  Uiso   1.00
N92    N     0.93895   0.22207   0.44496   0.00000  Uiso   1.00
C93    C     0.02572   0.77924   0.97317   0.00000  Uiso   1.00
C94    C     0.10492   0.78602   0.95835   0.00000  Uiso   1.00
C95    C     0.12516   0.84810   0.94576   0.00000  Uiso   1.00
C96    C     0.20052   0.84323   0.93330   0.00000  Uiso   1.00
C97    C     0.31541   0.86359   0.91023   0.00000  Uiso   1.00
C98    C     0.03148   0.73739   0.92285   0.00000  Uiso   1.00
C99    C     0.98997   0.75859   0.88042   0.00000  Uiso   1.00
C100   C     0.00351   0.71279   0.83808   0.00000  Uiso   1.00
C101   C     0.00435   0.65764   0.75994   0.00000  Uiso   1.00
C102   C     0.00782   0.73273   0.03847   0.00000  Uiso   1.00
C103   C     0.94641   0.75000   0.09326   0.00000  Uiso   1.00
C104   C     0.94001   0.70027   0.14826   0.00000  Uiso   1.00
C105   C     0.90412   0.63789   0.24963   0.00000  Uiso   1.00
C106   C     0.12356   0.66021   0.97342   0.00000  Uiso   1.00
C107   C     0.15805   0.72136   0.95848   0.00000  Uiso   1.00
C108   C     0.23340   0.71640   0.94604   0.00000  Uiso   1.00
C109   C     0.25376   0.77846   0.93343   0.00000  Uiso   1.00
C110   C     0.08462   0.67274   0.92298   0.00000  Uiso   1.00
C111   C     0.09822   0.62690   0.88070   0.00000  Uiso   1.00
C112   C     0.05675   0.64802   0.83822   0.00000  Uiso   1.00
C113   C     0.06096   0.66808   0.03861   0.00000  Uiso   1.00
C114   C     0.05466   0.61831   0.09353   0.00000  Uiso   1.00
C115   C     0.99325   0.63550   0.14839   0.00000  Uiso   1.00
H116   H     0.98435   0.82957   0.97306   0.00000  Uiso   1.00
H117   H     0.08402   0.89812   0.94565   0.00000  Uiso   1.00
H118   H     0.94885   0.80862   0.88033   0.00000  Uiso   1.00
H119   H     0.90530   0.80004   0.09313   0.00000  Uiso   1.00
H120   H     0.21796   0.94561   0.91531   0.00000  Uiso   1.00
H121   H     0.93293   0.75689   0.77759   0.00000  Uiso   1.00
H122   H     0.84108   0.73879   0.22632   0.00000  Uiso   1.00
H123   H     0.16493   0.60987   0.97352   0.00000  Uiso   1.00
H124   H     0.27451   0.66636   0.94615   0.00000  Uiso   1.00
H125   H     0.13934   0.57687   0.88082   0.00000  Uiso   1.00
H126   H     0.09579   0.56828   0.09362   0.00000  Uiso   1.00
H127   H     0.37257   0.75750   0.91570   0.00000  Uiso   1.00
H128   H     0.08754   0.56878   0.77798   0.00000  Uiso   1.00
H129   H     0.99570   0.55069   0.22671   0.00000  Uiso   1.00
O130   O     0.36410   0.89268   0.89746   0.00000  Uiso   1.00
O131   O     0.99014   0.64509   0.71679   0.00000  Uiso   1.00
O132   O     0.86964   0.62135   0.30551   0.00000  Uiso   1.00
N133   N     0.23931   0.89358   0.91917   0.00000  Uiso   1.00
N134   N     0.97283   0.71715   0.79040   0.00000  Uiso   1.00
N135   N     0.88695   0.70022   0.20992   0.00000  Uiso   1.00
N136   N     0.32250   0.79237   0.91938   0.00000  Uiso   1.00
N137   N     0.05603   0.61593   0.79062   0.00000  Uiso   1.00
N138   N     0.97015   0.59900   0.21014   0.00000  Uiso   1.00
C139   C     0.47518   0.62537   0.14350   0.00000  Uiso   1.00
C140   C     0.55941   0.61706   0.12505   0.00000  Uiso   1.00
C141   C     0.59957   0.59981   0.16823   0.00000  Uiso   1.00
C142   C     0.67624   0.59472   0.14170   0.00000  Uiso   1.00
C143   C     0.80170   0.58000   0.12330   0.00000  Uiso   1.00
C144   C     0.46737   0.57532   0.10740   0.00000  Uiso   1.00
C145   C     0.43012   0.52298   0.13574   0.00000  Uiso   1.00
C146   C     0.42930   0.48276   0.09434   0.00000  Uiso   1.00
C147   C     0.41180   0.40327   0.04853   0.00000  Uiso   1.00
C148   C     0.44313   0.69855   0.11313   0.00000  Uiso   1.00
C149   C     0.38548   0.74983   0.14628   0.00000  Uiso   1.00
C150   C     0.36424   0.81337   0.10971   0.00000  Uiso   1.00
C151   C     0.30910   0.92522   0.07279   0.00000  Uiso   1.00
C152   C     0.53994   0.64702   0.01959   0.00000  Uiso   1.00
C153   C     0.59459   0.62882   0.05775   0.00000  Uiso   1.00
C154   C     0.67122   0.62376   0.03114   0.00000  Uiso   1.00
C155   C     0.71148   0.60651   0.07428   0.00000  Uiso   1.00
C156   C     0.50254   0.58707   0.04010   0.00000  Uiso   1.00
C157   C     0.50177   0.54693   0.99865   0.00000  Uiso   1.00
C158   C     0.46454   0.49454   0.02692   0.00000  Uiso   1.00
C159   C     0.47830   0.71032   0.04583   0.00000  Uiso   1.00
C160   C     0.45714   0.77378   0.00919   0.00000  Uiso   1.00
C161   C     0.39947   0.82515   0.04229   0.00000  Uiso   1.00
H162   H     0.44779   0.61621   0.19589   0.00000  Uiso   1.00
H163   H     0.57233   0.59070   0.22031   0.00000  Uiso   1.00
H164   H     0.40290   0.51389   0.18782   0.00000  Uiso   1.00
H165   H     0.35827   0.74071   0.19836   0.00000  Uiso   1.00
H166   H     0.72592   0.56759   0.21771   0.00000  Uiso   1.00
H167   H     0.36865   0.40565   0.14919   0.00000  Uiso   1.00
H168   H     0.27454   0.88394   0.17142   0.00000  Uiso   1.00
H169   H     0.56732   0.65617   0.96719   0.00000  Uiso   1.00
H170   H     0.69842   0.63286   0.97906   0.00000  Uiso   1.00
H171   H     0.52899   0.55605   0.94657   0.00000  Uiso   1.00
H172   H     0.48437   0.78287   0.95711   0.00000  Uiso   1.00
H173   H     0.82826   0.60180   0.02190   0.00000  Uiso   1.00
H174   H     0.47099   0.43986   0.95338   0.00000  Uiso   1.00
H175   H     0.37689   0.91815   0.97562   0.00000  Uiso   1.00
O176   O     0.86118   0.56862   0.13174   0.00000  Uiso   1.00
O177   O     0.39244   0.35616   0.04185   0.00000  Uiso   1.00
O178   O     0.26898   0.98367   0.07102   0.00000  Uiso   1.00
N179   N     0.73201   0.57886   0.16999   0.00000  Uiso   1.00
N180   N     0.39799   0.42744   0.10594   0.00000  Uiso   1.00
N181   N     0.31000   0.87460   0.12672   0.00000  Uiso   1.00
N182   N     0.78708   0.59727   0.06463   0.00000  Uiso   1.00
N183   N     0.45306   0.44585   0.00058   0.00000  Uiso   1.00
N184   N     0.36507   0.89301   0.02136   0.00000  Uiso   1.00
C185   C     0.50131   0.79576   0.51716   0.00000  Uiso   1.00
C186   C     0.55839   0.74616   0.46957   0.00000  Uiso   1.00
C187   C     0.54338   0.69528   0.44888   0.00000  Uiso   1.00
C188   C     0.60323   0.65526   0.40518   0.00000  Uiso   1.00
C189   C     0.68086   0.57667   0.33463   0.00000  Uiso   1.00
C190   C     0.50360   0.86916   0.48183   0.00000  Uiso   1.00
C191   C     0.44253   0.92168   0.47146   0.00000  Uiso   1.00
C192   C     0.45627   0.98520   0.43808   0.00000  Uiso   1.00
C193   C     0.44882   0.09758   0.38660   0.00000  Uiso   1.00
C194   C     0.53309   0.78526   0.57211   0.00000  Uiso   1.00
C195   C     0.49680   0.76726   0.63766   0.00000  Uiso   1.00
C196   C     0.53536   0.76016   0.68030   0.00000  Uiso   1.00
C197   C     0.57369   0.74227   0.76900   0.00000  Uiso   1.00
C198   C     0.63431   0.81517   0.47634   0.00000  Uiso   1.00
C199   C     0.63062   0.75671   0.44740   0.00000  Uiso   1.00
C200   C     0.69052   0.71676   0.40372   0.00000  Uiso   1.00
C201   C     0.67560   0.66582   0.38297   0.00000  Uiso   1.00
C202   C     0.57583   0.87970   0.45965   0.00000  Uiso   1.00
C203   C     0.58967   0.94316   0.42629   0.00000  Uiso   1.00
C204   C     0.52863   0.99577   0.41587   0.00000  Uiso   1.00
C205   C     0.60532   0.79580   0.54994   0.00000  Uiso   1.00
C206   C     0.64394   0.78873   0.59249   0.00000  Uiso   1.00
C207   C     0.60772   0.77072   0.65808   0.00000  Uiso   1.00
H208   H     0.44508   0.78755   0.53443   0.00000  Uiso   1.00
H209   H     0.48747   0.68714   0.46605   0.00000  Uiso   1.00
H210   H     0.38663   0.91351   0.48863   0.00000  Uiso   1.00
H211   H     0.44090   0.75910   0.65480   0.00000  Uiso   1.00
H212   H     0.56632   0.58048   0.38045   0.00000  Uiso   1.00
H213   H     0.35370   0.05780   0.42807   0.00000  Uiso   1.00
H214   H     0.46813   0.73221   0.77848   0.00000  Uiso   1.00
H215   H     0.69054   0.82338   0.45907   0.00000  Uiso   1.00
H216   H     0.74641   0.72493   0.38656   0.00000  Uiso   1.00
H217   H     0.64557   0.95131   0.40914   0.00000  Uiso   1.00
H218   H     0.69984   0.79690   0.57531   0.00000  Uiso   1.00
H219   H     0.77648   0.61116   0.31593   0.00000  Uiso   1.00
H220   H     0.56386   0.08848   0.36355   0.00000  Uiso   1.00
H221   H     0.67829   0.76289   0.71396   0.00000  Uiso   1.00
O222   O     0.70371   0.53042   0.30183   0.00000  Uiso   1.00
O223   O     0.42476   0.15666   0.36432   0.00000  Uiso   1.00
O224   O     0.57489   0.72948   0.82405   0.00000  Uiso   1.00
N225   N     0.60812   0.60120   0.37522   0.00000  Uiso   1.00
N226   N     0.40933   0.04747   0.41974   0.00000  Uiso   1.00
N227   N     0.51630   0.74308   0.74735   0.00000  Uiso   1.00
N228   N     0.72121   0.61771   0.34051   0.00000  Uiso   1.00
N229   N     0.52242   0.06397   0.38502   0.00000  Uiso   1.00
N230   N     0.62939   0.75959   0.71263   0.00000  Uiso   1.00
C231   C     0.46291   0.20914   0.77083   0.00000  Uiso   1.00
C232   C     0.51714   0.23626   0.70780   0.00000  Uiso   1.00
C233   C     0.49865   0.29658   0.66639   0.00000  Uiso   1.00
C234   C     0.55632   0.31239   0.61117   0.00000  Uiso   1.00
C235   C     0.62935   0.36107   0.51534   0.00000  Uiso   1.00
C236   C     0.49651   0.20163   0.82397   0.00000  Uiso   1.00
C237   C     0.46067   0.23282   0.88023   0.00000  Uiso   1.00
C238   C     0.50098   0.21947   0.92279   0.00000  Uiso   1.00
C239   C     0.54197   0.21434   0.00733   0.00000  Uiso   1.00
C240   C     0.46780   0.13526   0.76398   0.00000  Uiso   1.00
C241   C     0.40782   0.11064   0.76981   0.00000  Uiso   1.00
C242   C     0.42394   0.04141   0.76188   0.00000  Uiso   1.00
C243   C     0.42035   0.93323   0.75328   0.00000  Uiso   1.00
C244   C     0.59820   0.12996   0.74639   0.00000  Uiso   1.00
C245   C     0.59062   0.19326   0.69453   0.00000  Uiso   1.00
C246   C     0.64834   0.20898   0.63935   0.00000  Uiso   1.00
C247   C     0.62994   0.26931   0.59786   0.00000  Uiso   1.00
C248   C     0.56999   0.15863   0.81069   0.00000  Uiso   1.00
C249   C     0.61036   0.14522   0.85318   0.00000  Uiso   1.00
C250   C     0.57460   0.17639   0.90949   0.00000  Uiso   1.00
C251   C     0.54128   0.09226   0.75070   0.00000  Uiso   1.00
C252   C     0.55751   0.02304   0.74276   0.00000  Uiso   1.00
C253   C     0.49756   0.99832   0.74858   0.00000  Uiso   1.00
H254   H     0.40570   0.24262   0.78117   0.00000  Uiso   1.00
H255   H     0.44177   0.32985   0.67669   0.00000  Uiso   1.00
H256   H     0.40380   0.26609   0.89049   0.00000  Uiso   1.00
H257   H     0.35096   0.14394   0.78009   0.00000  Uiso   1.00
H258   H     0.51419   0.40761   0.55501   0.00000  Uiso   1.00
H259   H     0.43411   0.27316   0.00583   0.00000  Uiso   1.00
H260   H     0.32267   0.01556   0.77303   0.00000  Uiso   1.00
H261   H     0.65542   0.09648   0.73605   0.00000  Uiso   1.00
H262   H     0.70520   0.17569   0.62909   0.00000  Uiso   1.00
H263   H     0.66722   0.11194   0.84289   0.00000  Uiso   1.00
H264   H     0.61438   0.98978   0.73249   0.00000  Uiso   1.00
H265   H     0.72799   0.28249   0.51637   0.00000  Uiso   1.00
H266   H     0.64791   0.14804   0.96720   0.00000  Uiso   1.00
H267   H     0.53648   0.89044   0.73440   0.00000  Uiso   1.00
O268   O     0.64933   0.39981   0.46615   0.00000  Uiso   1.00
O269   O     0.54427   0.22340   0.05762   0.00000  Uiso   1.00
O270   O     0.39807   0.88545   0.75219   0.00000  Uiso   1.00
N271   N     0.55767   0.36728   0.56059   0.00000  Uiso   1.00
N272   N     0.48281   0.24159   0.98208   0.00000  Uiso   1.00
N273   N     0.37862   0.00076   0.76445   0.00000  Uiso   1.00
N274   N     0.67272   0.29996   0.53980   0.00000  Uiso   1.00
N275   N     0.59785   0.17426   0.96129   0.00000  Uiso   1.00
N276   N     0.49367   0.93343   0.74366   0.00000  Uiso   1.00
C277   C     0.20408   0.91318   0.64673   0.00000  Uiso   1.00
C278   C     0.14002   0.93340   0.70862   0.00000  Uiso   1.00
C279   C     0.14088   0.97088   0.75220   0.00000  Uiso   1.00
C280   C     0.07668   0.98407   0.80588   0.00000  Uiso   1.00
C281   C     0.98674   0.01907   0.90050   0.00000  Uiso   1.00
C282   C     0.17090   0.94245   0.59140   0.00000  Uiso   1.00
C283   C     0.19772   0.98754   0.53642   0.00000  Uiso   1.00
C284   C     0.15953   0.00835   0.49143   0.00000  Uiso   1.00
C285   C     0.11756   0.05736   0.40404   0.00000  Uiso   1.00
C286   C     0.22215   0.83407   0.65239   0.00000  Uiso   1.00
C287   C     0.29208   0.78802   0.64866   0.00000  Uiso   1.00
C288   C     0.29704   0.71757   0.65500   0.00000  Uiso   1.00
C289   C     0.33466   0.59830   0.66230   0.00000  Uiso   1.00
C290   C     0.08856   0.86994   0.66458   0.00000  Uiso   1.00
C291   C     0.07728   0.90991   0.71832   0.00000  Uiso   1.00
C292   C     0.01307   0.92304   0.77195   0.00000  Uiso   1.00
C293   C     0.01382   0.96054   0.81560   0.00000  Uiso   1.00
C294   C     0.10816   0.91897   0.60110   0.00000  Uiso   1.00
C295   C     0.06991   0.93971   0.55618   0.00000  Uiso   1.00
C296   C     0.09667   0.98482   0.50115   0.00000  Uiso   1.00
C297   C     0.15941   0.81058   0.66209   0.00000  Uiso   1.00
C298   C     0.16427   0.74019   0.66842   0.00000  Uiso   1.00
C299   C     0.23418   0.69405   0.66472   0.00000  Uiso   1.00
H300   H     0.25293   0.93147   0.63917   0.00000  Uiso   1.00
H301   H     0.18944   0.98906   0.74467   0.00000  Uiso   1.00
H302   H     0.24629   0.00571   0.52893   0.00000  Uiso   1.00
H303   H     0.34062   0.80622   0.64116   0.00000  Uiso   1.00
H304   H     0.09137   0.04257   0.86590   0.00000  Uiso   1.00
H305   H     0.21124   0.07766   0.41098   0.00000  Uiso   1.00
H306   H     0.41018   0.65700   0.64764   0.00000  Uiso   1.00
H307   H     0.03971   0.85165   0.67213   0.00000  Uiso   1.00
H308   H     0.96452   0.90486   0.77945   0.00000  Uiso   1.00
H309   H     0.02136   0.92152   0.56370   0.00000  Uiso   1.00
H310   H     0.11570   0.72203   0.67593   0.00000  Uiso   1.00
H311   H     0.90881   0.97424   0.89412   0.00000  Uiso   1.00
H312   H     0.02869   0.00933   0.43920   0.00000  Uiso   1.00
H313   H     0.22762   0.58867   0.67586   0.00000  Uiso   1.00
O314   O     0.95447   0.04487   0.95000   0.00000  Uiso   1.00
O315   O     0.11175   0.09089   0.35316   0.00000  Uiso   1.00
O316   O     0.37274   0.53900   0.66365   0.00000  Uiso   1.00
N317   N     0.05873   0.01917   0.85782   0.00000  Uiso   1.00
N318   N     0.17080   0.05199   0.43251   0.00000  Uiso   1.00
N319   N     0.35679   0.65871   0.65374   0.00000  Uiso   1.00
N320   N     0.96050   0.98240   0.87301   0.00000  Uiso   1.00
N321   N     0.07256   0.01522   0.44769   0.00000  Uiso   1.00
N322   N     0.25855   0.62194   0.66893   0.00000  Uiso   1.00
C323   C     0.14216   0.67357   0.27461   0.00000  Uiso   1.00
C324   C     0.08051   0.73271   0.25563   0.00000  Uiso   1.00
C325   C     0.08833   0.77325   0.19520   0.00000  Uiso   1.00
C326   C     0.02524   0.82474   0.18756   0.00000  Uiso   1.00
C327   C     0.93990   0.91494   0.15033   0.00000  Uiso   1.00
C328   C     0.11119   0.60935   0.29851   0.00000  Uiso   1.00
C329   C     0.14483   0.54618   0.27414   0.00000  Uiso   1.00
C330   C     0.10757   0.49383   0.30261   0.00000  Uiso   1.00
C331   C     0.06990   0.39249   0.33198   0.00000  Uiso   1.00
C332   C     0.14846   0.69192   0.33402   0.00000  Uiso   1.00
C333   C     0.21343   0.69816   0.33951   0.00000  Uiso   1.00
C334   C     0.20755   0.71531   0.39787   0.00000  Uiso   1.00
C335   C     0.22774   0.74218   0.48237   0.00000  Uiso   1.00
C336   C     0.01620   0.69292   0.36850   0.00000  Uiso   1.00
C337   C     0.01209   0.74321   0.30663   0.00000  Uiso   1.00
C338   C     0.94896   0.79466   0.29908   0.00000  Uiso   1.00
C339   C     0.95669   0.83527   0.23865   0.00000  Uiso   1.00
C340   C     0.04278   0.61985   0.34951   0.00000  Uiso   1.00
C341   C     0.00546   0.56758   0.37802   0.00000  Uiso   1.00
C342   C     0.03902   0.50435   0.35369   0.00000  Uiso   1.00
C343   C     0.08004   0.70243   0.38501   0.00000  Uiso   1.00
C344   C     0.07406   0.71957   0.44338   0.00000  Uiso   1.00
C345   C     0.13900   0.72583   0.44896   0.00000  Uiso   1.00
H346   H     0.19543   0.66539   0.23491   0.00000  Uiso   1.00
H347   H     0.14129   0.76510   0.15575   0.00000  Uiso   1.00
H348   H     0.19778   0.53806   0.23468   0.00000  Uiso   1.00
H349   H     0.26637   0.69002   0.30003   0.00000  Uiso   1.00
H350   H     0.05108   0.88026   0.09047   0.00000  Uiso   1.00
H351   H     0.17021   0.40153   0.25692   0.00000  Uiso   1.00
H352   H     0.31484   0.72197   0.39473   0.00000  Uiso   1.00
H353   H     0.96293   0.70110   0.40820   0.00000  Uiso   1.00
H354   H     0.89602   0.80278   0.33855   0.00000  Uiso   1.00
H355   H     0.95251   0.57573   0.41748   0.00000  Uiso   1.00
H356   H     0.02110   0.72769   0.48283   0.00000  Uiso   1.00
H357   H     0.85202   0.91084   0.23884   0.00000  Uiso   1.00
H358   H     0.97114   0.43210   0.40529   0.00000  Uiso   1.00
H359   H     0.11577   0.75254   0.54310   0.00000  Uiso   1.00
O360   O     0.91173   0.96178   0.11570   0.00000  Uiso   1.00
O361   O     0.06802   0.33369   0.33409   0.00000  Uiso   1.00
O362   O     0.25778   0.75410   0.51488   0.00000  Uiso   1.00
N363   N     0.01342   0.87352   0.13495   0.00000  Uiso   1.00
N364   N     0.12479   0.42593   0.29056   0.00000  Uiso   1.00
N365   N     0.26001   0.72550   0.41941   0.00000  Uiso   1.00
N366   N     0.90630   0.88997   0.21479   0.00000  Uiso   1.00
N367   N     0.01767   0.44239   0.37040   0.00000  Uiso   1.00
N368   N     0.15290   0.74195   0.49924   0.00000  Uiso   1.00
C369   C     0.03849   0.30752   0.91523   0.00000  Uiso   1.00
C370   C     0.96325   0.29172   0.93051   0.00000  Uiso   1.00
C371   C     0.95223   0.22600   0.93918   0.00000  Uiso   1.00
C372   C     0.87909   0.22252   0.95285   0.00000  Uiso   1.00
C373   C     0.77136   0.18882   0.97589   0.00000  Uiso   1.00
C374   C     0.02802   0.34766   0.96857   0.00000  Uiso   1.00
C375   C     0.07147   0.32898   0.00923   0.00000  Uiso   1.00
C376   C     0.05286   0.37260   0.05493   0.00000  Uiso   1.00
C377   C     0.04573   0.42579   0.13702   0.00000  Uiso   1.00
C378   C     0.04863   0.35905   0.85266   0.00000  Uiso   1.00
C379   C     0.10940   0.34995   0.79587   0.00000  Uiso   1.00
C380   C     0.10814   0.40317   0.74399   0.00000  Uiso   1.00
C381   C     0.13300   0.47404   0.64612   0.00000  Uiso   1.00
C382   C     0.92820   0.41821   0.92407   0.00000  Uiso   1.00
C383   C     0.90335   0.35184   0.93532   0.00000  Uiso   1.00
C384   C     0.83021   0.34846   0.94897   0.00000  Uiso   1.00
C385   C     0.81908   0.28274   0.95766   0.00000  Uiso   1.00
C386   C     0.96812   0.40778   0.97337   0.00000  Uiso   1.00
C387   C     0.94944   0.45144   0.01902   0.00000  Uiso   1.00
C388   C     0.99284   0.43283   0.05974   0.00000  Uiso   1.00
C389   C     0.98872   0.41917   0.85746   0.00000  Uiso   1.00
C390   C     0.98737   0.47241   0.80566   0.00000  Uiso   1.00
C391   C     0.04813   0.46340   0.74880   0.00000  Uiso   1.00
H392   H     0.08513   0.26072   0.91149   0.00000  Uiso   1.00
H393   H     0.99860   0.17948   0.93547   0.00000  Uiso   1.00
H394   H     0.11783   0.28246   0.00550   0.00000  Uiso   1.00
H395   H     0.15575   0.30342   0.79218   0.00000  Uiso   1.00
H396   H     0.87624   0.11593   0.96420   0.00000  Uiso   1.00
H397   H     0.12765   0.33306   0.11185   0.00000  Uiso   1.00
H398   H     0.20762   0.37728   0.66201   0.00000  Uiso   1.00
H399   H     0.88156   0.46502   0.92781   0.00000  Uiso   1.00
H400   H     0.78386   0.39499   0.95268   0.00000  Uiso   1.00
H401   H     0.90308   0.49796   0.02272   0.00000  Uiso   1.00
H402   H     0.94101   0.51893   0.80939   0.00000  Uiso   1.00
H403   H     0.70195   0.29084   0.97817   0.00000  Uiso   1.00
H404   H     0.95336   0.50798   0.12582   0.00000  Uiso   1.00
H405   H     0.03333   0.55219   0.67599   0.00000  Uiso   1.00
O406   O     0.72849   0.15363   0.98728   0.00000  Uiso   1.00
O407   O     0.05834   0.43851   0.18098   0.00000  Uiso   1.00
O408   O     0.16325   0.49652   0.59080   0.00000  Uiso   1.00
N409   N     0.84863   0.16670   0.96406   0.00000  Uiso   1.00
N410   N     0.08368   0.36971   0.10211   0.00000  Uiso   1.00
N411   N     0.15845   0.41105   0.68156   0.00000  Uiso   1.00
N412   N     0.75485   0.26082   0.97158   0.00000  Uiso   1.00
N413   N     0.98989   0.46383   0.10963   0.00000  Uiso   1.00
N414   N     0.06467   0.50517   0.68908   0.00000  Uiso   1.00
C415   C     0.78585   0.45147   0.66882   0.00000  Uiso   1.00
C416   C     0.71558   0.47297   0.64855   0.00000  Uiso   1.00
C417   C     0.71442   0.48658   0.58511   0.00000  Uiso   1.00
C418   C     0.64440   0.50553   0.57674   0.00000  Uiso   1.00
C419   C     0.54539   0.53817   0.53717   0.00000  Uiso   1.00
C420   C     0.77495   0.50506   0.71075   0.00000  Uiso   1.00
C421   C     0.82372   0.54564   0.69961   0.00000  Uiso   1.00
C422   C     0.80368   0.59159   0.74360   0.00000  Uiso   1.00
C423   C     0.79688   0.67401   0.80062   0.00000  Uiso   1.00
C424   C     0.78320   0.38286   0.71429   0.00000  Uiso   1.00
C425   C     0.83893   0.32070   0.70614   0.00000  Uiso   1.00
C426   C     0.82585   0.26378   0.75313   0.00000  Uiso   1.00
C427   C     0.83186   0.15647   0.81564   0.00000  Uiso   1.00
C428   C     0.66355   0.46091   0.76676   0.00000  Uiso   1.00
C429   C     0.64915   0.47810   0.70175   0.00000  Uiso   1.00
C430   C     0.57911   0.49703   0.69347   0.00000  Uiso   1.00
C431   C     0.57785   0.51067   0.63003   0.00000  Uiso   1.00
C432   C     0.70852   0.51019   0.76394   0.00000  Uiso   1.00
C433   C     0.68841   0.55609   0.80796   0.00000  Uiso   1.00
C434   C     0.73714   0.59673   0.79689   0.00000  Uiso   1.00
C435   C     0.71678   0.38799   0.76749   0.00000  Uiso   1.00
C436   C     0.70361   0.33116   0.81450   0.00000  Uiso   1.00
C437   C     0.75930   0.26892   0.80642   0.00000  Uiso   1.00
H438   H     0.83756   0.44748   0.62741   0.00000  Uiso   1.00
H439   H     0.76584   0.48261   0.54396   0.00000  Uiso   1.00
H440   H     0.87513   0.54165   0.65844   0.00000  Uiso   1.00
H441   H     0.89032   0.31675   0.66497   0.00000  Uiso   1.00
H442   H     0.65703   0.52385   0.47490   0.00000  Uiso   1.00
H443   H     0.88747   0.64833   0.71630   0.00000  Uiso   1.00
H444   H     0.91953   0.17408   0.73007   0.00000  Uiso   1.00
H445   H     0.61183   0.46491   0.80818   0.00000  Uiso   1.00
H446   H     0.52771   0.50100   0.73465   0.00000  Uiso   1.00
H447   H     0.63700   0.56004   0.84913   0.00000  Uiso   1.00
H448   H     0.65220   0.33514   0.85566   0.00000  Uiso   1.00
H449   H     0.46375   0.53878   0.62967   0.00000  Uiso   1.00
H450   H     0.69421   0.66325   0.87107   0.00000  Uiso   1.00
H451   H     0.72625   0.18901   0.88484   0.00000  Uiso   1.00
O452   O     0.50913   0.55476   0.50065   0.00000  Uiso   1.00
O453   O     0.81148   0.71806   0.81736   0.00000  Uiso   1.00
O454   O     0.85352   0.09586   0.83543   0.00000  Uiso   1.00
N455   N     0.62308   0.52240   0.52141   0.00000  Uiso   1.00
N456   N     0.83853   0.63878   0.74710   0.00000  Uiso   1.00
N457   N     0.86851   0.19541   0.75999   0.00000  Uiso   1.00
N458   N     0.51909   0.53043   0.60470   0.00000  Uiso   1.00
N459   N     0.73454   0.64681   0.83038   0.00000  Uiso   1.00
N460   N     0.76451   0.20344   0.84327   0.00000  Uiso   1.00
C461   C     0.59734   0.35549   0.35084   0.00000  Uiso   1.00
C462   C     0.51934   0.39169   0.39247   0.00000  Uiso   1.00
C463   C     0.50036   0.45457   0.41548   0.00000  Uiso   1.00
C464   C     0.42595   0.47896   0.45279   0.00000  Uiso   1.00
C465   C     0.31297   0.54082   0.51538   0.00000  Uiso   1.00
C466   C     0.61768   0.28277   0.38771   0.00000  Uiso   1.00
C467   C     0.68139   0.25407   0.40670   0.00000  Uiso   1.00
C468   C     0.68977   0.18677   0.44000   0.00000  Uiso   1.00
C469   C     0.72949   0.07950   0.49515   0.00000  Uiso   1.00
C470   C     0.58759   0.34506   0.28971   0.00000  Uiso   1.00
C471   C     0.62602   0.36871   0.22630   0.00000  Uiso   1.00
C472   C     0.60908   0.35384   0.17708   0.00000  Uiso   1.00
C473   C     0.60208   0.34329   0.08007   0.00000  Uiso   1.00
C474   C     0.49896   0.28699   0.37620   0.00000  Uiso   1.00
C475   C     0.46590   0.35449   0.40625   0.00000  Uiso   1.00
C476   C     0.39150   0.37879   0.44354   0.00000  Uiso   1.00
C477   C     0.37242   0.44169   0.46659   0.00000  Uiso   1.00
C478   C     0.56424   0.24557   0.40149   0.00000  Uiso   1.00
C479   C     0.57254   0.17829   0.43476   0.00000  Uiso   1.00
C480   C     0.63624   0.14950   0.45380   0.00000  Uiso   1.00
C481   C     0.53415   0.30786   0.30349   0.00000  Uiso   1.00
C482   C     0.51716   0.29294   0.25436   0.00000  Uiso   1.00
C483   C     0.55555   0.31657   0.19089   0.00000  Uiso   1.00
H484   H     0.63895   0.38445   0.34011   0.00000  Uiso   1.00
H485   H     0.54173   0.48334   0.40481   0.00000  Uiso   1.00
H486   H     0.72274   0.28287   0.39603   0.00000  Uiso   1.00
H487   H     0.66736   0.39750   0.21565   0.00000  Uiso   1.00
H488   H     0.41038   0.57656   0.48263   0.00000  Uiso   1.00
H489   H     0.79206   0.15385   0.46410   0.00000  Uiso   1.00
H490   H     0.67530   0.39556   0.08374   0.00000  Uiso   1.00
H491   H     0.45735   0.25803   0.38693   0.00000  Uiso   1.00
H492   H     0.35016   0.34999   0.45419   0.00000  Uiso   1.00
H493   H     0.53117   0.14952   0.44541   0.00000  Uiso   1.00
H494   H     0.47580   0.26415   0.26504   0.00000  Uiso   1.00
H495   H     0.25490   0.46833   0.52272   0.00000  Uiso   1.00
H496   H     0.63658   0.04561   0.50418   0.00000  Uiso   1.00
H497   H     0.51982   0.28733   0.12383   0.00000  Uiso   1.00
O498   O     0.26541   0.58521   0.54610   0.00000  Uiso   1.00
O499   O     0.76616   0.03062   0.52177   0.00000  Uiso   1.00
O500   O     0.61298   0.34775   0.02276   0.00000  Uiso   1.00
N501   N     0.38850   0.53848   0.48282   0.00000  Uiso   1.00
N502   N     0.74533   0.14327   0.46550   0.00000  Uiso   1.00
N503   N     0.63619   0.36924   0.10990   0.00000  Uiso   1.00
N504   N     0.30483   0.48024   0.50439   0.00000  Uiso   1.00
N505   N     0.66167   0.08503   0.48707   0.00000  Uiso   1.00
N506   N     0.55253   0.31100   0.13147   0.00000  Uiso   1.00
C507   C     0.67022   0.85294   0.09147   0.00000  Uiso   1.00
C508   C     0.60254   0.83423   0.14630   0.00000  Uiso   1.00
C509   C     0.60445   0.77411   0.19121   0.00000  Uiso   1.00
C510   C     0.53644   0.76667   0.23759   0.00000  Uiso   1.00
C511   C     0.44159   0.72986   0.32250   0.00000  Uiso   1.00
C512   C     0.65161   0.86499   0.02887   0.00000  Uiso   1.00
C513   C     0.69479   0.83073   0.97505   0.00000  Uiso   1.00
C514   C     0.66809   0.84919   0.92258   0.00000  Uiso   1.00
C515   C     0.64946   0.86017   0.82517   0.00000  Uiso   1.00
C516   C     0.67142   0.92383   0.10093   0.00000  Uiso   1.00
C517   C     0.73126   0.93905   0.10769   0.00000  Uiso   1.00
C518   C     0.72124   0.00706   0.11587   0.00000  Uiso   1.00
C519   C     0.73336   0.10939   0.13034   0.00000  Uiso   1.00
C520   C     0.54604   0.94667   0.09396   0.00000  Uiso   1.00
C521   C     0.53508   0.88515   0.14765   0.00000  Uiso   1.00
C522   C     0.46705   0.87780   0.19397   0.00000  Uiso   1.00
C523   C     0.46886   0.81767   0.23895   0.00000  Uiso   1.00
C524   C     0.58416   0.91590   0.03023   0.00000  Uiso   1.00
C525   C     0.55739   0.93442   0.97781   0.00000  Uiso   1.00
C526   C     0.60051   0.90019   0.92393   0.00000  Uiso   1.00
C527   C     0.60396   0.97474   0.10229   0.00000  Uiso   1.00
C528   C     0.59386   0.04274   0.11045   0.00000  Uiso   1.00
C529   C     0.65367   0.05806   0.11722   0.00000  Uiso   1.00
H530   H     0.72274   0.81331   0.09041   0.00000  Uiso   1.00
H531   H     0.65666   0.73472   0.19014   0.00000  Uiso   1.00
H532   H     0.74698   0.79134   0.97402   0.00000  Uiso   1.00
H533   H     0.78344   0.89964   0.10664   0.00000  Uiso   1.00
H534   H     0.55365   0.67002   0.30130   0.00000  Uiso   1.00
H535   H     0.74412   0.78942   0.84558   0.00000  Uiso   1.00
H536   H     0.82101   0.01780   0.12523   0.00000  Uiso   1.00
H537   H     0.49352   0.98631   0.09501   0.00000  Uiso   1.00
H538   H     0.41486   0.91721   0.19501   0.00000  Uiso   1.00
H539   H     0.50519   0.97383   0.97888   0.00000  Uiso   1.00
H540   H     0.54165   0.08213   0.11150   0.00000  Uiso   1.00
H541   H     0.35740   0.81814   0.30525   0.00000  Uiso   1.00
H542   H     0.54787   0.93754   0.84952   0.00000  Uiso   1.00
H543   H     0.62476   0.16591   0.12918   0.00000  Uiso   1.00
O544   O     0.40791   0.69549   0.36896   0.00000  Uiso   1.00
O545   O     0.65781   0.85215   0.77106   0.00000  Uiso   1.00
O546   O     0.75868   0.15177   0.13796   0.00000  Uiso   1.00
N547   N     0.51826   0.71437   0.28852   0.00000  Uiso   1.00
N548   N     0.69633   0.82599   0.86245   0.00000  Uiso   1.00
N549   N     0.76822   0.03951   0.12388   0.00000  Uiso   1.00
N550   N     0.41266   0.79407   0.29064   0.00000  Uiso   1.00
N551   N     0.59073   0.90570   0.86457   0.00000  Uiso   1.00
N552   N     0.66262   0.11921   0.12601   0.00000  Uiso   1.00
