data_job_05180
_audit_creation_date              2018-12-19
_audit_creation_method            'Materials Studio'
_symmetry_space_group_name_H-M    'P1'
_symmetry_Int_Tables_number       1
_symmetry_cell_setting            triclinic
loop_
_symmetry_equiv_pos_as_xyz
  x,y,z
_cell_length_a                    9.4767
_cell_length_b                    26.6072
_cell_length_c                    9.7818
_cell_angle_alpha                 90.0000
_cell_angle_beta                  90.0000
_cell_angle_gamma                 90.0000
loop_
_atom_site_label
_atom_site_type_symbol
_atom_site_fract_x
_atom_site_fract_y
_atom_site_fract_z
_atom_site_U_iso_or_equiv
_atom_site_adp_type
_atom_site_occupancy
C1     C     0.45168   0.39955   0.89551   0.00000  Uiso   1.00
C2     C     0.41021   0.34421   0.90105   0.00000  Uiso   1.00
C3     C     0.31878   0.32015   0.81162   0.00000  Uiso   1.00
C4     C     0.29444   0.26935   0.83393   0.00000  Uiso   1.00
C5     C     0.22011   0.18735   0.82616   0.00000  Uiso   1.00
C6     C     0.41434   0.42139   0.03504   0.00000  Uiso   1.00
C7     C     0.32639   0.46221   0.05826   0.00000  Uiso   1.00
C8     C     0.30555   0.47638   0.19337   0.00000  Uiso   1.00
C9     C     0.23772   0.51421   0.39361   0.00000  Uiso   1.00
C10    C     0.61230   0.40056   0.88659   0.00000  Uiso   1.00
C11    C     0.69082   0.42389   0.78502   0.00000  Uiso   1.00
C12    C     0.83665   0.42054   0.79517   0.00000  Uiso   1.00
C13    C     0.07620   0.42604   0.76492   0.00000  Uiso   1.00
C14    C     0.57105   0.35213   0.09416   0.00000  Uiso   1.00
C15    C     0.47504   0.31846   0.00895   0.00000  Uiso   1.00
C16    C     0.45084   0.26768   0.03140   0.00000  Uiso   1.00
C17    C     0.35939   0.24355   0.94202   0.00000  Uiso   1.00
C18    C     0.47917   0.39563   0.14294   0.00000  Uiso   1.00
C19    C     0.45846   0.40974   0.27804   0.00000  Uiso   1.00
C20    C     0.37050   0.45058   0.30146   0.00000  Uiso   1.00
C21    C     0.67714   0.37480   0.99449   0.00000  Uiso   1.00
C22    C     0.82288   0.37142   0.00480   0.00000  Uiso   1.00
C23    C     0.90161   0.39473   0.90327   0.00000  Uiso   1.00
H24    H     0.40120   0.41961   0.81152   0.00000  Uiso   1.00
H25    H     0.26861   0.34010   0.72814   0.00000  Uiso   1.00
H26    H     0.27624   0.48214   0.97474   0.00000  Uiso   1.00
H27    H     0.64061   0.44382   0.70155   0.00000  Uiso   1.00
H28    H     0.15016   0.24059   0.68332   0.00000  Uiso   1.00
H29    H     0.16629   0.54010   0.20329   0.00000  Uiso   1.00
H30    H     0.93463   0.45930   0.62719   0.00000  Uiso   1.00
H31    H     0.62153   0.33208   0.17817   0.00000  Uiso   1.00
H32    H     0.50103   0.24776   0.11491   0.00000  Uiso   1.00
H33    H     0.50866   0.38980   0.36151   0.00000  Uiso   1.00
H34    H     0.87302   0.35148   0.08831   0.00000  Uiso   1.00
H35    H     0.33879   0.16565   0.99723   0.00000  Uiso   1.00
H36    H     0.35493   0.46516   0.51720   0.00000  Uiso   1.00
H37    H     0.12326   0.38436   0.94111   0.00000  Uiso   1.00
O38    O     0.16119   0.14924   0.79207   0.00000  Uiso   1.00
O39    O     0.18238   0.54219   0.47425   0.00000  Uiso   1.00
O40    O     0.19041   0.43618   0.71843   0.00000  Uiso   1.00
N41    N     0.21111   0.23452   0.76586   0.00000  Uiso   1.00
N42    N     0.22617   0.51454   0.25200   0.00000  Uiso   1.00
N43    N     0.94451   0.43901   0.71343   0.00000  Uiso   1.00
N44    N     0.31262   0.19419   0.93478   0.00000  Uiso   1.00
N45    N     0.32768   0.47421   0.42092   0.00000  Uiso   1.00
N46    N     0.04601   0.39868   0.88234   0.00000  Uiso   1.00
C47    C     0.54832   0.60045   0.89551   0.00000  Uiso   1.00
C48    C     0.58979   0.65579   0.90105   0.00000  Uiso   1.00
C49    C     0.68122   0.67985   0.81162   0.00000  Uiso   1.00
C50    C     0.70556   0.73065   0.83393   0.00000  Uiso   1.00
C51    C     0.77989   0.81265   0.82616   0.00000  Uiso   1.00
C52    C     0.58566   0.57861   0.03504   0.00000  Uiso   1.00
C53    C     0.67361   0.53779   0.05826   0.00000  Uiso   1.00
C54    C     0.69445   0.52362   0.19337   0.00000  Uiso   1.00
C55    C     0.76228   0.48579   0.39361   0.00000  Uiso   1.00
C56    C     0.38770   0.59944   0.88659   0.00000  Uiso   1.00
C57    C     0.30918   0.57611   0.78502   0.00000  Uiso   1.00
C58    C     0.16335   0.57946   0.79517   0.00000  Uiso   1.00
C59    C     0.92380   0.57396   0.76492   0.00000  Uiso   1.00
C60    C     0.42895   0.64787   0.09416   0.00000  Uiso   1.00
C61    C     0.52496   0.68154   0.00895   0.00000  Uiso   1.00
C62    C     0.54916   0.73232   0.03140   0.00000  Uiso   1.00
C63    C     0.64061   0.75645   0.94202   0.00000  Uiso   1.00
C64    C     0.52083   0.60437   0.14294   0.00000  Uiso   1.00
C65    C     0.54154   0.59026   0.27804   0.00000  Uiso   1.00
C66    C     0.62950   0.54942   0.30146   0.00000  Uiso   1.00
C67    C     0.32286   0.62520   0.99449   0.00000  Uiso   1.00
C68    C     0.17712   0.62858   0.00480   0.00000  Uiso   1.00
C69    C     0.09839   0.60527   0.90327   0.00000  Uiso   1.00
H70    H     0.59880   0.58039   0.81152   0.00000  Uiso   1.00
H71    H     0.73139   0.65990   0.72814   0.00000  Uiso   1.00
H72    H     0.72376   0.51786   0.97474   0.00000  Uiso   1.00
H73    H     0.35939   0.55618   0.70155   0.00000  Uiso   1.00
H74    H     0.84984   0.75941   0.68332   0.00000  Uiso   1.00
H75    H     0.83371   0.45990   0.20329   0.00000  Uiso   1.00
H76    H     0.06537   0.54070   0.62719   0.00000  Uiso   1.00
H77    H     0.37847   0.66792   0.17817   0.00000  Uiso   1.00
H78    H     0.49897   0.75224   0.11491   0.00000  Uiso   1.00
H79    H     0.49134   0.61020   0.36151   0.00000  Uiso   1.00
H80    H     0.12698   0.64852   0.08831   0.00000  Uiso   1.00
H81    H     0.66121   0.83435   0.99723   0.00000  Uiso   1.00
H82    H     0.64507   0.53484   0.51720   0.00000  Uiso   1.00
H83    H     0.87674   0.61564   0.94111   0.00000  Uiso   1.00
O84    O     0.83881   0.85076   0.79207   0.00000  Uiso   1.00
O85    O     0.81762   0.45781   0.47425   0.00000  Uiso   1.00
O86    O     0.80959   0.56382   0.71843   0.00000  Uiso   1.00
N87    N     0.78889   0.76548   0.76586   0.00000  Uiso   1.00
N88    N     0.77383   0.48546   0.25200   0.00000  Uiso   1.00
N89    N     0.05549   0.56099   0.71343   0.00000  Uiso   1.00
N90    N     0.68738   0.80581   0.93478   0.00000  Uiso   1.00
N91    N     0.67232   0.52579   0.42092   0.00000  Uiso   1.00
N92    N     0.95399   0.60132   0.88234   0.00000  Uiso   1.00
C93    C     0.45168   0.10045   0.39551   0.00000  Uiso   1.00
C94    C     0.41021   0.15579   0.40105   0.00000  Uiso   1.00
C95    C     0.31878   0.17985   0.31162   0.00000  Uiso   1.00
C96    C     0.29444   0.23065   0.33393   0.00000  Uiso   1.00
C97    C     0.22011   0.31265   0.32616   0.00000  Uiso   1.00
C98    C     0.41434   0.07861   0.53504   0.00000  Uiso   1.00
C99    C     0.32639   0.03779   0.55826   0.00000  Uiso   1.00
C100   C     0.30555   0.02362   0.69337   0.00000  Uiso   1.00
C101   C     0.23772   0.98579   0.89361   0.00000  Uiso   1.00
C102   C     0.61230   0.09944   0.38659   0.00000  Uiso   1.00
C103   C     0.69082   0.07611   0.28502   0.00000  Uiso   1.00
C104   C     0.83665   0.07946   0.29517   0.00000  Uiso   1.00
C105   C     0.07620   0.07396   0.26492   0.00000  Uiso   1.00
C106   C     0.57105   0.14787   0.59416   0.00000  Uiso   1.00
C107   C     0.47504   0.18154   0.50895   0.00000  Uiso   1.00
C108   C     0.45084   0.23232   0.53140   0.00000  Uiso   1.00
C109   C     0.35939   0.25645   0.44202   0.00000  Uiso   1.00
C110   C     0.47917   0.10437   0.64294   0.00000  Uiso   1.00
C111   C     0.45846   0.09026   0.77804   0.00000  Uiso   1.00
C112   C     0.37050   0.04942   0.80146   0.00000  Uiso   1.00
C113   C     0.67714   0.12520   0.49449   0.00000  Uiso   1.00
C114   C     0.82288   0.12858   0.50480   0.00000  Uiso   1.00
C115   C     0.90161   0.10527   0.40327   0.00000  Uiso   1.00
H116   H     0.40120   0.08039   0.31152   0.00000  Uiso   1.00
H117   H     0.26861   0.15990   0.22814   0.00000  Uiso   1.00
H118   H     0.27624   0.01786   0.47474   0.00000  Uiso   1.00
H119   H     0.64061   0.05618   0.20155   0.00000  Uiso   1.00
H120   H     0.15016   0.25941   0.18332   0.00000  Uiso   1.00
H121   H     0.16629   0.95990   0.70329   0.00000  Uiso   1.00
H122   H     0.93463   0.04070   0.12719   0.00000  Uiso   1.00
H123   H     0.62153   0.16792   0.67817   0.00000  Uiso   1.00
H124   H     0.50103   0.25224   0.61491   0.00000  Uiso   1.00
H125   H     0.50866   0.11020   0.86151   0.00000  Uiso   1.00
H126   H     0.87302   0.14852   0.58831   0.00000  Uiso   1.00
H127   H     0.33879   0.33435   0.49723   0.00000  Uiso   1.00
H128   H     0.35493   0.03484   0.01720   0.00000  Uiso   1.00
H129   H     0.12326   0.11564   0.44111   0.00000  Uiso   1.00
O130   O     0.16119   0.35076   0.29207   0.00000  Uiso   1.00
O131   O     0.18238   0.95781   0.97425   0.00000  Uiso   1.00
O132   O     0.19041   0.06382   0.21843   0.00000  Uiso   1.00
N133   N     0.21111   0.26548   0.26586   0.00000  Uiso   1.00
N134   N     0.22617   0.98546   0.75200   0.00000  Uiso   1.00
N135   N     0.94451   0.06099   0.21343   0.00000  Uiso   1.00
N136   N     0.31262   0.30581   0.43478   0.00000  Uiso   1.00
N137   N     0.32768   0.02579   0.92092   0.00000  Uiso   1.00
N138   N     0.04601   0.10132   0.38234   0.00000  Uiso   1.00
C139   C     0.54832   0.89955   0.39551   0.00000  Uiso   1.00
C140   C     0.58979   0.84421   0.40105   0.00000  Uiso   1.00
C141   C     0.68122   0.82015   0.31162   0.00000  Uiso   1.00
C142   C     0.70556   0.76935   0.33393   0.00000  Uiso   1.00
C143   C     0.77989   0.68735   0.32616   0.00000  Uiso   1.00
C144   C     0.58566   0.92139   0.53504   0.00000  Uiso   1.00
C145   C     0.67361   0.96221   0.55826   0.00000  Uiso   1.00
C146   C     0.69445   0.97638   0.69337   0.00000  Uiso   1.00
C147   C     0.76228   0.01421   0.89361   0.00000  Uiso   1.00
C148   C     0.38770   0.90056   0.38659   0.00000  Uiso   1.00
C149   C     0.30918   0.92389   0.28502   0.00000  Uiso   1.00
C150   C     0.16335   0.92054   0.29517   0.00000  Uiso   1.00
C151   C     0.92380   0.92604   0.26492   0.00000  Uiso   1.00
C152   C     0.42895   0.85213   0.59416   0.00000  Uiso   1.00
C153   C     0.52496   0.81846   0.50895   0.00000  Uiso   1.00
C154   C     0.54916   0.76768   0.53140   0.00000  Uiso   1.00
C155   C     0.64061   0.74355   0.44202   0.00000  Uiso   1.00
C156   C     0.52083   0.89563   0.64294   0.00000  Uiso   1.00
C157   C     0.54154   0.90974   0.77804   0.00000  Uiso   1.00
C158   C     0.62950   0.95058   0.80146   0.00000  Uiso   1.00
C159   C     0.32286   0.87480   0.49449   0.00000  Uiso   1.00
C160   C     0.17712   0.87142   0.50480   0.00000  Uiso   1.00
C161   C     0.09839   0.89473   0.40327   0.00000  Uiso   1.00
H162   H     0.59880   0.91961   0.31152   0.00000  Uiso   1.00
H163   H     0.73139   0.84010   0.22814   0.00000  Uiso   1.00
H164   H     0.72376   0.98214   0.47474   0.00000  Uiso   1.00
H165   H     0.35939   0.94382   0.20155   0.00000  Uiso   1.00
H166   H     0.84984   0.74059   0.18332   0.00000  Uiso   1.00
H167   H     0.83371   0.04010   0.70329   0.00000  Uiso   1.00
H168   H     0.06537   0.95930   0.12719   0.00000  Uiso   1.00
H169   H     0.37847   0.83208   0.67817   0.00000  Uiso   1.00
H170   H     0.49897   0.74776   0.61491   0.00000  Uiso   1.00
H171   H     0.49134   0.88980   0.86151   0.00000  Uiso   1.00
H172   H     0.12698   0.85148   0.58831   0.00000  Uiso   1.00
H173   H     0.66121   0.66565   0.49723   0.00000  Uiso   1.00
H174   H     0.64507   0.96516   0.01720   0.00000  Uiso   1.00
H175   H     0.87674   0.88436   0.44111   0.00000  Uiso   1.00
O176   O     0.83881   0.64924   0.29207   0.00000  Uiso   1.00
O177   O     0.81762   0.04219   0.97425   0.00000  Uiso   1.00
O178   O     0.80959   0.93618   0.21843   0.00000  Uiso   1.00
N179   N     0.78889   0.73452   0.26586   0.00000  Uiso   1.00
N180   N     0.77383   0.01454   0.75200   0.00000  Uiso   1.00
N181   N     0.05549   0.93901   0.21343   0.00000  Uiso   1.00
N182   N     0.68738   0.69419   0.43478   0.00000  Uiso   1.00
N183   N     0.67232   0.97421   0.92092   0.00000  Uiso   1.00
N184   N     0.95399   0.89868   0.38234   0.00000  Uiso   1.00
