data_job_06654
_audit_creation_date              2018-12-19
_audit_creation_method            'Materials Studio'
_symmetry_space_group_name_H-M    'P1'
_symmetry_Int_Tables_number       1
_symmetry_cell_setting            triclinic
loop_
_symmetry_equiv_pos_as_xyz
  x,y,z
_cell_length_a                    13.9082
_cell_length_b                    24.3605
_cell_length_c                    25.6576
_cell_angle_alpha                 114.4582
_cell_angle_beta                  74.2908
_cell_angle_gamma                 102.5633
loop_
_atom_site_label
_atom_site_type_symbol
_atom_site_fract_x
_atom_site_fract_y
_atom_site_fract_z
_atom_site_U_iso_or_equiv
_atom_site_adp_type
_atom_site_occupancy
C1     C     0.48711   0.02369   0.64102   0.00000  Uiso   1.00
C2     C     0.43492   0.00245   0.58960   0.00000  Uiso   1.00
C3     C     0.44706   0.94924   0.54044   0.00000  Uiso   1.00
C4     C     0.39262   0.93799   0.49825   0.00000  Uiso   1.00
C5     C     0.32138   0.89885   0.41736   0.00000  Uiso   1.00
C6     C     0.54198   0.08670   0.64665   0.00000  Uiso   1.00
C7     C     0.64415   0.10432   0.64547   0.00000  Uiso   1.00
C8     C     0.67984   0.16399   0.65132   0.00000  Uiso   1.00
C9     C     0.77481   0.25566   0.65904   0.00000  Uiso   1.00
C10    C     0.40341   0.03309   0.69538   0.00000  Uiso   1.00
C11    C     0.38906   0.00565   0.73517   0.00000  Uiso   1.00
C12    C     0.30809   0.02020   0.78206   0.00000  Uiso   1.00
C13    C     0.18791   0.02864   0.86544   0.00000  Uiso   1.00
C14    C     0.36885   0.09834   0.65353   0.00000  Uiso   1.00
C15    C     0.37068   0.04300   0.59639   0.00000  Uiso   1.00
C16    C     0.31621   0.03182   0.55427   0.00000  Uiso   1.00
C17    C     0.32827   0.97860   0.50506   0.00000  Uiso   1.00
C18    C     0.47775   0.12724   0.65344   0.00000  Uiso   1.00
C19    C     0.51330   0.18690   0.65930   0.00000  Uiso   1.00
C20    C     0.61548   0.20461   0.65812   0.00000  Uiso   1.00
C21    C     0.33917   0.07364   0.70217   0.00000  Uiso   1.00
C22    C     0.25821   0.08824   0.74901   0.00000  Uiso   1.00
C23    C     0.24374   0.06082   0.78886   0.00000  Uiso   1.00
H24    H     0.53713   0.99213   0.63573   0.00000  Uiso   1.00
H25    H     0.49678   0.91787   0.53520   0.00000  Uiso   1.00
H26    H     0.69383   0.07293   0.64022   0.00000  Uiso   1.00
H27    H     0.43879   0.97428   0.72990   0.00000  Uiso   1.00
H28    H     0.42375   0.85344   0.42672   0.00000  Uiso   1.00
H29    H     0.83924   0.18039   0.64817   0.00000  Uiso   1.00
H30    H     0.30143   0.97236   0.83730   0.00000  Uiso   1.00
H31    H     0.31884   0.12991   0.65881   0.00000  Uiso   1.00
H32    H     0.26650   0.06321   0.55954   0.00000  Uiso   1.00
H33    H     0.46356   0.21827   0.66456   0.00000  Uiso   1.00
H34    H     0.20852   0.11962   0.75425   0.00000  Uiso   1.00
H35    H     0.23685   0.97140   0.44648   0.00000  Uiso   1.00
H36    H     0.65234   0.29835   0.66794   0.00000  Uiso   1.00
H37    H     0.11453   0.09033   0.85706   0.00000  Uiso   1.00
O38    O     0.29984   0.86606   0.37087   0.00000  Uiso   1.00
O39    O     0.84494   0.29502   0.66142   0.00000  Uiso   1.00
O40    O     0.13935   0.02209   0.90955   0.00000  Uiso   1.00
N41    N     0.38693   0.89035   0.44500   0.00000  Uiso   1.00
N42    N     0.77539   0.19603   0.65204   0.00000  Uiso   1.00
N43    N     0.27260   0.00155   0.82887   0.00000  Uiso   1.00
N44    N     0.28636   0.95382   0.45563   0.00000  Uiso   1.00
N45    N     0.67482   0.25950   0.66267   0.00000  Uiso   1.00
N46    N     0.17203   0.06503   0.83950   0.00000  Uiso   1.00
C47    C     0.35746   0.37312   0.20779   0.00000  Uiso   1.00
C48    C     0.31420   0.43275   0.24690   0.00000  Uiso   1.00
C49    C     0.36062   0.49020   0.24990   0.00000  Uiso   1.00
C50    C     0.30869   0.53903   0.28844   0.00000  Uiso   1.00
C51    C     0.25598   0.63290   0.34398   0.00000  Uiso   1.00
C52    C     0.35885   0.34221   0.24848   0.00000  Uiso   1.00
C53    C     0.44281   0.32352   0.25279   0.00000  Uiso   1.00
C54    C     0.42846   0.29613   0.29265   0.00000  Uiso   1.00
C55    C     0.44507   0.24939   0.35060   0.00000  Uiso   1.00
C56    C     0.27956   0.33382   0.17124   0.00000  Uiso   1.00
C57    C     0.29685   0.30807   0.11061   0.00000  Uiso   1.00
C58    C     0.21574   0.27360   0.08545   0.00000  Uiso   1.00
C59    C     0.10923   0.21384   0.02349   0.00000  Uiso   1.00
C60    C     0.18268   0.35769   0.27090   0.00000  Uiso   1.00
C61    C     0.21927   0.42437   0.28118   0.00000  Uiso   1.00
C62    C     0.16725   0.47312   0.31972   0.00000  Uiso   1.00
C63    C     0.21358   0.53063   0.32278   0.00000  Uiso   1.00
C64    C     0.26392   0.33383   0.28276   0.00000  Uiso   1.00
C65    C     0.24944   0.30645   0.32262   0.00000  Uiso   1.00
C66    C     0.33336   0.28773   0.32699   0.00000  Uiso   1.00
C67    C     0.18462   0.32544   0.20552   0.00000  Uiso   1.00
C68    C     0.10347   0.29100   0.18045   0.00000  Uiso   1.00
C69    C     0.12064   0.26520   0.11979   0.00000  Uiso   1.00
H70    H     0.43137   0.37964   0.18110   0.00000  Uiso   1.00
H71    H     0.43409   0.49666   0.22336   0.00000  Uiso   1.00
H72    H     0.51627   0.33001   0.22625   0.00000  Uiso   1.00
H73    H     0.37032   0.31456   0.08410   0.00000  Uiso   1.00
H74    H     0.39526   0.62271   0.28536   0.00000  Uiso   1.00
H75    H     0.56853   0.27129   0.29143   0.00000  Uiso   1.00
H76    H     0.26078   0.23872   0.99168   0.00000  Uiso   1.00
H77    H     0.10877   0.35116   0.29759   0.00000  Uiso   1.00
H78    H     0.09379   0.46662   0.34625   0.00000  Uiso   1.00
H79    H     0.17596   0.29997   0.34914   0.00000  Uiso   1.00
H80    H     0.03002   0.28452   0.20699   0.00000  Uiso   1.00
H81    H     0.11906   0.59833   0.38510   0.00000  Uiso   1.00
H82    H     0.29233   0.24691   0.39117   0.00000  Uiso   1.00
H83    H     0.98457   0.21434   0.09142   0.00000  Uiso   1.00
O84    O     0.25314   0.68699   0.36515   0.00000  Uiso   1.00
O85    O     0.48046   0.22593   0.37310   0.00000  Uiso   1.00
O86    O     0.07669   0.18320   0.97984   0.00000  Uiso   1.00
N87    N     0.33231   0.60113   0.30214   0.00000  Uiso   1.00
N88    N     0.49430   0.27258   0.30783   0.00000  Uiso   1.00
N89    N     0.20659   0.24211   0.02759   0.00000  Uiso   1.00
N90    N     0.18368   0.58801   0.35581   0.00000  Uiso   1.00
N91    N     0.34568   0.25946   0.36150   0.00000  Uiso   1.00
N92    N     0.05796   0.22899   0.08125   0.00000  Uiso   1.00
C93    C     0.32321   0.67803   0.84771   0.00000  Uiso   1.00
C94    C     0.26425   0.63548   0.87844   0.00000  Uiso   1.00
C95    C     0.24737   0.64844   0.93796   0.00000  Uiso   1.00
C96    C     0.19161   0.60348   0.95752   0.00000  Uiso   1.00
C97    C     0.10580   0.54590   0.01111   0.00000  Uiso   1.00
C98    C     0.40610   0.64339   0.80063   0.00000  Uiso   1.00
C99    C     0.50849   0.66300   0.79473   0.00000  Uiso   1.00
C100   C     0.57215   0.62470   0.74878   0.00000  Uiso   1.00
C101   C     0.70656   0.57941   0.68154   0.00000  Uiso   1.00
C102   C     0.25201   0.68470   0.81532   0.00000  Uiso   1.00
C103   C     0.22485   0.73906   0.82175   0.00000  Uiso   1.00
C104   C     0.15880   0.73554   0.78816   0.00000  Uiso   1.00
C105   C     0.05396   0.75441   0.74373   0.00000  Uiso   1.00
C106   C     0.25422   0.57513   0.77659   0.00000  Uiso   1.00
C107   C     0.22678   0.57959   0.83981   0.00000  Uiso   1.00
C108   C     0.17103   0.53460   0.85928   0.00000  Uiso   1.00
C109   C     0.15407   0.54749   0.91882   0.00000  Uiso   1.00
C110   C     0.36863   0.58750   0.76200   0.00000  Uiso   1.00
C111   C     0.43215   0.54916   0.71605   0.00000  Uiso   1.00
C112   C     0.53461   0.56871   0.71008   0.00000  Uiso   1.00
C113   C     0.21453   0.62881   0.77669   0.00000  Uiso   1.00
C114   C     0.14851   0.62521   0.74308   0.00000  Uiso   1.00
C115   C     0.12126   0.67955   0.74946   0.00000  Uiso   1.00
H116   H     0.35239   0.72154   0.87778   0.00000  Uiso   1.00
H117   H     0.27639   0.69170   0.96784   0.00000  Uiso   1.00
H118   H     0.53747   0.70626   0.82462   0.00000  Uiso   1.00
H119   H     0.25387   0.78230   0.85165   0.00000  Uiso   1.00
H120   H     0.17563   0.63396   0.05065   0.00000  Uiso   1.00
H121   H     0.72612   0.66466   0.74866   0.00000  Uiso   1.00
H122   H     0.12811   0.82502   0.80565   0.00000  Uiso   1.00
H123   H     0.22504   0.53162   0.74652   0.00000  Uiso   1.00
H124   H     0.14204   0.49135   0.82938   0.00000  Uiso   1.00
H125   H     0.40312   0.50591   0.68617   0.00000  Uiso   1.00
H126   H     0.11953   0.58196   0.71319   0.00000  Uiso   1.00
H127   H     0.06659   0.47135   0.93827   0.00000  Uiso   1.00
H128   H     0.61709   0.50206   0.63628   0.00000  Uiso   1.00
H129   H     0.01907   0.66241   0.69327   0.00000  Uiso   1.00
O130   O     0.06884   0.52958   0.05134   0.00000  Uiso   1.00
O131   O     0.79106   0.56988   0.65513   0.00000  Uiso   1.00
O132   O     0.00648   0.78026   0.72990   0.00000  Uiso   1.00
N133   N     0.16134   0.60122   0.01283   0.00000  Uiso   1.00
N134   N     0.67602   0.62992   0.73050   0.00000  Uiso   1.00
N135   N     0.11695   0.77984   0.78376   0.00000  Uiso   1.00
N136   N     0.10267   0.51372   0.95236   0.00000  Uiso   1.00
N137   N     0.61735   0.54242   0.67003   0.00000  Uiso   1.00
N138   N     0.05828   0.69234   0.72329   0.00000  Uiso   1.00
C139   C     0.76765   0.62892   0.85834   0.00000  Uiso   1.00
C140   C     0.66755   0.59024   0.84749   0.00000  Uiso   1.00
C141   C     0.65514   0.53502   0.80152   0.00000  Uiso   1.00
C142   C     0.55743   0.50670   0.79930   0.00000  Uiso   1.00
C143   C     0.41454   0.44266   0.77604   0.00000  Uiso   1.00
C144   C     0.77362   0.63817   0.91996   0.00000  Uiso   1.00
C145   C     0.85041   0.62325   0.93492   0.00000  Uiso   1.00
C146   C     0.84199   0.63529   0.99371   0.00000  Uiso   1.00
C147   C     0.86380   0.64570   0.08296   0.00000  Uiso   1.00
C148   C     0.75796   0.69119   0.86089   0.00000  Uiso   1.00
C149   C     0.82159   0.72087   0.82620   0.00000  Uiso   1.00
C150   C     0.80000   0.77755   0.83526   0.00000  Uiso   1.00
C151   C     0.79749   0.87029   0.83280   0.00000  Uiso   1.00
C152   C     0.61618   0.67683   0.93614   0.00000  Uiso   1.00
C153   C     0.58529   0.61626   0.88975   0.00000  Uiso   1.00
C154   C     0.48757   0.58802   0.88759   0.00000  Uiso   1.00
C155   C     0.47501   0.53277   0.84163   0.00000  Uiso   1.00
C156   C     0.69136   0.66419   0.96222   0.00000  Uiso   1.00
C157   C     0.68283   0.67626   0.02099   0.00000  Uiso   1.00
C158   C     0.75957   0.66136   0.03604   0.00000  Uiso   1.00
C159   C     0.67569   0.71721   0.90315   0.00000  Uiso   1.00
C160   C     0.65400   0.77387   0.91227   0.00000  Uiso   1.00
C161   C     0.71758   0.80362   0.87759   0.00000  Uiso   1.00
H162   H     0.83170   0.60867   0.82545   0.00000  Uiso   1.00
H163   H     0.71883   0.51489   0.76883   0.00000  Uiso   1.00
H164   H     0.91407   0.60312   0.90221   0.00000  Uiso   1.00
H165   H     0.88524   0.70072   0.79350   0.00000  Uiso   1.00
H166   H     0.55742   0.42239   0.72471   0.00000  Uiso   1.00
H167   H     0.96910   0.60844   0.00596   0.00000  Uiso   1.00
H168   H     0.90833   0.81425   0.77672   0.00000  Uiso   1.00
H169   H     0.55213   0.69709   0.96904   0.00000  Uiso   1.00
H170   H     0.42392   0.60817   0.92030   0.00000  Uiso   1.00
H171   H     0.61915   0.69639   0.05368   0.00000  Uiso   1.00
H172   H     0.59033   0.79399   0.94497   0.00000  Uiso   1.00
H173   H     0.31806   0.49810   0.84765   0.00000  Uiso   1.00
H174   H     0.72974   0.68415   0.12890   0.00000  Uiso   1.00
H175   H     0.66897   0.88995   0.89966   0.00000  Uiso   1.00
O176   O     0.35844   0.40014   0.75154   0.00000  Uiso   1.00
O177   O     0.89856   0.64425   0.12052   0.00000  Uiso   1.00
O178   O     0.81883   0.91425   0.81976   0.00000  Uiso   1.00
N179   N     0.51868   0.45242   0.76033   0.00000  Uiso   1.00
N180   N     0.90357   0.62636   0.02327   0.00000  Uiso   1.00
N181   N     0.84677   0.81877   0.80896   0.00000  Uiso   1.00
N182   N     0.38988   0.49315   0.82648   0.00000  Uiso   1.00
N183   N     0.77477   0.66709   0.08942   0.00000  Uiso   1.00
N184   N     0.71797   0.85951   0.87512   0.00000  Uiso   1.00
C185   C     0.80992   0.35348   0.20564   0.00000  Uiso   1.00
C186   C     0.74253   0.37106   0.26645   0.00000  Uiso   1.00
C187   C     0.72639   0.34077   0.30405   0.00000  Uiso   1.00
C188   C     0.66208   0.36403   0.35778   0.00000  Uiso   1.00
C189   C     0.56454   0.38349   0.44985   0.00000  Uiso   1.00
C190   C     0.88538   0.40935   0.20614   0.00000  Uiso   1.00
C191   C     0.98933   0.41125   0.19303   0.00000  Uiso   1.00
C192   C     0.04526   0.46674   0.19599   0.00000  Uiso   1.00
C193   C     0.16949   0.54563   0.19439   0.00000  Uiso   1.00
C194   C     0.74327   0.34524   0.16391   0.00000  Uiso   1.00
C195   C     0.72776   0.29325   0.11528   0.00000  Uiso   1.00
C196   C     0.66406   0.29477   0.08266   0.00000  Uiso   1.00
C197   C     0.56765   0.27413   0.01549   0.00000  Uiso   1.00
C198   C     0.72441   0.44865   0.23419   0.00000  Uiso   1.00
C199   C     0.69609   0.42276   0.28196   0.00000  Uiso   1.00
C200   C     0.63178   0.44607   0.33564   0.00000  Uiso   1.00
C201   C     0.61554   0.41582   0.37332   0.00000  Uiso   1.00
C202   C     0.83894   0.46104   0.22165   0.00000  Uiso   1.00
C203   C     0.89472   0.51654   0.22462   0.00000  Uiso   1.00
C204   C     0.99873   0.51852   0.21152   0.00000  Uiso   1.00
C205   C     0.69682   0.39694   0.17942   0.00000  Uiso   1.00
C206   C     0.63314   0.39855   0.14687   0.00000  Uiso   1.00
C207   C     0.61753   0.34656   0.09820   0.00000  Uiso   1.00
H208   H     0.84609   0.31323   0.19357   0.00000  Uiso   1.00
H209   H     0.76236   0.30077   0.29204   0.00000  Uiso   1.00
H210   H     0.02525   0.37123   0.18103   0.00000  Uiso   1.00
H211   H     0.76371   0.25325   0.10329   0.00000  Uiso   1.00
H212   H     0.64906   0.30976   0.40806   0.00000  Uiso   1.00
H213   H     0.20340   0.45833   0.17397   0.00000  Uiso   1.00
H214   H     0.65190   0.20955   0.01003   0.00000  Uiso   1.00
H215   H     0.68825   0.48890   0.24627   0.00000  Uiso   1.00
H216   H     0.59585   0.48607   0.34763   0.00000  Uiso   1.00
H217   H     0.85875   0.55653   0.23662   0.00000  Uiso   1.00
H218   H     0.59721   0.43856   0.15888   0.00000  Uiso   1.00
H219   H     0.51393   0.46016   0.45318   0.00000  Uiso   1.00
H220   H     0.06827   0.60873   0.21909   0.00000  Uiso   1.00
H221   H     0.51676   0.35995   0.05516   0.00000  Uiso   1.00
O222   O     0.52359   0.37995   0.49636   0.00000  Uiso   1.00
O223   O     0.25085   0.57486   0.18922   0.00000  Uiso   1.00
O224   O     0.52729   0.24846   0.97415   0.00000  Uiso   1.00
N225   N     0.62992   0.34554   0.40476   0.00000  Uiso   1.00
N226   N     0.14820   0.48444   0.18591   0.00000  Uiso   1.00
N227   N     0.63261   0.25186   0.03264   0.00000  Uiso   1.00
N228   N     0.55721   0.42647   0.42904   0.00000  Uiso   1.00
N229   N     0.07548   0.56537   0.21019   0.00000  Uiso   1.00
N230   N     0.55989   0.33279   0.05692   0.00000  Uiso   1.00
C231   C     0.97698   0.93833   0.53199   0.00000  Uiso   1.00
C232   C     0.95611   0.99516   0.52785   0.00000  Uiso   1.00
C233   C     0.01725   0.05033   0.54027   0.00000  Uiso   1.00
C234   C     0.98494   0.09679   0.53380   0.00000  Uiso   1.00
C235   C     0.96629   0.18632   0.53012   0.00000  Uiso   1.00
C236   C     0.97548   0.88807   0.47179   0.00000  Uiso   1.00
C237   C     0.05290   0.85321   0.43708   0.00000  Uiso   1.00
C238   C     0.03688   0.80951   0.38341   0.00000  Uiso   1.00
C239   C     0.04828   0.73276   0.29272   0.00000  Uiso   1.00
C240   C     0.88553   0.92105   0.57331   0.00000  Uiso   1.00
C241   C     0.88731   0.91390   0.62395   0.00000  Uiso   1.00
C242   C     0.79556   0.89795   0.65575   0.00000  Uiso   1.00
C243   C     0.66728   0.87240   0.72268   0.00000  Uiso   1.00
C244   C     0.81089   0.92272   0.49841   0.00000  Uiso   1.00
C245   C     0.86590   0.98668   0.50961   0.00000  Uiso   1.00
C246   C     0.83349   0.03307   0.50312   0.00000  Uiso   1.00
C247   C     0.89456   0.08830   0.51553   0.00000  Uiso   1.00
C248   C     0.88527   0.87960   0.45355   0.00000  Uiso   1.00
C249   C     0.86914   0.83594   0.39993   0.00000  Uiso   1.00
C250   C     0.94651   0.80102   0.36514   0.00000  Uiso   1.00
C251   C     0.79531   0.91258   0.55507   0.00000  Uiso   1.00
C252   C     0.70355   0.89663   0.58680   0.00000  Uiso   1.00
C253   C     0.70518   0.88946   0.63748   0.00000  Uiso   1.00
H254   H     0.04721   0.94492   0.54619   0.00000  Uiso   1.00
H255   H     0.08706   0.05687   0.55438   0.00000  Uiso   1.00
H256   H     0.12270   0.85977   0.45121   0.00000  Uiso   1.00
H257   H     0.95713   0.92046   0.63805   0.00000  Uiso   1.00
H258   H     0.09147   0.17725   0.55540   0.00000  Uiso   1.00
H259   H     0.16660   0.76164   0.33786   0.00000  Uiso   1.00
H260   H     0.81748   0.88960   0.73186   0.00000  Uiso   1.00
H261   H     0.74065   0.91612   0.48421   0.00000  Uiso   1.00
H262   H     0.76367   0.02649   0.48900   0.00000  Uiso   1.00
H263   H     0.79931   0.82939   0.38583   0.00000  Uiso   1.00
H264   H     0.63375   0.89008   0.57267   0.00000  Uiso   1.00
H265   H     0.82900   0.15259   0.50233   0.00000  Uiso   1.00
H266   H     0.90413   0.73697   0.28480   0.00000  Uiso   1.00
H267   H     0.55501   0.86494   0.67879   0.00000  Uiso   1.00
O268   O     0.98093   0.23804   0.53312   0.00000  Uiso   1.00
O269   O     0.07949   0.69277   0.24773   0.00000  Uiso   1.00
O270   O     0.62145   0.86065   0.76464   0.00000  Uiso   1.00
N271   N     0.02653   0.15630   0.54226   0.00000  Uiso   1.00
N272   N     0.09678   0.76774   0.33888   0.00000  Uiso   1.00
N273   N     0.77038   0.88735   0.70722   0.00000  Uiso   1.00
N274   N     0.88530   0.14303   0.51371   0.00000  Uiso   1.00
N275   N     0.95554   0.75447   0.31032   0.00000  Uiso   1.00
N276   N     0.62914   0.87408   0.67866   0.00000  Uiso   1.00
C277   C     0.18502   0.10605   0.31019   0.00000  Uiso   1.00
C278   C     0.22207   0.12464   0.36661   0.00000  Uiso   1.00
C279   C     0.19467   0.17334   0.41815   0.00000  Uiso   1.00
C280   C     0.23682   0.18279   0.46488   0.00000  Uiso   1.00
C281   C     0.28409   0.21741   0.55320   0.00000  Uiso   1.00
C282   C     0.13861   0.03998   0.29526   0.00000  Uiso   1.00
C283   C     0.04105   0.01748   0.28680   0.00000  Uiso   1.00
C284   C     0.01296   0.95566   0.27345   0.00000  Uiso   1.00
C285   C     0.93069   0.85882   0.25096   0.00000  Uiso   1.00
C286   C     0.27905   0.10569   0.26278   0.00000  Uiso   1.00
C287   C     0.29957   0.13843   0.22700   0.00000  Uiso   1.00
C288   C     0.38972   0.13191   0.18630   0.00000  Uiso   1.00
C289   C     0.52551   0.13711   0.11338   0.00000  Uiso   1.00
C290   C     0.30860   0.03624   0.30153   0.00000  Uiso   1.00
C291   C     0.28919   0.08672   0.36190   0.00000  Uiso   1.00
C292   C     0.33140   0.09610   0.40857   0.00000  Uiso   1.00
C293   C     0.30407   0.14480   0.46017   0.00000  Uiso   1.00
C294   C     0.20573   0.00206   0.29055   0.00000  Uiso   1.00
C295   C     0.17778   0.94025   0.27721   0.00000  Uiso   1.00
C296   C     0.08020   0.91767   0.26874   0.00000  Uiso   1.00
C297   C     0.34618   0.06777   0.25807   0.00000  Uiso   1.00
C298   C     0.43631   0.06120   0.21742   0.00000  Uiso   1.00
C299   C     0.45696   0.09393   0.18158   0.00000  Uiso   1.00
H300   H     0.13275   0.13557   0.31386   0.00000  Uiso   1.00
H301   H     0.14271   0.20267   0.42178   0.00000  Uiso   1.00
H302   H     0.98912   0.04684   0.29044   0.00000  Uiso   1.00
H303   H     0.24761   0.16777   0.23065   0.00000  Uiso   1.00
H304   H     0.18332   0.26033   0.53936   0.00000  Uiso   1.00
H305   H     0.85949   0.93175   0.26240   0.00000  Uiso   1.00
H306   H     0.40455   0.18675   0.13633   0.00000  Uiso   1.00
H307   H     0.36086   0.00672   0.29786   0.00000  Uiso   1.00
H308   H     0.38334   0.06675   0.40491   0.00000  Uiso   1.00
H309   H     0.22975   0.91092   0.27357   0.00000  Uiso   1.00
H310   H     0.48824   0.03185   0.21379   0.00000  Uiso   1.00
H311   H     0.37862   0.15001   0.52567   0.00000  Uiso   1.00
H312   H     0.05479   0.82143   0.24871   0.00000  Uiso   1.00
H313   H     0.59986   0.07643   0.12264   0.00000  Uiso   1.00
O314   O     0.29162   0.24697   0.60323   0.00000  Uiso   1.00
O315   O     0.86676   0.81589   0.23986   0.00000  Uiso   1.00
O316   O     0.58188   0.15045   0.07446   0.00000  Uiso   1.00
N317   N     0.22622   0.22613   0.52144   0.00000  Uiso   1.00
N318   N     0.92344   0.91893   0.26251   0.00000  Uiso   1.00
N319   N     0.43302   0.15733   0.14464   0.00000  Uiso   1.00
N320   N     0.33131   0.16677   0.51408   0.00000  Uiso   1.00
N321   N     0.02854   0.85957   0.25515   0.00000  Uiso   1.00
N322   N     0.53812   0.09797   0.13727   0.00000  Uiso   1.00
C323   C     0.79688   0.68699   0.55783   0.00000  Uiso   1.00
C324   C     0.82103   0.62408   0.51365   0.00000  Uiso   1.00
C325   C     0.79472   0.57069   0.52409   0.00000  Uiso   1.00
C326   C     0.82378   0.51782   0.47797   0.00000  Uiso   1.00
C327   C     0.85311   0.42005   0.41766   0.00000  Uiso   1.00
C328   C     0.73955   0.71037   0.52979   0.00000  Uiso   1.00
C329   C     0.64473   0.72952   0.55380   0.00000  Uiso   1.00
C330   C     0.60521   0.74930   0.52126   0.00000  Uiso   1.00
C331   C     0.50806   0.78553   0.48603   0.00000  Uiso   1.00
C332   C     0.89748   0.72724   0.56121   0.00000  Uiso   1.00
C333   C     0.93544   0.76061   0.61164   0.00000  Uiso   1.00
C334   C     0.02887   0.79461   0.60556   0.00000  Uiso   1.00
C335   C     0.17694   0.85704   0.61911   0.00000  Uiso   1.00
C336   C     0.89528   0.68806   0.45737   0.00000  Uiso   1.00
C337   C     0.87448   0.62466   0.45908   0.00000  Uiso   1.00
C338   C     0.90359   0.57187   0.41293   0.00000  Uiso   1.00
C339   C     0.87733   0.51840   0.42330   0.00000  Uiso   1.00
C340   C     0.79299   0.71095   0.47522   0.00000  Uiso   1.00
C341   C     0.75360   0.73070   0.44265   0.00000  Uiso   1.00
C342   C     0.65875   0.74988   0.46660   0.00000  Uiso   1.00
C343   C     0.95093   0.72782   0.50664   0.00000  Uiso   1.00
C344   C     0.04431   0.76178   0.50048   0.00000  Uiso   1.00
C345   C     0.08241   0.79519   0.55089   0.00000  Uiso   1.00
H346   H     0.75527   0.68654   0.60031   0.00000  Uiso   1.00
H347   H     0.75335   0.57026   0.56632   0.00000  Uiso   1.00
H348   H     0.60340   0.72908   0.59603   0.00000  Uiso   1.00
H349   H     0.89406   0.76015   0.65386   0.00000  Uiso   1.00
H350   H     0.77477   0.44159   0.50456   0.00000  Uiso   1.00
H351   H     0.45859   0.77649   0.56721   0.00000  Uiso   1.00
H352   H     0.07151   0.84202   0.68916   0.00000  Uiso   1.00
H353   H     0.93689   0.68851   0.41488   0.00000  Uiso   1.00
H354   H     0.94495   0.57233   0.37071   0.00000  Uiso   1.00
H355   H     0.79499   0.73115   0.40042   0.00000  Uiso   1.00
H356   H     0.08565   0.76222   0.45825   0.00000  Uiso   1.00
H357   H     0.93027   0.44327   0.34580   0.00000  Uiso   1.00
H358   H     0.61409   0.77817   0.40845   0.00000  Uiso   1.00
H359   H     0.22702   0.84370   0.53039   0.00000  Uiso   1.00
O360   O     0.85451   0.36596   0.39946   0.00000  Uiso   1.00
O361   O     0.43971   0.80535   0.48167   0.00000  Uiso   1.00
O362   O     0.24385   0.89132   0.64165   0.00000  Uiso   1.00
N363   N     0.81028   0.45793   0.47326   0.00000  Uiso   1.00
N364   N     0.51466   0.77103   0.53183   0.00000  Uiso   1.00
N365   N     0.08768   0.83231   0.64584   0.00000  Uiso   1.00
N366   N     0.89395   0.45883   0.38783   0.00000  Uiso   1.00
N367   N     0.59834   0.77193   0.44640   0.00000  Uiso   1.00
N368   N     0.17136   0.83321   0.56041   0.00000  Uiso   1.00
C369   C     0.78584   0.31721   0.89087   0.00000  Uiso   1.00
C370   C     0.88171   0.33289   0.85121   0.00000  Uiso   1.00
C371   C     0.88910   0.32982   0.79505   0.00000  Uiso   1.00
C372   C     0.98354   0.34609   0.76594   0.00000  Uiso   1.00
C373   C     0.11963   0.36763   0.70038   0.00000  Uiso   1.00
C374   C     0.77312   0.37360   0.94708   0.00000  Uiso   1.00
C375   C     0.68920   0.40475   0.97154   0.00000  Uiso   1.00
C376   C     0.69222   0.45528   0.02314   0.00000  Uiso   1.00
C377   C     0.65969   0.54000   0.10645   0.00000  Uiso   1.00
C378   C     0.80860   0.26867   0.90733   0.00000  Uiso   1.00
C379   C     0.75450   0.21160   0.89838   0.00000  Uiso   1.00
C380   C     0.78738   0.17378   0.91653   0.00000  Uiso   1.00
C381   C     0.80994   0.09559   0.93812   0.00000  Uiso   1.00
C382   C     0.94040   0.35155   0.93902   0.00000  Uiso   1.00
C383   C     0.96566   0.35155   0.87736   0.00000  Uiso   1.00
C384   C     0.06012   0.36782   0.84832   0.00000  Uiso   1.00
C385   C     0.06765   0.36477   0.79213   0.00000  Uiso   1.00
C386   C     0.85707   0.39226   0.97324   0.00000  Uiso   1.00
C387   C     0.86021   0.44275   0.02481   0.00000  Uiso   1.00
C388   C     0.77633   0.47397   0.04934   0.00000  Uiso   1.00
C389   C     0.89256   0.28732   0.93348   0.00000  Uiso   1.00
C390   C     0.92552   0.24960   0.95165   0.00000  Uiso   1.00
C391   C     0.87149   0.19247   0.94273   0.00000  Uiso   1.00
H392   H     0.72047   0.30268   0.87052   0.00000  Uiso   1.00
H393   H     0.82411   0.31539   0.77483   0.00000  Uiso   1.00
H394   H     0.62424   0.39030   0.95129   0.00000  Uiso   1.00
H395   H     0.68954   0.19717   0.87814   0.00000  Uiso   1.00
H396   H     0.97604   0.33772   0.68029   0.00000  Uiso   1.00
H397   H     0.55458   0.49566   0.05238   0.00000  Uiso   1.00
H398   H     0.69226   0.08842   0.89813   0.00000  Uiso   1.00
H399   H     0.00577   0.36608   0.95939   0.00000  Uiso   1.00
H400   H     0.12507   0.38226   0.86857   0.00000  Uiso   1.00
H401   H     0.92520   0.45717   0.04504   0.00000  Uiso   1.00
H402   H     0.99049   0.26405   0.97189   0.00000  Uiso   1.00
H403   H     0.22031   0.39199   0.75637   0.00000  Uiso   1.00
H404   H     0.79884   0.54994   0.12847   0.00000  Uiso   1.00
H405   H     0.93653   0.14270   0.97422   0.00000  Uiso   1.00
O406   O     0.17150   0.37437   0.65699   0.00000  Uiso   1.00
O407   O     0.61855   0.58158   0.14517   0.00000  Uiso   1.00
O408   O     0.79920   0.04730   0.94280   0.00000  Uiso   1.00
N409   N     0.01716   0.34826   0.71065   0.00000  Uiso   1.00
N410   N     0.62312   0.49593   0.05853   0.00000  Uiso   1.00
N411   N     0.75183   0.11520   0.91434   0.00000  Uiso   1.00
N412   N     0.14860   0.37746   0.75159   0.00000  Uiso   1.00
N413   N     0.75456   0.52514   0.09947   0.00000  Uiso   1.00
N414   N     0.88327   0.14441   0.95528   0.00000  Uiso   1.00
C415   C     0.24843   0.25745   0.89243   0.00000  Uiso   1.00
C416   C     0.29229   0.32412   0.91467   0.00000  Uiso   1.00
C417   C     0.26368   0.36693   0.97035   0.00000  Uiso   1.00
C418   C     0.31287   0.42554   0.98214   0.00000  Uiso   1.00
C419   C     0.36951   0.52676   0.02311   0.00000  Uiso   1.00
C420   C     0.21047   0.24644   0.83804   0.00000  Uiso   1.00
C421   C     0.11306   0.22393   0.82929   0.00000  Uiso   1.00
C422   C     0.09339   0.21715   0.77656   0.00000  Uiso   1.00
C423   C     0.02302   0.19772   0.69855   0.00000  Uiso   1.00
C424   C     0.33726   0.22095   0.87107   0.00000  Uiso   1.00
C425   C     0.34645   0.17700   0.89008   0.00000  Uiso   1.00
C426   C     0.43352   0.14874   0.86516   0.00000  Uiso   1.00
C427   C     0.56002   0.08974   0.83843   0.00000  Uiso   1.00
C428   C     0.38669   0.28540   0.81436   0.00000  Uiso   1.00
C429   C     0.36739   0.33930   0.87226   0.00000  Uiso   1.00
C430   C     0.41664   0.39786   0.88397   0.00000  Uiso   1.00
C431   C     0.38810   0.44075   0.93966   0.00000  Uiso   1.00
C432   C     0.28556   0.26162   0.79564   0.00000  Uiso   1.00
C433   C     0.26603   0.25486   0.74291   0.00000  Uiso   1.00
C434   C     0.16861   0.23236   0.73408   0.00000  Uiso   1.00
C435   C     0.41236   0.23613   0.82867   0.00000  Uiso   1.00
C436   C     0.49942   0.20793   0.80371   0.00000  Uiso   1.00
C437   C     0.50875   0.16395   0.82267   0.00000  Uiso   1.00
H438   H     0.18996   0.24563   0.92544   0.00000  Uiso   1.00
H439   H     0.20555   0.35516   0.00315   0.00000  Uiso   1.00
H440   H     0.05497   0.21218   0.86211   0.00000  Uiso   1.00
H441   H     0.28833   0.16526   0.92289   0.00000  Uiso   1.00
H442   H     0.25592   0.48331   0.07060   0.00000  Uiso   1.00
H443   H     0.93842   0.18181   0.77320   0.00000  Uiso   1.00
H444   H     0.43050   0.08286   0.90138   0.00000  Uiso   1.00
H445   H     0.44515   0.29722   0.78134   0.00000  Uiso   1.00
H446   H     0.47475   0.40959   0.85115   0.00000  Uiso   1.00
H447   H     0.32416   0.26661   0.71011   0.00000  Uiso   1.00
H448   H     0.55752   0.21969   0.77089   0.00000  Uiso   1.00
H449   H     0.47441   0.52749   0.94723   0.00000  Uiso   1.00
H450   H     0.15691   0.22598   0.64982   0.00000  Uiso   1.00
H451   H     0.64899   0.12704   0.77800   0.00000  Uiso   1.00
O452   O     0.38001   0.57839   0.05743   0.00000  Uiso   1.00
O453   O     0.96346   0.18282   0.66724   0.00000  Uiso   1.00
O454   O     0.60906   0.05301   0.83541   0.00000  Uiso   1.00
N455   N     0.30330   0.47828   0.03199   0.00000  Uiso   1.00
N456   N     0.00645   0.19640   0.75394   0.00000  Uiso   1.00
N457   N     0.46649   0.10388   0.87376   0.00000  Uiso   1.00
N458   N     0.42086   0.50205   0.96560   0.00000  Uiso   1.00
N459   N     0.12401   0.22018   0.68755   0.00000  Uiso   1.00
N460   N     0.58405   0.12766   0.80738   0.00000  Uiso   1.00
C461   C     0.28203   0.65354   0.55631   0.00000  Uiso   1.00
C462   C     0.37837   0.63666   0.51072   0.00000  Uiso   1.00
C463   C     0.40287   0.64173   0.45662   0.00000  Uiso   1.00
C464   C     0.49455   0.62389   0.42119   0.00000  Uiso   1.00
C465   C     0.63426   0.60101   0.34763   0.00000  Uiso   1.00
C466   C     0.23418   0.59656   0.56887   0.00000  Uiso   1.00
C467   C     0.13745   0.56794   0.56366   0.00000  Uiso   1.00
C468   C     0.10777   0.51635   0.57719   0.00000  Uiso   1.00
C469   C     0.02361   0.43126   0.59396   0.00000  Uiso   1.00
C470   C     0.31526   0.69950   0.61215   0.00000  Uiso   1.00
C471   C     0.28668   0.75742   0.64335   0.00000  Uiso   1.00
C472   C     0.32523   0.79251   0.69333   0.00000  Uiso   1.00
C473   C     0.36696   0.86724   0.77730   0.00000  Uiso   1.00
C474   C     0.40129   0.61284   0.58960   0.00000  Uiso   1.00
C475   C     0.44314   0.61455   0.52880   0.00000  Uiso   1.00
C476   C     0.53482   0.59670   0.49344   0.00000  Uiso   1.00
C477   C     0.55945   0.60175   0.43930   0.00000  Uiso   1.00
C478   C     0.29896   0.57446   0.58695   0.00000  Uiso   1.00
C479   C     0.26941   0.52291   0.60049   0.00000  Uiso   1.00
C480   C     0.17266   0.49421   0.59530   0.00000  Uiso   1.00
C481   C     0.38004   0.67740   0.63023   0.00000  Uiso   1.00
C482   C     0.41864   0.71240   0.68018   0.00000  Uiso   1.00
C483   C     0.39013   0.77036   0.71145   0.00000  Uiso   1.00
H484   H     0.23159   0.67075   0.54224   0.00000  Uiso   1.00
H485   H     0.35271   0.65883   0.44264   0.00000  Uiso   1.00
H486   H     0.08734   0.58506   0.54968   0.00000  Uiso   1.00
H487   H     0.23655   0.77452   0.62935   0.00000  Uiso   1.00
H488   H     0.51554   0.63585   0.34018   0.00000  Uiso   1.00
H489   H     0.95598   0.48031   0.56590   0.00000  Uiso   1.00
H490   H     0.27061   0.87982   0.73390   0.00000  Uiso   1.00
H491   H     0.45173   0.59563   0.60367   0.00000  Uiso   1.00
H492   H     0.58493   0.57959   0.50745   0.00000  Uiso   1.00
H493   H     0.31956   0.50582   0.61448   0.00000  Uiso   1.00
H494   H     0.46877   0.69528   0.69416   0.00000  Uiso   1.00
H495   H     0.70402   0.57154   0.39278   0.00000  Uiso   1.00
H496   H     0.14446   0.41599   0.61850   0.00000  Uiso   1.00
H497   H     0.45909   0.81550   0.78650   0.00000  Uiso   1.00
O498   O     0.69342   0.59448   0.30206   0.00000  Uiso   1.00
O499   O     0.95929   0.39042   0.59820   0.00000  Uiso   1.00
O500   O     0.37209   0.91456   0.81862   0.00000  Uiso   1.00
N501   N     0.54163   0.62293   0.36577   0.00000  Uiso   1.00
N502   N     0.01848   0.47750   0.57679   0.00000  Uiso   1.00
N503   N     0.31261   0.85100   0.73387   0.00000  Uiso   1.00
N504   N     0.64305   0.58832   0.39407   0.00000  Uiso   1.00
N505   N     0.11990   0.44289   0.60509   0.00000  Uiso   1.00
N506   N     0.41403   0.81639   0.76218   0.00000  Uiso   1.00
C507   C     0.62848   0.13969   0.37413   0.00000  Uiso   1.00
C508   C     0.65518   0.08261   0.37497   0.00000  Uiso   1.00
C509   C     0.58939   0.03057   0.37394   0.00000  Uiso   1.00
C510   C     0.62842   0.98328   0.37498   0.00000  Uiso   1.00
C511   C     0.65448   0.89396   0.37600   0.00000  Uiso   1.00
C512   C     0.65743   0.19194   0.42822   0.00000  Uiso   1.00
C513   C     0.59353   0.23184   0.47196   0.00000  Uiso   1.00
C514   C     0.63445   0.27659   0.51782   0.00000  Uiso   1.00
C515   C     0.66402   0.35704   0.60150   0.00000  Uiso   1.00
C516   C     0.70048   0.15037   0.32174   0.00000  Uiso   1.00
C517   C     0.67278   0.15533   0.27595   0.00000  Uiso   1.00
C518   C     0.74995   0.16510   0.23217   0.00000  Uiso   1.00
C519   C     0.84637   0.18101   0.15052   0.00000  Uiso   1.00
C520   C     0.81478   0.14825   0.37782   0.00000  Uiso   1.00
C521   C     0.75638   0.08726   0.37697   0.00000  Uiso   1.00
C522   C     0.79551   0.04004   0.37801   0.00000  Uiso   1.00
C523   C     0.72979   0.98794   0.37698   0.00000  Uiso   1.00
C524   C     0.75862   0.19660   0.43022   0.00000  Uiso   1.00
C525   C     0.79965   0.24131   0.47603   0.00000  Uiso   1.00
C526   C     0.73582   0.28125   0.51983   0.00000  Uiso   1.00
C527   C     0.80168   0.15502   0.32374   0.00000  Uiso   1.00
C528   C     0.87890   0.16480   0.28002   0.00000  Uiso   1.00
C529   C     0.85133   0.16976   0.23418   0.00000  Uiso   1.00
H530   H     0.54969   0.13607   0.37258   0.00000  Uiso   1.00
H531   H     0.51108   0.02699   0.37239   0.00000  Uiso   1.00
H532   H     0.51522   0.22823   0.47039   0.00000  Uiso   1.00
H533   H     0.59447   0.15173   0.27442   0.00000  Uiso   1.00
H534   H     0.51289   0.90811   0.37309   0.00000  Uiso   1.00
H535   H     0.52163   0.33245   0.57972   0.00000  Uiso   1.00
H536   H     0.68873   0.17114   0.16647   0.00000  Uiso   1.00
H537   H     0.89356   0.15187   0.37938   0.00000  Uiso   1.00
H538   H     0.87382   0.04365   0.37956   0.00000  Uiso   1.00
H539   H     0.87796   0.24490   0.47756   0.00000  Uiso   1.00
H540   H     0.95720   0.16839   0.28159   0.00000  Uiso   1.00
H541   H     0.80731   0.92164   0.37891   0.00000  Uiso   1.00
H542   H     0.81604   0.34598   0.58554   0.00000  Uiso   1.00
H543   H     0.98314   0.18466   0.17229   0.00000  Uiso   1.00
O544   O     0.64090   0.84341   0.37602   0.00000  Uiso   1.00
O545   O     0.65237   0.40013   0.64710   0.00000  Uiso   1.00
O546   O     0.87159   0.18849   0.10492   0.00000  Uiso   1.00
N547   N     0.58490   0.92614   0.37442   0.00000  Uiso   1.00
N548   N     0.59306   0.32287   0.56762   0.00000  Uiso   1.00
N549   N     0.74928   0.17207   0.18127   0.00000  Uiso   1.00
N550   N     0.74332   0.93342   0.37755   0.00000  Uiso   1.00
N551   N     0.75148   0.33015   0.57075   0.00000  Uiso   1.00
N552   N     0.90770   0.17935   0.18440   0.00000  Uiso   1.00
