data_job_06218
_audit_creation_date              2018-12-19
_audit_creation_method            'Materials Studio'
_symmetry_space_group_name_H-M    'P1'
_symmetry_Int_Tables_number       1
_symmetry_cell_setting            triclinic
loop_
_symmetry_equiv_pos_as_xyz
  x,y,z
_cell_length_a                    18.0085
_cell_length_b                    17.4405
_cell_length_c                    16.3461
_cell_angle_alpha                 104.6960
_cell_angle_beta                  105.0290
_cell_angle_gamma                 103.7560
loop_
_atom_site_label
_atom_site_type_symbol
_atom_site_fract_x
_atom_site_fract_y
_atom_site_fract_z
_atom_site_U_iso_or_equiv
_atom_site_adp_type
_atom_site_occupancy
C1     C     0.26918   0.48153   0.98216   0.00000  Uiso   1.00
C2     C     0.27347   0.51483   0.90521   0.00000  Uiso   1.00
C3     C     0.31040   0.59746   0.91426   0.00000  Uiso   1.00
C4     C     0.30775   0.61526   0.83565   0.00000  Uiso   1.00
C5     C     0.32018   0.67651   0.72902   0.00000  Uiso   1.00
C6     C     0.17914   0.43926   0.96337   0.00000  Uiso   1.00
C7     C     0.13678   0.45833   0.02134   0.00000  Uiso   1.00
C8     C     0.05472   0.41250   0.99169   0.00000  Uiso   1.00
C9     C     0.92072   0.35637   0.97539   0.00000  Uiso   1.00
C10    C     0.30668   0.41147   0.97120   0.00000  Uiso   1.00
C11    C     0.37155   0.40717   0.03575   0.00000  Uiso   1.00
C12    C     0.39686   0.33794   0.01270   0.00000  Uiso   1.00
C13    C     0.46090   0.23867   0.00855   0.00000  Uiso   1.00
C14    C     0.19878   0.36621   0.82645   0.00000  Uiso   1.00
C15    C     0.23522   0.45219   0.82063   0.00000  Uiso   1.00
C16    C     0.23251   0.46987   0.74198   0.00000  Uiso   1.00
C17    C     0.26945   0.55251   0.75092   0.00000  Uiso   1.00
C18    C     0.14090   0.37662   0.87880   0.00000  Uiso   1.00
C19    C     0.05889   0.33074   0.84906   0.00000  Uiso   1.00
C20    C     0.01641   0.34975   0.90696   0.00000  Uiso   1.00
C21    C     0.26845   0.34883   0.88662   0.00000  Uiso   1.00
C22    C     0.29366   0.27959   0.86347   0.00000  Uiso   1.00
C23    C     0.35855   0.27519   0.92797   0.00000  Uiso   1.00
H24    H     0.29894   0.53029   0.04801   0.00000  Uiso   1.00
H25    H     0.33998   0.64592   0.97973   0.00000  Uiso   1.00
H26    H     0.16638   0.50680   0.08679   0.00000  Uiso   1.00
H27    H     0.40112   0.45566   0.10120   0.00000  Uiso   1.00
H28    H     0.36859   0.74649   0.86673   0.00000  Uiso   1.00
H29    H     0.00256   0.45314   0.09248   0.00000  Uiso   1.00
H30    H     0.49754   0.34529   0.12286   0.00000  Uiso   1.00
H31    H     0.16901   0.31744   0.76060   0.00000  Uiso   1.00
H32    H     0.20292   0.42139   0.67654   0.00000  Uiso   1.00
H33    H     0.02932   0.28227   0.78360   0.00000  Uiso   1.00
H34    H     0.26405   0.23113   0.79801   0.00000  Uiso   1.00
H35    H     0.25734   0.56426   0.62064   0.00000  Uiso   1.00
H36    H     0.89131   0.27090   0.84640   0.00000  Uiso   1.00
H37    H     0.38629   0.16305   0.87678   0.00000  Uiso   1.00
O38    O     0.33760   0.72760   0.69357   0.00000  Uiso   1.00
O39    O     0.85738   0.34273   0.98976   0.00000  Uiso   1.00
O40    O     0.50679   0.20123   0.02962   0.00000  Uiso   1.00
N41    N     0.33777   0.68933   0.82035   0.00000  Uiso   1.00
N42    N     0.99555   0.41508   0.03141   0.00000  Uiso   1.00
N43    N     0.45830   0.31423   0.05982   0.00000  Uiso   1.00
N44    N     0.27791   0.59127   0.68793   0.00000  Uiso   1.00
N45    N     0.93568   0.31702   0.89899   0.00000  Uiso   1.00
N46    N     0.39844   0.21617   0.92741   0.00000  Uiso   1.00
C47    C     0.97828   0.26934   0.48142   0.00000  Uiso   1.00
C48    C     0.90879   0.27496   0.51717   0.00000  Uiso   1.00
C49    C     0.91711   0.31372   0.60593   0.00000  Uiso   1.00
C50    C     0.84610   0.31205   0.62502   0.00000  Uiso   1.00
C51    C     0.74984   0.32668   0.69077   0.00000  Uiso   1.00
C52    C     0.96179   0.17623   0.43546   0.00000  Uiso   1.00
C53    C     0.01468   0.13199   0.45552   0.00000  Uiso   1.00
C54    C     0.98829   0.04722   0.40582   0.00000  Uiso   1.00
C55    C     0.97435   0.90859   0.34468   0.00000  Uiso   1.00
C56    C     0.96768   0.30756   0.40670   0.00000  Uiso   1.00
C57    C     0.02553   0.37373   0.40256   0.00000  Uiso   1.00
C58    C     0.00410   0.39952   0.32864   0.00000  Uiso   1.00
C59    C     0.99931   0.46480   0.22285   0.00000  Uiso   1.00
C60    C     0.83736   0.19747   0.35749   0.00000  Uiso   1.00
C61    C     0.83225   0.23592   0.44985   0.00000  Uiso   1.00
C62    C     0.76120   0.23420   0.46881   0.00000  Uiso   1.00
C63    C     0.76942   0.27295   0.55758   0.00000  Uiso   1.00
C64    C     0.88525   0.13719   0.36815   0.00000  Uiso   1.00
C65    C     0.85878   0.05247   0.31840   0.00000  Uiso   1.00
C66    C     0.91161   0.00811   0.33839   0.00000  Uiso   1.00
C67    C     0.89114   0.26853   0.33939   0.00000  Uiso   1.00
C68    C     0.86962   0.29421   0.26545   0.00000  Uiso   1.00
C69    C     0.92743   0.36041   0.26120   0.00000  Uiso   1.00
H70    H     0.03786   0.29973   0.53383   0.00000  Uiso   1.00
H71    H     0.97635   0.34392   0.65800   0.00000  Uiso   1.00
H72    H     0.07391   0.16222   0.50761   0.00000  Uiso   1.00
H73    H     0.08476   0.40392   0.45467   0.00000  Uiso   1.00
H74    H     0.87440   0.37566   0.76600   0.00000  Uiso   1.00
H75    H     0.08012   0.99255   0.44887   0.00000  Uiso   1.00
H76    H     0.10299   0.50223   0.33723   0.00000  Uiso   1.00
H77    H     0.77777   0.16707   0.30507   0.00000  Uiso   1.00
H78    H     0.70198   0.20398   0.41670   0.00000  Uiso   1.00
H79    H     0.79954   0.02228   0.26631   0.00000  Uiso   1.00
H80    H     0.81039   0.26399   0.21337   0.00000  Uiso   1.00
H81    H     0.65171   0.26209   0.57015   0.00000  Uiso   1.00
H82    H     0.85743   0.87897   0.25302   0.00000  Uiso   1.00
H83    H     0.88030   0.38866   0.14138   0.00000  Uiso   1.00
O84    O     0.71789   0.34552   0.74563   0.00000  Uiso   1.00
O85    O     0.98780   0.84290   0.32957   0.00000  Uiso   1.00
O86    O     0.01780   0.51160   0.18310   0.00000  Uiso   1.00
N87    N     0.83239   0.34388   0.70458   0.00000  Uiso   1.00
N88    N     0.02472   0.98569   0.40810   0.00000  Uiso   1.00
N89    N     0.04611   0.46219   0.30371   0.00000  Uiso   1.00
N90    N     0.71256   0.28277   0.59919   0.00000  Uiso   1.00
N91    N     0.90490   0.92458   0.30271   0.00000  Uiso   1.00
N92    N     0.92629   0.40107   0.19832   0.00000  Uiso   1.00
C93    C     0.48140   0.97928   0.27028   0.00000  Uiso   1.00
C94    C     0.51434   0.90718   0.27573   0.00000  Uiso   1.00
C95    C     0.59478   0.91507   0.31724   0.00000  Uiso   1.00
C96    C     0.61262   0.84152   0.31490   0.00000  Uiso   1.00
C97    C     0.67298   0.74151   0.32977   0.00000  Uiso   1.00
C98    C     0.43946   0.96198   0.17048   0.00000  Uiso   1.00
C99    C     0.45695   0.01595   0.12351   0.00000  Uiso   1.00
C100   C     0.41175   0.98854   0.03256   0.00000  Uiso   1.00
C101   C     0.35583   0.97363   0.88405   0.00000  Uiso   1.00
C102   C     0.41408   0.96956   0.31118   0.00000  Uiso   1.00
C103   C     0.41021   0.02991   0.38248   0.00000  Uiso   1.00
C104   C     0.34363   0.00889   0.40998   0.00000  Uiso   1.00
C105   C     0.24830   0.00575   0.47991   0.00000  Uiso   1.00
C106   C     0.37004   0.83462   0.19230   0.00000  Uiso   1.00
C107   C     0.45385   0.82860   0.23337   0.00000  Uiso   1.00
C108   C     0.47158   0.75502   0.23097   0.00000  Uiso   1.00
C109   C     0.55203   0.76281   0.27247   0.00000  Uiso   1.00
C110   C     0.37898   0.88341   0.12813   0.00000  Uiso   1.00
C111   C     0.33375   0.85591   0.03723   0.00000  Uiso   1.00
C112   C     0.35116   0.90982   0.99013   0.00000  Uiso   1.00
C113   C     0.35360   0.89098   0.26882   0.00000  Uiso   1.00
C114   C     0.28701   0.86986   0.29621   0.00000  Uiso   1.00
C115   C     0.28304   0.93017   0.36755   0.00000  Uiso   1.00
H116   H     0.52848   0.04045   0.30325   0.00000  Uiso   1.00
H117   H     0.64157   0.97589   0.35001   0.00000  Uiso   1.00
H118   H     0.50375   0.07676   0.15631   0.00000  Uiso   1.00
H119   H     0.45702   0.09071   0.41524   0.00000  Uiso   1.00
H120   H     0.74028   0.86965   0.38314   0.00000  Uiso   1.00
H121   H     0.44966   0.08235   0.97472   0.00000  Uiso   1.00
H122   H     0.35113   0.11178   0.52073   0.00000  Uiso   1.00
H123   H     0.32295   0.77345   0.15932   0.00000  Uiso   1.00
H124   H     0.42476   0.69423   0.19818   0.00000  Uiso   1.00
H125   H     0.28694   0.79510   0.00448   0.00000  Uiso   1.00
H126   H     0.24022   0.80905   0.26341   0.00000  Uiso   1.00
H127   H     0.56431   0.64105   0.25991   0.00000  Uiso   1.00
H128   H     0.27369   0.85375   0.85148   0.00000  Uiso   1.00
H129   H     0.17516   0.88317   0.39750   0.00000  Uiso   1.00
O130   O     0.72298   0.70806   0.34966   0.00000  Uiso   1.00
O131   O     0.34169   0.98712   0.81383   0.00000  Uiso   1.00
O132   O     0.21242   0.02572   0.53019   0.00000  Uiso   1.00
N133   N     0.68489   0.82672   0.34882   0.00000  Uiso   1.00
N134   N     0.41319   0.02558   0.96696   0.00000  Uiso   1.00
N135   N     0.32106   0.05310   0.47743   0.00000  Uiso   1.00
N136   N     0.59020   0.70371   0.28251   0.00000  Uiso   1.00
N137   N     0.31850   0.90257   0.90065   0.00000  Uiso   1.00
N138   N     0.22637   0.93009   0.41112   0.00000  Uiso   1.00
C139   C     0.73082   0.51847   0.01784   0.00000  Uiso   1.00
C140   C     0.72653   0.48517   0.09479   0.00000  Uiso   1.00
C141   C     0.68960   0.40254   0.08574   0.00000  Uiso   1.00
C142   C     0.69225   0.38474   0.16435   0.00000  Uiso   1.00
C143   C     0.67981   0.32349   0.27098   0.00000  Uiso   1.00
C144   C     0.82086   0.56074   0.03663   0.00000  Uiso   1.00
C145   C     0.86323   0.54167   0.97866   0.00000  Uiso   1.00
C146   C     0.94528   0.58750   0.00831   0.00000  Uiso   1.00
C147   C     0.07928   0.64363   0.02461   0.00000  Uiso   1.00
C148   C     0.69332   0.58853   0.02880   0.00000  Uiso   1.00
C149   C     0.62845   0.59283   0.96425   0.00000  Uiso   1.00
C150   C     0.60314   0.66206   0.98730   0.00000  Uiso   1.00
C151   C     0.53911   0.76133   0.99145   0.00000  Uiso   1.00
C152   C     0.80122   0.63379   0.17355   0.00000  Uiso   1.00
C153   C     0.76478   0.54781   0.17937   0.00000  Uiso   1.00
C154   C     0.76749   0.53013   0.25802   0.00000  Uiso   1.00
C155   C     0.73055   0.44749   0.24908   0.00000  Uiso   1.00
C156   C     0.85910   0.62338   0.12120   0.00000  Uiso   1.00
C157   C     0.94111   0.66926   0.15094   0.00000  Uiso   1.00
C158   C     0.98359   0.65025   0.09304   0.00000  Uiso   1.00
C159   C     0.73155   0.65117   0.11338   0.00000  Uiso   1.00
C160   C     0.70634   0.72041   0.13654   0.00000  Uiso   1.00
C161   C     0.64145   0.72481   0.07203   0.00000  Uiso   1.00
H162   H     0.70106   0.46971   0.95199   0.00000  Uiso   1.00
H163   H     0.66002   0.35408   0.02027   0.00000  Uiso   1.00
H164   H     0.83362   0.49320   0.91321   0.00000  Uiso   1.00
H165   H     0.59888   0.54434   0.89880   0.00000  Uiso   1.00
H166   H     0.63141   0.25351   0.13327   0.00000  Uiso   1.00
H167   H     0.99744   0.54686   0.90752   0.00000  Uiso   1.00
H168   H     0.50246   0.65471   0.87714   0.00000  Uiso   1.00
H169   H     0.83099   0.68256   0.23940   0.00000  Uiso   1.00
H170   H     0.79708   0.57861   0.32346   0.00000  Uiso   1.00
H171   H     0.97068   0.71773   0.21640   0.00000  Uiso   1.00
H172   H     0.73595   0.76887   0.20199   0.00000  Uiso   1.00
H173   H     0.74266   0.43574   0.37936   0.00000  Uiso   1.00
H174   H     0.10869   0.72910   0.15360   0.00000  Uiso   1.00
H175   H     0.61371   0.83695   0.12322   0.00000  Uiso   1.00
O176   O     0.66240   0.27240   0.30643   0.00000  Uiso   1.00
O177   O     0.14262   0.65727   0.01024   0.00000  Uiso   1.00
O178   O     0.49321   0.79877   0.97038   0.00000  Uiso   1.00
N179   N     0.66223   0.31067   0.17965   0.00000  Uiso   1.00
N180   N     0.00445   0.58492   0.96859   0.00000  Uiso   1.00
N181   N     0.54170   0.68577   0.94018   0.00000  Uiso   1.00
N182   N     0.72209   0.40873   0.31207   0.00000  Uiso   1.00
N183   N     0.06432   0.68298   0.10101   0.00000  Uiso   1.00
N184   N     0.60156   0.78383   0.07259   0.00000  Uiso   1.00
C185   C     0.02172   0.73066   0.51858   0.00000  Uiso   1.00
C186   C     0.09121   0.72504   0.48283   0.00000  Uiso   1.00
C187   C     0.08289   0.68628   0.39407   0.00000  Uiso   1.00
C188   C     0.15390   0.68795   0.37498   0.00000  Uiso   1.00
C189   C     0.25016   0.67332   0.30923   0.00000  Uiso   1.00
C190   C     0.03821   0.82377   0.56454   0.00000  Uiso   1.00
C191   C     0.98532   0.86801   0.54448   0.00000  Uiso   1.00
C192   C     0.01171   0.95278   0.59418   0.00000  Uiso   1.00
C193   C     0.02565   0.09141   0.65532   0.00000  Uiso   1.00
C194   C     0.03232   0.69244   0.59330   0.00000  Uiso   1.00
C195   C     0.97447   0.62627   0.59744   0.00000  Uiso   1.00
C196   C     0.99590   0.60048   0.67136   0.00000  Uiso   1.00
C197   C     0.00069   0.53520   0.77715   0.00000  Uiso   1.00
C198   C     0.16264   0.80253   0.64251   0.00000  Uiso   1.00
C199   C     0.16775   0.76408   0.55015   0.00000  Uiso   1.00
C200   C     0.23880   0.76580   0.53119   0.00000  Uiso   1.00
C201   C     0.23058   0.72705   0.44242   0.00000  Uiso   1.00
C202   C     0.11475   0.86281   0.63185   0.00000  Uiso   1.00
C203   C     0.14122   0.94753   0.68160   0.00000  Uiso   1.00
C204   C     0.08839   0.99189   0.66161   0.00000  Uiso   1.00
C205   C     0.10886   0.73147   0.66061   0.00000  Uiso   1.00
C206   C     0.13038   0.70579   0.73455   0.00000  Uiso   1.00
C207   C     0.07257   0.63959   0.73880   0.00000  Uiso   1.00
H208   H     0.96214   0.70027   0.46617   0.00000  Uiso   1.00
H209   H     0.02365   0.65608   0.34200   0.00000  Uiso   1.00
H210   H     0.92609   0.83778   0.49239   0.00000  Uiso   1.00
H211   H     0.91524   0.59608   0.54533   0.00000  Uiso   1.00
H212   H     0.12560   0.62434   0.23400   0.00000  Uiso   1.00
H213   H     0.91988   0.00745   0.55113   0.00000  Uiso   1.00
H214   H     0.89701   0.49777   0.66277   0.00000  Uiso   1.00
H215   H     0.22223   0.83293   0.69493   0.00000  Uiso   1.00
H216   H     0.29802   0.79602   0.58330   0.00000  Uiso   1.00
H217   H     0.20046   0.97772   0.73369   0.00000  Uiso   1.00
H218   H     0.18961   0.73601   0.78663   0.00000  Uiso   1.00
H219   H     0.34829   0.73791   0.42985   0.00000  Uiso   1.00
H220   H     0.14257   0.12103   0.74698   0.00000  Uiso   1.00
H221   H     0.11970   0.61134   0.85862   0.00000  Uiso   1.00
O222   O     0.28211   0.65448   0.25437   0.00000  Uiso   1.00
O223   O     0.01220   0.15710   0.67043   0.00000  Uiso   1.00
O224   O     0.98220   0.48840   0.81690   0.00000  Uiso   1.00
N225   N     0.16761   0.65612   0.29542   0.00000  Uiso   1.00
N226   N     0.97528   0.01431   0.59190   0.00000  Uiso   1.00
N227   N     0.95389   0.53781   0.69629   0.00000  Uiso   1.00
N228   N     0.28744   0.71723   0.40081   0.00000  Uiso   1.00
N229   N     0.09510   0.07542   0.69729   0.00000  Uiso   1.00
N230   N     0.07371   0.59893   0.80168   0.00000  Uiso   1.00
C231   C     0.51860   0.02072   0.72972   0.00000  Uiso   1.00
C232   C     0.48566   0.09282   0.72427   0.00000  Uiso   1.00
C233   C     0.40522   0.08493   0.68276   0.00000  Uiso   1.00
C234   C     0.38738   0.15848   0.68510   0.00000  Uiso   1.00
C235   C     0.32702   0.25849   0.67023   0.00000  Uiso   1.00
C236   C     0.56054   0.03802   0.82952   0.00000  Uiso   1.00
C237   C     0.54305   0.98405   0.87649   0.00000  Uiso   1.00
C238   C     0.58825   0.01146   0.96744   0.00000  Uiso   1.00
C239   C     0.64417   0.02637   0.11595   0.00000  Uiso   1.00
C240   C     0.58592   0.03044   0.68882   0.00000  Uiso   1.00
C241   C     0.58979   0.97009   0.61752   0.00000  Uiso   1.00
C242   C     0.65637   0.99111   0.59002   0.00000  Uiso   1.00
C243   C     0.75170   0.99425   0.52009   0.00000  Uiso   1.00
C244   C     0.62996   0.16538   0.80770   0.00000  Uiso   1.00
C245   C     0.54615   0.17140   0.76663   0.00000  Uiso   1.00
C246   C     0.52842   0.24498   0.76903   0.00000  Uiso   1.00
C247   C     0.44797   0.23719   0.72753   0.00000  Uiso   1.00
C248   C     0.62102   0.11659   0.87187   0.00000  Uiso   1.00
C249   C     0.66625   0.14409   0.96277   0.00000  Uiso   1.00
C250   C     0.64884   0.09018   0.00987   0.00000  Uiso   1.00
C251   C     0.64640   0.10902   0.73118   0.00000  Uiso   1.00
C252   C     0.71299   0.13014   0.70379   0.00000  Uiso   1.00
C253   C     0.71696   0.06983   0.63245   0.00000  Uiso   1.00
H254   H     0.47152   0.95955   0.69675   0.00000  Uiso   1.00
H255   H     0.35843   0.02411   0.64999   0.00000  Uiso   1.00
H256   H     0.49625   0.92324   0.84369   0.00000  Uiso   1.00
H257   H     0.54298   0.90929   0.58476   0.00000  Uiso   1.00
H258   H     0.25972   0.13035   0.61686   0.00000  Uiso   1.00
H259   H     0.55034   0.91765   0.02528   0.00000  Uiso   1.00
H260   H     0.64887   0.88822   0.47927   0.00000  Uiso   1.00
H261   H     0.67705   0.22655   0.84068   0.00000  Uiso   1.00
H262   H     0.57524   0.30577   0.80182   0.00000  Uiso   1.00
H263   H     0.71306   0.20490   0.99552   0.00000  Uiso   1.00
H264   H     0.75978   0.19095   0.73659   0.00000  Uiso   1.00
H265   H     0.43569   0.35895   0.74009   0.00000  Uiso   1.00
H266   H     0.72631   0.14625   0.14852   0.00000  Uiso   1.00
H267   H     0.82484   0.11683   0.60250   0.00000  Uiso   1.00
O268   O     0.27702   0.29195   0.65034   0.00000  Uiso   1.00
O269   O     0.65831   0.01288   0.18617   0.00000  Uiso   1.00
O270   O     0.78758   0.97428   0.46981   0.00000  Uiso   1.00
N271   N     0.31511   0.17328   0.65118   0.00000  Uiso   1.00
N272   N     0.58681   0.97442   0.03304   0.00000  Uiso   1.00
N273   N     0.67894   0.94690   0.52257   0.00000  Uiso   1.00
N274   N     0.40980   0.29629   0.71749   0.00000  Uiso   1.00
N275   N     0.68150   0.09743   0.09935   0.00000  Uiso   1.00
N276   N     0.77363   0.06991   0.58888   0.00000  Uiso   1.00
