data_job_06645
_audit_creation_date              2018-12-19
_audit_creation_method            'Materials Studio'
_symmetry_space_group_name_H-M    'P1'
_symmetry_Int_Tables_number       1
_symmetry_cell_setting            triclinic
loop_
_symmetry_equiv_pos_as_xyz
  x,y,z
_cell_length_a                    18.7554
_cell_length_b                    20.7404
_cell_length_c                    22.2981
_cell_angle_alpha                 107.3100
_cell_angle_beta                  83.5598
_cell_angle_gamma                 111.6570
loop_
_atom_site_label
_atom_site_type_symbol
_atom_site_fract_x
_atom_site_fract_y
_atom_site_fract_z
_atom_site_U_iso_or_equiv
_atom_site_adp_type
_atom_site_occupancy
C1     C     0.29186   0.44039   0.55609   0.00000  Uiso   1.00
C2     C     0.22409   0.41015   0.59682   0.00000  Uiso   1.00
C3     C     0.17647   0.44605   0.63061   0.00000  Uiso   1.00
C4     C     0.11767   0.40909   0.66499   0.00000  Uiso   1.00
C5     C     0.01410   0.37283   0.72818   0.00000  Uiso   1.00
C6     C     0.36135   0.43532   0.58126   0.00000  Uiso   1.00
C7     C     0.42914   0.49239   0.60197   0.00000  Uiso   1.00
C8     C     0.48589   0.47662   0.62325   0.00000  Uiso   1.00
C9     C     0.59543   0.47944   0.66225   0.00000  Uiso   1.00
C10    C     0.27662   0.38699   0.49085   0.00000  Uiso   1.00
C11    C     0.27318   0.40342   0.43553   0.00000  Uiso   1.00
C12    C     0.25860   0.34696   0.38069   0.00000  Uiso   1.00
C13    C     0.23659   0.27474   0.27931   0.00000  Uiso   1.00
C14    C     0.27212   0.31092   0.55706   0.00000  Uiso   1.00
C15    C     0.21338   0.33982   0.59735   0.00000  Uiso   1.00
C16    C     0.15463   0.30280   0.63169   0.00000  Uiso   1.00
C17    C     0.10693   0.33864   0.66552   0.00000  Uiso   1.00
C18    C     0.35063   0.36500   0.58179   0.00000  Uiso   1.00
C19    C     0.40730   0.34914   0.60305   0.00000  Uiso   1.00
C20    C     0.47515   0.40617   0.62378   0.00000  Uiso   1.00
C21    C     0.26590   0.31667   0.49138   0.00000  Uiso   1.00
C22    C     0.25134   0.26017   0.43661   0.00000  Uiso   1.00
C23    C     0.24787   0.27651   0.38122   0.00000  Uiso   1.00
H24    H     0.30021   0.49515   0.55568   0.00000  Uiso   1.00
H25    H     0.18479   0.50047   0.63019   0.00000  Uiso   1.00
H26    H     0.43742   0.54680   0.60155   0.00000  Uiso   1.00
H27    H     0.28147   0.45785   0.43514   0.00000  Uiso   1.00
H28    H     0.05211   0.47537   0.71306   0.00000  Uiso   1.00
H29    H     0.58480   0.57306   0.65264   0.00000  Uiso   1.00
H30    H     0.25597   0.38548   0.30174   0.00000  Uiso   1.00
H31    H     0.26378   0.25617   0.55747   0.00000  Uiso   1.00
H32    H     0.14635   0.24838   0.63209   0.00000  Uiso   1.00
H33    H     0.39899   0.29472   0.60345   0.00000  Uiso   1.00
H34    H     0.24304   0.20576   0.43704   0.00000  Uiso   1.00
H35    H     0.02092   0.27077   0.71460   0.00000  Uiso   1.00
H36    H     0.55361   0.36846   0.65418   0.00000  Uiso   1.00
H37    H     0.22478   0.18088   0.30328   0.00000  Uiso   1.00
O38    O     0.95995   0.37227   0.76290   0.00000  Uiso   1.00
O39    O     0.65882   0.50043   0.68362   0.00000  Uiso   1.00
O40    O     0.22739   0.25433   0.22325   0.00000  Uiso   1.00
N41    N     0.06088   0.42828   0.70317   0.00000  Uiso   1.00
N42    N     0.55891   0.51962   0.64670   0.00000  Uiso   1.00
N43    N     0.25150   0.34425   0.31863   0.00000  Uiso   1.00
N44    N     0.04409   0.31818   0.70400   0.00000  Uiso   1.00
N45    N     0.54212   0.40952   0.64753   0.00000  Uiso   1.00
N46    N     0.23471   0.23415   0.31946   0.00000  Uiso   1.00
C47    C     0.59356   0.18510   0.49202   0.00000  Uiso   1.00
C48    C     0.62448   0.12347   0.47567   0.00000  Uiso   1.00
C49    C     0.62294   0.08184   0.51468   0.00000  Uiso   1.00
C50    C     0.65415   0.02806   0.49104   0.00000  Uiso   1.00
C51    C     0.69738   0.93416   0.47487   0.00000  Uiso   1.00
C52    C     0.66045   0.25110   0.48310   0.00000  Uiso   1.00
C53    C     0.68914   0.31678   0.52835   0.00000  Uiso   1.00
C54    C     0.75061   0.37043   0.51095   0.00000  Uiso   1.00
C55    C     0.84965   0.47469   0.50630   0.00000  Uiso   1.00
C56    C     0.53562   0.16601   0.44097   0.00000  Uiso   1.00
C57    C     0.45936   0.16017   0.45079   0.00000  Uiso   1.00
C58    C     0.41575   0.14220   0.39792   0.00000  Uiso   1.00
C59    C     0.32098   0.11436   0.32786   0.00000  Uiso   1.00
C60    C     0.65172   0.16361   0.38065   0.00000  Uiso   1.00
C61    C     0.65607   0.11180   0.41518   0.00000  Uiso   1.00
C62    C     0.68728   0.05806   0.39147   0.00000  Uiso   1.00
C63    C     0.68579   0.01636   0.43044   0.00000  Uiso   1.00
C64    C     0.69204   0.23943   0.42261   0.00000  Uiso   1.00
C65    C     0.75348   0.29300   0.40514   0.00000  Uiso   1.00
C66    C     0.78226   0.35874   0.45036   0.00000  Uiso   1.00
C67    C     0.56721   0.15434   0.38048   0.00000  Uiso   1.00
C68    C     0.52371   0.13639   0.32758   0.00000  Uiso   1.00
C69    C     0.44739   0.13051   0.33732   0.00000  Uiso   1.00
H70    H     0.56897   0.19420   0.53911   0.00000  Uiso   1.00
H71    H     0.59850   0.09090   0.56150   0.00000  Uiso   1.00
H72    H     0.66468   0.32580   0.57516   0.00000  Uiso   1.00
H73    H     0.43494   0.16921   0.49761   0.00000  Uiso   1.00
H74    H     0.64518   0.97124   0.55964   0.00000  Uiso   1.00
H75    H     0.78471   0.46655   0.58845   0.00000  Uiso   1.00
H76    H     0.30026   0.13635   0.42492   0.00000  Uiso   1.00
H77    H     0.67632   0.15452   0.33355   0.00000  Uiso   1.00
H78    H     0.71173   0.04904   0.34465   0.00000  Uiso   1.00
H79    H     0.77791   0.28394   0.35832   0.00000  Uiso   1.00
H80    H     0.54817   0.12736   0.28078   0.00000  Uiso   1.00
H81    H     0.73709   0.93727   0.38365   0.00000  Uiso   1.00
H82    H     0.87661   0.43258   0.41246   0.00000  Uiso   1.00
H83    H     0.39217   0.10238   0.24893   0.00000  Uiso   1.00
O84    O     0.71252   0.88560   0.48266   0.00000  Uiso   1.00
O85    O     0.89556   0.53543   0.52045   0.00000  Uiso   1.00
O86    O     0.25997   0.10221   0.30592   0.00000  Uiso   1.00
N87    N     0.66194   0.97771   0.51669   0.00000  Uiso   1.00
N88    N     0.79240   0.44079   0.54363   0.00000  Uiso   1.00
N89    N     0.33948   0.13211   0.39075   0.00000  Uiso   1.00
N90    N     0.71139   0.95943   0.42199   0.00000  Uiso   1.00
N91    N     0.84185   0.42251   0.44893   0.00000  Uiso   1.00
N92    N     0.38893   0.11383   0.29605   0.00000  Uiso   1.00
C93    C     0.42425   0.58055   0.15727   0.00000  Uiso   1.00
C94    C     0.39166   0.55990   0.09176   0.00000  Uiso   1.00
C95    C     0.42977   0.58621   0.04216   0.00000  Uiso   1.00
C96    C     0.39004   0.56065   0.98599   0.00000  Uiso   1.00
C97    C     0.35085   0.53622   0.88523   0.00000  Uiso   1.00
C98    C     0.36841   0.60858   0.20280   0.00000  Uiso   1.00
C99    C     0.38697   0.67581   0.24657   0.00000  Uiso   1.00
C100   C     0.32768   0.69122   0.28388   0.00000  Uiso   1.00
C101   C     0.25240   0.74236   0.35556   0.00000  Uiso   1.00
C102   C     0.41789   0.51001   0.16932   0.00000  Uiso   1.00
C103   C     0.47806   0.49437   0.18496   0.00000  Uiso   1.00
C104   C     0.46042   0.42679   0.19409   0.00000  Uiso   1.00
C105   C     0.46198   0.32488   0.21379   0.00000  Uiso   1.00
C106   C     0.28593   0.48837   0.14572   0.00000  Uiso   1.00
C107   C     0.31653   0.50983   0.08549   0.00000  Uiso   1.00
C108   C     0.27674   0.48422   0.02938   0.00000  Uiso   1.00
C109   C     0.31478   0.51048   0.97970   0.00000  Uiso   1.00
C110   C     0.29328   0.55851   0.19653   0.00000  Uiso   1.00
C111   C     0.23394   0.57382   0.23379   0.00000  Uiso   1.00
C112   C     0.25241   0.64106   0.27759   0.00000  Uiso   1.00
C113   C     0.34276   0.45994   0.16305   0.00000  Uiso   1.00
C114   C     0.32503   0.39238   0.17217   0.00000  Uiso   1.00
C115   C     0.38516   0.37663   0.18781   0.00000  Uiso   1.00
H116   H     0.48274   0.61954   0.16215   0.00000  Uiso   1.00
H117   H     0.48791   0.62496   0.04703   0.00000  Uiso   1.00
H118   H     0.44512   0.71455   0.25142   0.00000  Uiso   1.00
H119   H     0.53619   0.53313   0.18981   0.00000  Uiso   1.00
H120   H     0.46050   0.60892   0.91664   0.00000  Uiso   1.00
H121   H     0.37028   0.79780   0.34761   0.00000  Uiso   1.00
H122   H     0.56233   0.41524   0.21770   0.00000  Uiso   1.00
H123   H     0.22744   0.44939   0.14083   0.00000  Uiso   1.00
H124   H     0.21860   0.44547   0.02453   0.00000  Uiso   1.00
H125   H     0.17581   0.53506   0.22892   0.00000  Uiso   1.00
H126   H     0.26688   0.35364   0.16731   0.00000  Uiso   1.00
H127   H     0.24191   0.46324   0.89838   0.00000  Uiso   1.00
H128   H     0.15170   0.65213   0.32935   0.00000  Uiso   1.00
H129   H     0.34374   0.26957   0.19944   0.00000  Uiso   1.00
O130   O     0.34999   0.53659   0.83140   0.00000  Uiso   1.00
O131   O     0.23163   0.78440   0.39682   0.00000  Uiso   1.00
O132   O     0.48359   0.28249   0.22638   0.00000  Uiso   1.00
N133   N     0.41027   0.57516   0.92830   0.00000  Uiso   1.00
N134   N     0.32592   0.75176   0.33122   0.00000  Uiso   1.00
N135   N     0.50547   0.39411   0.20978   0.00000  Uiso   1.00
N136   N     0.29265   0.49677   0.91847   0.00000  Uiso   1.00
N137   N     0.20831   0.67337   0.32140   0.00000  Uiso   1.00
N138   N     0.38785   0.31572   0.19996   0.00000  Uiso   1.00
C139   C     0.59013   0.17326   0.93286   0.00000  Uiso   1.00
C140   C     0.53827   0.14798   0.87615   0.00000  Uiso   1.00
C141   C     0.46548   0.15119   0.87745   0.00000  Uiso   1.00
C142   C     0.42730   0.12534   0.82052   0.00000  Uiso   1.00
C143   C     0.34169   0.09039   0.74099   0.00000  Uiso   1.00
C144   C     0.66502   0.22817   0.91773   0.00000  Uiso   1.00
C145   C     0.69880   0.29879   0.95400   0.00000  Uiso   1.00
C146   C     0.76732   0.34043   0.93207   0.00000  Uiso   1.00
C147   C     0.87853   0.42996   0.91712   0.00000  Uiso   1.00
C148   C     0.60933   0.10825   0.93383   0.00000  Uiso   1.00
C149   C     0.59632   0.07807   0.98365   0.00000  Uiso   1.00
C150   C     0.61798   0.01876   0.97529   0.00000  Uiso   1.00
C151   C     0.64272   0.92211   0.98535   0.00000  Uiso   1.00
C152   C     0.65175   0.12163   0.82942   0.00000  Uiso   1.00
C153   C     0.57174   0.11994   0.81996   0.00000  Uiso   1.00
C154   C     0.53365   0.09407   0.76301   0.00000  Uiso   1.00
C155   C     0.46082   0.09724   0.76423   0.00000  Uiso   1.00
C156   C     0.69849   0.20013   0.86154   0.00000  Uiso   1.00
C157   C     0.76698   0.24167   0.83955   0.00000  Uiso   1.00
C158   C     0.80085   0.31234   0.87578   0.00000  Uiso   1.00
C159   C     0.64280   0.08021   0.87765   0.00000  Uiso   1.00
C160   C     0.66449   0.02095   0.86921   0.00000  Uiso   1.00
C161   C     0.65151   0.99067   0.91900   0.00000  Uiso   1.00
H162   H     0.56408   0.19509   0.97661   0.00000  Uiso   1.00
H163   H     0.43960   0.17290   0.92094   0.00000  Uiso   1.00
H164   H     0.67289   0.32047   0.99748   0.00000  Uiso   1.00
H165   H     0.57042   0.09978   0.02712   0.00000  Uiso   1.00
H166   H     0.31637   0.13595   0.83445   0.00000  Uiso   1.00
H167   H     0.80829   0.44711   0.99584   0.00000  Uiso   1.00
H168   H     0.59221   0.98174   0.05836   0.00000  Uiso   1.00
H169   H     0.67781   0.09980   0.78568   0.00000  Uiso   1.00
H170   H     0.55957   0.07238   0.71954   0.00000  Uiso   1.00
H171   H     0.79286   0.21996   0.79608   0.00000  Uiso   1.00
H172   H     0.69039   0.99926   0.82572   0.00000  Uiso   1.00
H173   H     0.41374   0.05437   0.67098   0.00000  Uiso   1.00
H174   H     0.90566   0.36553   0.83237   0.00000  Uiso   1.00
H175   H     0.68958   0.90016   0.89489   0.00000  Uiso   1.00
O176   O     0.28524   0.07887   0.71265   0.00000  Uiso   1.00
O177   O     0.93062   0.48709   0.92439   0.00000  Uiso   1.00
O178   O     0.64712   0.87653   0.00641   0.00000  Uiso   1.00
N179   N     0.35551   0.12050   0.80506   0.00000  Uiso   1.00
N180   N     0.81541   0.41142   0.95594   0.00000  Uiso   1.00
N181   N     0.61342   0.97635   0.01440   0.00000  Uiso   1.00
N182   N     0.40790   0.07660   0.71710   0.00000  Uiso   1.00
N183   N     0.86781   0.36752   0.86798   0.00000  Uiso   1.00
N184   N     0.66581   0.93245   0.92644   0.00000  Uiso   1.00
C185   C     0.14611   0.85818   0.71193   0.00000  Uiso   1.00
C186   C     0.11652   0.79923   0.65107   0.00000  Uiso   1.00
C187   C     0.14088   0.80413   0.59094   0.00000  Uiso   1.00
C188   C     0.10675   0.74429   0.54138   0.00000  Uiso   1.00
C189   C     0.06942   0.66225   0.44531   0.00000  Uiso   1.00
C190   C     0.17475   0.82429   0.75170   0.00000  Uiso   1.00
C191   C     0.24807   0.85028   0.77620   0.00000  Uiso   1.00
C192   C     0.26296   0.81154   0.81136   0.00000  Uiso   1.00
C193   C     0.31602   0.76843   0.87157   0.00000  Uiso   1.00
C194   C     0.07583   0.87220   0.74598   0.00000  Uiso   1.00
C195   C     0.06598   0.93847   0.76567   0.00000  Uiso   1.00
C196   C     0.99759   0.94007   0.79603   0.00000  Uiso   1.00
C197   C     0.89707   0.97136   0.84735   0.00000  Uiso   1.00
C198   C     0.04217   0.74319   0.73083   0.00000  Uiso   1.00
C199   C     0.06007   0.73677   0.66133   0.00000  Uiso   1.00
C200   C     0.02589   0.67691   0.61184   0.00000  Uiso   1.00
C201   C     0.05019   0.68172   0.55166   0.00000  Uiso   1.00
C202   C     0.11830   0.76184   0.76197   0.00000  Uiso   1.00
C203   C     0.13308   0.72305   0.79710   0.00000  Uiso   1.00
C204   C     0.20640   0.74896   0.82164   0.00000  Uiso   1.00
C205   C     0.01938   0.80974   0.75624   0.00000  Uiso   1.00
C206   C     0.95099   0.81124   0.78657   0.00000  Uiso   1.00
C207   C     0.94104   0.87750   0.80631   0.00000  Uiso   1.00
H208   H     0.19006   0.90680   0.70395   0.00000  Uiso   1.00
H209   H     0.18457   0.85248   0.58302   0.00000  Uiso   1.00
H210   H     0.29174   0.89861   0.76825   0.00000  Uiso   1.00
H211   H     0.10968   0.98679   0.75772   0.00000  Uiso   1.00
H212   H     0.15361   0.76469   0.45348   0.00000  Uiso   1.00
H213   H     0.37958   0.86199   0.84407   0.00000  Uiso   1.00
H214   H     0.99567   0.04794   0.82187   0.00000  Uiso   1.00
H215   H     0.99822   0.69456   0.73882   0.00000  Uiso   1.00
H216   H     0.98220   0.62858   0.61980   0.00000  Uiso   1.00
H217   H     0.08938   0.67472   0.80504   0.00000  Uiso   1.00
H218   H     0.90732   0.76290   0.79451   0.00000  Uiso   1.00
H219   H     0.98937   0.58297   0.48333   0.00000  Uiso   1.00
H220   H     0.21534   0.68027   0.87393   0.00000  Uiso   1.00
H221   H     0.83142   0.86621   0.85173   0.00000  Uiso   1.00
O222   O     0.06443   0.63425   0.38948   0.00000  Uiso   1.00
O223   O     0.36089   0.76191   0.90194   0.00000  Uiso   1.00
O224   O     0.85721   0.00586   0.87281   0.00000  Uiso   1.00
N225   N     0.11714   0.73098   0.47683   0.00000  Uiso   1.00
N226   N     0.32842   0.82195   0.84201   0.00000  Uiso   1.00
N227   N     0.96950   0.99579   0.82127   0.00000  Uiso   1.00
N228   N     0.02876   0.63320   0.49290   0.00000  Uiso   1.00
N229   N     0.24004   0.72416   0.85808   0.00000  Uiso   1.00
N230   N     0.88112   0.89801   0.83734   0.00000  Uiso   1.00
C231   C     0.97760   0.77627   0.12545   0.00000  Uiso   1.00
C232   C     0.93805   0.70212   0.13675   0.00000  Uiso   1.00
C233   C     0.96533   0.64537   0.11776   0.00000  Uiso   1.00
C234   C     0.92069   0.58191   0.13262   0.00000  Uiso   1.00
C235   C     0.86985   0.46776   0.14523   0.00000  Uiso   1.00
C236   C     0.98760   0.83089   0.19004   0.00000  Uiso   1.00
C237   C     0.05654   0.88241   0.21584   0.00000  Uiso   1.00
C238   C     0.05360   0.92735   0.27556   0.00000  Uiso   1.00
C239   C     0.07968   0.01315   0.37087   0.00000  Uiso   1.00
C240   C     0.91959   0.78771   0.09081   0.00000  Uiso   1.00
C241   C     0.93135   0.80295   0.03319   0.00000  Uiso   1.00
C242   C     0.87116   0.81155   0.00938   0.00000  Uiso   1.00
C243   C     0.79164   0.83031   0.95062   0.00000  Uiso   1.00
C244   C     0.84979   0.76447   0.18563   0.00000  Uiso   1.00
C245   C     0.86863   0.69571   0.16944   0.00000  Uiso   1.00
C246   C     0.82393   0.63231   0.18434   0.00000  Uiso   1.00
C247   C     0.85114   0.57548   0.16537   0.00000  Uiso   1.00
C248   C     0.91818   0.82448   0.22273   0.00000  Uiso   1.00
C249   C     0.91513   0.86935   0.28242   0.00000  Uiso   1.00
C250   C     0.98405   0.92093   0.30830   0.00000  Uiso   1.00
C251   C     0.85016   0.78130   0.12350   0.00000  Uiso   1.00
C252   C     0.78994   0.78989   0.09977   0.00000  Uiso   1.00
C253   C     0.80161   0.80513   0.04212   0.00000  Uiso   1.00
H254   H     0.03165   0.78127   0.10001   0.00000  Uiso   1.00
H255   H     0.01907   0.65036   0.09247   0.00000  Uiso   1.00
H256   H     0.11025   0.88737   0.19053   0.00000  Uiso   1.00
H257   H     0.98508   0.80791   0.00791   0.00000  Uiso   1.00
H258   H     0.97451   0.50241   0.09854   0.00000  Uiso   1.00
H259   H     0.16678   0.00216   0.30530   0.00000  Uiso   1.00
H260   H     0.90284   0.83462   0.92022   0.00000  Uiso   1.00
H261   H     0.79574   0.75948   0.21108   0.00000  Uiso   1.00
H262   H     0.77021   0.62737   0.20963   0.00000  Uiso   1.00
H263   H     0.86140   0.86438   0.30770   0.00000  Uiso   1.00
H264   H     0.73623   0.78492   0.12508   0.00000  Uiso   1.00
H265   H     0.77253   0.48375   0.19364   0.00000  Uiso   1.00
H266   H     0.96480   0.98351   0.40040   0.00000  Uiso   1.00
H267   H     0.70085   0.81596   0.01531   0.00000  Uiso   1.00
O268   O     0.86099   0.40657   0.14315   0.00000  Uiso   1.00
O269   O     0.11324   0.06225   0.41441   0.00000  Uiso   1.00
O270   O     0.76695   0.84243   0.90918   0.00000  Uiso   1.00
N271   N     0.93047   0.51614   0.12111   0.00000  Uiso   1.00
N272   N     0.11023   0.98338   0.31443   0.00000  Uiso   1.00
N273   N     0.86348   0.82675   0.95441   0.00000  Uiso   1.00
N274   N     0.82178   0.50610   0.17228   0.00000  Uiso   1.00
N275   N     0.00155   0.97334   0.36560   0.00000  Uiso   1.00
N276   N     0.75479   0.81671   0.00558   0.00000  Uiso   1.00
C277   C     0.70814   0.55961   0.44391   0.00000  Uiso   1.00
C278   C     0.77591   0.58985   0.40318   0.00000  Uiso   1.00
C279   C     0.82353   0.55395   0.36939   0.00000  Uiso   1.00
C280   C     0.88233   0.59091   0.33501   0.00000  Uiso   1.00
C281   C     0.98590   0.62717   0.27182   0.00000  Uiso   1.00
C282   C     0.63865   0.56468   0.41874   0.00000  Uiso   1.00
C283   C     0.57086   0.50761   0.39803   0.00000  Uiso   1.00
C284   C     0.51411   0.52338   0.37675   0.00000  Uiso   1.00
C285   C     0.40457   0.52056   0.33775   0.00000  Uiso   1.00
C286   C     0.72338   0.61301   0.50915   0.00000  Uiso   1.00
C287   C     0.72682   0.59658   0.56447   0.00000  Uiso   1.00
C288   C     0.74140   0.65304   0.61931   0.00000  Uiso   1.00
C289   C     0.76341   0.72526   0.72069   0.00000  Uiso   1.00
C290   C     0.72788   0.68908   0.44294   0.00000  Uiso   1.00
C291   C     0.78662   0.66018   0.40265   0.00000  Uiso   1.00
C292   C     0.84537   0.69720   0.36831   0.00000  Uiso   1.00
C293   C     0.89307   0.66136   0.33448   0.00000  Uiso   1.00
C294   C     0.64937   0.63500   0.41821   0.00000  Uiso   1.00
C295   C     0.59270   0.65086   0.39695   0.00000  Uiso   1.00
C296   C     0.52485   0.59383   0.37622   0.00000  Uiso   1.00
C297   C     0.73410   0.68333   0.50862   0.00000  Uiso   1.00
C298   C     0.74866   0.73983   0.56339   0.00000  Uiso   1.00
C299   C     0.75213   0.72349   0.61878   0.00000  Uiso   1.00
H300   H     0.69979   0.50485   0.44432   0.00000  Uiso   1.00
H301   H     0.81521   0.49953   0.36981   0.00000  Uiso   1.00
H302   H     0.56258   0.45320   0.39845   0.00000  Uiso   1.00
H303   H     0.71853   0.54215   0.56486   0.00000  Uiso   1.00
H304   H     0.94789   0.52463   0.28694   0.00000  Uiso   1.00
H305   H     0.41520   0.42694   0.34736   0.00000  Uiso   1.00
H306   H     0.74403   0.61452   0.69826   0.00000  Uiso   1.00
H307   H     0.73622   0.74383   0.44253   0.00000  Uiso   1.00
H308   H     0.85365   0.75162   0.36791   0.00000  Uiso   1.00
H309   H     0.60101   0.70528   0.39655   0.00000  Uiso   1.00
H310   H     0.75696   0.79424   0.56296   0.00000  Uiso   1.00
H311   H     0.97908   0.72923   0.28540   0.00000  Uiso   1.00
H312   H     0.44639   0.63154   0.34582   0.00000  Uiso   1.00
H313   H     0.77522   0.81912   0.69672   0.00000  Uiso   1.00
O314   O     0.04005   0.62773   0.23710   0.00000  Uiso   1.00
O315   O     0.34118   0.49957   0.31638   0.00000  Uiso   1.00
O316   O     0.77261   0.74567   0.77675   0.00000  Uiso   1.00
N317   N     0.93912   0.57172   0.29683   0.00000  Uiso   1.00
N318   N     0.44109   0.48038   0.35330   0.00000  Uiso   1.00
N319   N     0.74850   0.65575   0.68137   0.00000  Uiso   1.00
N320   N     0.95591   0.68182   0.29600   0.00000  Uiso   1.00
N321   N     0.45788   0.59048   0.35247   0.00000  Uiso   1.00
N322   N     0.76529   0.76585   0.68054   0.00000  Uiso   1.00
C323   C     0.40644   0.81490   0.50798   0.00000  Uiso   1.00
C324   C     0.37552   0.87653   0.52433   0.00000  Uiso   1.00
C325   C     0.37706   0.91816   0.48532   0.00000  Uiso   1.00
C326   C     0.34585   0.97194   0.50896   0.00000  Uiso   1.00
C327   C     0.30262   0.06584   0.52513   0.00000  Uiso   1.00
C328   C     0.33955   0.74890   0.51690   0.00000  Uiso   1.00
C329   C     0.31086   0.68322   0.47165   0.00000  Uiso   1.00
C330   C     0.24939   0.62957   0.48905   0.00000  Uiso   1.00
C331   C     0.15035   0.52531   0.49370   0.00000  Uiso   1.00
C332   C     0.46438   0.83399   0.55903   0.00000  Uiso   1.00
C333   C     0.54064   0.83983   0.54921   0.00000  Uiso   1.00
C334   C     0.58425   0.85780   0.60208   0.00000  Uiso   1.00
C335   C     0.67902   0.88564   0.67214   0.00000  Uiso   1.00
C336   C     0.34828   0.83639   0.61935   0.00000  Uiso   1.00
C337   C     0.34393   0.88820   0.58482   0.00000  Uiso   1.00
C338   C     0.31272   0.94194   0.60853   0.00000  Uiso   1.00
C339   C     0.31421   0.98364   0.56956   0.00000  Uiso   1.00
C340   C     0.30796   0.76057   0.57739   0.00000  Uiso   1.00
C341   C     0.24652   0.70700   0.59486   0.00000  Uiso   1.00
C342   C     0.21774   0.64126   0.54964   0.00000  Uiso   1.00
C343   C     0.43279   0.84566   0.61952   0.00000  Uiso   1.00
C344   C     0.47629   0.86361   0.67242   0.00000  Uiso   1.00
C345   C     0.55261   0.86949   0.66268   0.00000  Uiso   1.00
H346   H     0.43103   0.80580   0.46089   0.00000  Uiso   1.00
H347   H     0.40150   0.90910   0.43850   0.00000  Uiso   1.00
H348   H     0.33532   0.67420   0.42484   0.00000  Uiso   1.00
H349   H     0.56506   0.83079   0.50239   0.00000  Uiso   1.00
H350   H     0.35482   0.02876   0.44036   0.00000  Uiso   1.00
H351   H     0.21529   0.53345   0.41155   0.00000  Uiso   1.00
H352   H     0.69974   0.86365   0.57508   0.00000  Uiso   1.00
H353   H     0.32368   0.84548   0.66645   0.00000  Uiso   1.00
H354   H     0.28827   0.95096   0.65535   0.00000  Uiso   1.00
H355   H     0.22209   0.71606   0.64168   0.00000  Uiso   1.00
H356   H     0.45183   0.87264   0.71922   0.00000  Uiso   1.00
H357   H     0.26291   0.06273   0.61635   0.00000  Uiso   1.00
H358   H     0.12339   0.56742   0.58754   0.00000  Uiso   1.00
H359   H     0.60783   0.89762   0.75107   0.00000  Uiso   1.00
O360   O     0.28748   0.11440   0.51734   0.00000  Uiso   1.00
O361   O     0.10444   0.46457   0.47955   0.00000  Uiso   1.00
O362   O     0.74003   0.89779   0.69408   0.00000  Uiso   1.00
N363   N     0.33806   0.02229   0.48331   0.00000  Uiso   1.00
N364   N     0.20760   0.55921   0.45637   0.00000  Uiso   1.00
N365   N     0.66052   0.86789   0.60925   0.00000  Uiso   1.00
N366   N     0.28861   0.04057   0.57801   0.00000  Uiso   1.00
N367   N     0.15815   0.57749   0.55107   0.00000  Uiso   1.00
N368   N     0.61107   0.88617   0.70395   0.00000  Uiso   1.00
C369   C     0.57575   0.41945   0.84273   0.00000  Uiso   1.00
C370   C     0.60834   0.44010   0.90824   0.00000  Uiso   1.00
C371   C     0.57023   0.41379   0.95784   0.00000  Uiso   1.00
C372   C     0.60996   0.43935   0.01401   0.00000  Uiso   1.00
C373   C     0.64915   0.46378   0.11477   0.00000  Uiso   1.00
C374   C     0.63159   0.39142   0.79720   0.00000  Uiso   1.00
C375   C     0.61303   0.32419   0.75343   0.00000  Uiso   1.00
C376   C     0.67232   0.30878   0.71612   0.00000  Uiso   1.00
C377   C     0.74760   0.25764   0.64444   0.00000  Uiso   1.00
C378   C     0.58211   0.48999   0.83068   0.00000  Uiso   1.00
C379   C     0.52194   0.50563   0.81504   0.00000  Uiso   1.00
C380   C     0.53958   0.57321   0.80591   0.00000  Uiso   1.00
C381   C     0.53802   0.67512   0.78621   0.00000  Uiso   1.00
C382   C     0.71407   0.51163   0.85428   0.00000  Uiso   1.00
C383   C     0.68347   0.49017   0.91451   0.00000  Uiso   1.00
C384   C     0.72326   0.51578   0.97062   0.00000  Uiso   1.00
C385   C     0.68522   0.48952   0.02030   0.00000  Uiso   1.00
C386   C     0.70672   0.44149   0.80347   0.00000  Uiso   1.00
C387   C     0.76606   0.42618   0.76621   0.00000  Uiso   1.00
C388   C     0.74759   0.35894   0.72241   0.00000  Uiso   1.00
C389   C     0.65724   0.54006   0.83695   0.00000  Uiso   1.00
C390   C     0.67497   0.60762   0.82783   0.00000  Uiso   1.00
C391   C     0.61484   0.62337   0.81219   0.00000  Uiso   1.00
H392   H     0.51726   0.38046   0.83785   0.00000  Uiso   1.00
H393   H     0.51209   0.37504   0.95297   0.00000  Uiso   1.00
H394   H     0.55488   0.28545   0.74858   0.00000  Uiso   1.00
H395   H     0.46381   0.46687   0.81019   0.00000  Uiso   1.00
H396   H     0.53950   0.39108   0.08336   0.00000  Uiso   1.00
H397   H     0.62972   0.20220   0.65239   0.00000  Uiso   1.00
H398   H     0.43767   0.58476   0.78230   0.00000  Uiso   1.00
H399   H     0.77256   0.55061   0.85917   0.00000  Uiso   1.00
H400   H     0.78140   0.55453   0.97547   0.00000  Uiso   1.00
H401   H     0.82419   0.46494   0.77108   0.00000  Uiso   1.00
H402   H     0.73312   0.64636   0.83269   0.00000  Uiso   1.00
H403   H     0.75809   0.53676   0.10162   0.00000  Uiso   1.00
H404   H     0.84830   0.34787   0.67065   0.00000  Uiso   1.00
H405   H     0.65626   0.73043   0.80056   0.00000  Uiso   1.00
O406   O     0.65001   0.46341   0.16860   0.00000  Uiso   1.00
O407   O     0.76837   0.21560   0.60318   0.00000  Uiso   1.00
O408   O     0.51641   0.71751   0.77362   0.00000  Uiso   1.00
N409   N     0.58973   0.42484   0.07170   0.00000  Uiso   1.00
N410   N     0.67408   0.24824   0.66878   0.00000  Uiso   1.00
N411   N     0.49453   0.60589   0.79022   0.00000  Uiso   1.00
N412   N     0.70735   0.50323   0.08153   0.00000  Uiso   1.00
N413   N     0.79169   0.32663   0.67860   0.00000  Uiso   1.00
N414   N     0.61215   0.68428   0.80004   0.00000  Uiso   1.00
C415   C     0.40987   0.82674   0.06714   0.00000  Uiso   1.00
C416   C     0.46173   0.85202   0.12385   0.00000  Uiso   1.00
C417   C     0.53452   0.84881   0.12255   0.00000  Uiso   1.00
C418   C     0.57270   0.87466   0.17948   0.00000  Uiso   1.00
C419   C     0.65831   0.90961   0.25901   0.00000  Uiso   1.00
C420   C     0.33498   0.77183   0.08227   0.00000  Uiso   1.00
C421   C     0.30120   0.70121   0.04600   0.00000  Uiso   1.00
C422   C     0.23268   0.65957   0.06793   0.00000  Uiso   1.00
C423   C     0.12147   0.57004   0.08288   0.00000  Uiso   1.00
C424   C     0.39067   0.89175   0.06617   0.00000  Uiso   1.00
C425   C     0.40368   0.92193   0.01635   0.00000  Uiso   1.00
C426   C     0.38202   0.98124   0.02471   0.00000  Uiso   1.00
C427   C     0.35728   0.07789   0.01465   0.00000  Uiso   1.00
C428   C     0.34825   0.87837   0.17058   0.00000  Uiso   1.00
C429   C     0.42826   0.88006   0.18004   0.00000  Uiso   1.00
C430   C     0.46635   0.90593   0.23699   0.00000  Uiso   1.00
C431   C     0.53918   0.90276   0.23577   0.00000  Uiso   1.00
C432   C     0.30151   0.79987   0.13846   0.00000  Uiso   1.00
C433   C     0.23302   0.75833   0.16045   0.00000  Uiso   1.00
C434   C     0.19915   0.68766   0.12422   0.00000  Uiso   1.00
C435   C     0.35720   0.91979   0.12235   0.00000  Uiso   1.00
C436   C     0.33551   0.97905   0.13079   0.00000  Uiso   1.00
C437   C     0.34849   0.00933   0.08100   0.00000  Uiso   1.00
H438   H     0.43592   0.80491   0.02339   0.00000  Uiso   1.00
H439   H     0.56040   0.82710   0.07906   0.00000  Uiso   1.00
H440   H     0.32711   0.67953   0.00252   0.00000  Uiso   1.00
H441   H     0.42958   0.90022   0.97288   0.00000  Uiso   1.00
H442   H     0.68363   0.86405   0.16555   0.00000  Uiso   1.00
H443   H     0.19171   0.55289   0.00416   0.00000  Uiso   1.00
H444   H     0.40779   0.01826   0.94164   0.00000  Uiso   1.00
H445   H     0.32219   0.90020   0.21432   0.00000  Uiso   1.00
H446   H     0.44043   0.92762   0.28046   0.00000  Uiso   1.00
H447   H     0.20714   0.78004   0.20392   0.00000  Uiso   1.00
H448   H     0.30961   0.00074   0.17428   0.00000  Uiso   1.00
H449   H     0.58626   0.94563   0.32902   0.00000  Uiso   1.00
H450   H     0.09434   0.63447   0.16763   0.00000  Uiso   1.00
H451   H     0.31042   0.09984   0.10511   0.00000  Uiso   1.00
O452   O     0.71476   0.92113   0.28735   0.00000  Uiso   1.00
O453   O     0.06938   0.51291   0.07561   0.00000  Uiso   1.00
O454   O     0.35288   0.12347   0.99359   0.00000  Uiso   1.00
N455   N     0.64449   0.87950   0.19494   0.00000  Uiso   1.00
N456   N     0.18459   0.58858   0.04406   0.00000  Uiso   1.00
N457   N     0.38658   0.02365   0.98560   0.00000  Uiso   1.00
N458   N     0.59210   0.92340   0.28290   0.00000  Uiso   1.00
N459   N     0.13219   0.63248   0.13202   0.00000  Uiso   1.00
N460   N     0.33419   0.06755   0.07356   0.00000  Uiso   1.00
C461   C     0.85389   0.14182   0.28807   0.00000  Uiso   1.00
C462   C     0.88348   0.20077   0.34893   0.00000  Uiso   1.00
C463   C     0.85912   0.19587   0.40906   0.00000  Uiso   1.00
C464   C     0.89325   0.25571   0.45862   0.00000  Uiso   1.00
C465   C     0.93058   0.33775   0.55469   0.00000  Uiso   1.00
C466   C     0.82525   0.17571   0.24830   0.00000  Uiso   1.00
C467   C     0.75193   0.14972   0.22380   0.00000  Uiso   1.00
C468   C     0.73704   0.18846   0.18864   0.00000  Uiso   1.00
C469   C     0.68398   0.23157   0.12843   0.00000  Uiso   1.00
C470   C     0.92417   0.12780   0.25402   0.00000  Uiso   1.00
C471   C     0.93402   0.06153   0.23433   0.00000  Uiso   1.00
C472   C     0.00241   0.05993   0.20397   0.00000  Uiso   1.00
C473   C     0.10293   0.02864   0.15265   0.00000  Uiso   1.00
C474   C     0.95783   0.25681   0.26917   0.00000  Uiso   1.00
C475   C     0.93993   0.26323   0.33867   0.00000  Uiso   1.00
C476   C     0.97411   0.32309   0.38816   0.00000  Uiso   1.00
C477   C     0.94981   0.31828   0.44834   0.00000  Uiso   1.00
C478   C     0.88170   0.23816   0.23803   0.00000  Uiso   1.00
C479   C     0.86692   0.27695   0.20290   0.00000  Uiso   1.00
C480   C     0.79360   0.25104   0.17836   0.00000  Uiso   1.00
C481   C     0.98062   0.19026   0.24376   0.00000  Uiso   1.00
C482   C     0.04901   0.18876   0.21343   0.00000  Uiso   1.00
C483   C     0.05896   0.12250   0.19369   0.00000  Uiso   1.00
H484   H     0.80994   0.09320   0.29605   0.00000  Uiso   1.00
H485   H     0.81543   0.14752   0.41698   0.00000  Uiso   1.00
H486   H     0.70826   0.10139   0.23175   0.00000  Uiso   1.00
H487   H     0.89032   0.01321   0.24228   0.00000  Uiso   1.00
H488   H     0.84639   0.23531   0.54652   0.00000  Uiso   1.00
H489   H     0.62042   0.13801   0.15593   0.00000  Uiso   1.00
H490   H     0.00433   0.95206   0.17813   0.00000  Uiso   1.00
H491   H     0.00178   0.30544   0.26118   0.00000  Uiso   1.00
H492   H     0.01780   0.37142   0.38020   0.00000  Uiso   1.00
H493   H     0.91062   0.32528   0.19496   0.00000  Uiso   1.00
H494   H     0.09268   0.23710   0.20549   0.00000  Uiso   1.00
H495   H     0.01063   0.41703   0.51667   0.00000  Uiso   1.00
H496   H     0.78466   0.31973   0.12607   0.00000  Uiso   1.00
H497   H     0.16858   0.13379   0.14827   0.00000  Uiso   1.00
O498   O     0.93557   0.36575   0.61052   0.00000  Uiso   1.00
O499   O     0.63911   0.23809   0.09806   0.00000  Uiso   1.00
O500   O     0.14279   0.99414   0.12719   0.00000  Uiso   1.00
N501   N     0.88286   0.26902   0.52317   0.00000  Uiso   1.00
N502   N     0.67158   0.17805   0.15799   0.00000  Uiso   1.00
N503   N     0.03050   0.00421   0.17873   0.00000  Uiso   1.00
N504   N     0.97124   0.36680   0.50710   0.00000  Uiso   1.00
N505   N     0.75996   0.27584   0.14192   0.00000  Uiso   1.00
N506   N     0.11888   0.10199   0.16266   0.00000  Uiso   1.00
C507   C     0.02240   0.22373   0.87455   0.00000  Uiso   1.00
C508   C     0.06195   0.29788   0.86325   0.00000  Uiso   1.00
C509   C     0.03467   0.35463   0.88224   0.00000  Uiso   1.00
C510   C     0.07931   0.41809   0.86738   0.00000  Uiso   1.00
C511   C     0.13015   0.53224   0.85477   0.00000  Uiso   1.00
C512   C     0.01240   0.16911   0.80996   0.00000  Uiso   1.00
C513   C     0.94346   0.11759   0.78416   0.00000  Uiso   1.00
C514   C     0.94640   0.07265   0.72444   0.00000  Uiso   1.00
C515   C     0.92032   0.98685   0.62913   0.00000  Uiso   1.00
C516   C     0.08041   0.21229   0.90919   0.00000  Uiso   1.00
C517   C     0.06865   0.19705   0.96681   0.00000  Uiso   1.00
C518   C     0.12884   0.18845   0.99062   0.00000  Uiso   1.00
C519   C     0.20836   0.16969   0.04938   0.00000  Uiso   1.00
C520   C     0.15021   0.23553   0.81437   0.00000  Uiso   1.00
C521   C     0.13137   0.30429   0.83056   0.00000  Uiso   1.00
C522   C     0.17607   0.36769   0.81566   0.00000  Uiso   1.00
C523   C     0.14886   0.42452   0.83463   0.00000  Uiso   1.00
C524   C     0.08182   0.17552   0.77727   0.00000  Uiso   1.00
C525   C     0.08487   0.13065   0.71758   0.00000  Uiso   1.00
C526   C     0.01595   0.07907   0.69170   0.00000  Uiso   1.00
C527   C     0.14984   0.21870   0.87650   0.00000  Uiso   1.00
C528   C     0.21006   0.21011   0.90023   0.00000  Uiso   1.00
C529   C     0.19839   0.19487   0.95788   0.00000  Uiso   1.00
H530   H     0.96835   0.21873   0.89999   0.00000  Uiso   1.00
H531   H     0.98093   0.34964   0.90753   0.00000  Uiso   1.00
H532   H     0.88975   0.11263   0.80947   0.00000  Uiso   1.00
H533   H     0.01492   0.19209   0.99209   0.00000  Uiso   1.00
H534   H     0.02549   0.49759   0.90146   0.00000  Uiso   1.00
H535   H     0.83322   0.99784   0.69470   0.00000  Uiso   1.00
H536   H     0.09716   0.16538   0.07978   0.00000  Uiso   1.00
H537   H     0.20426   0.24052   0.78892   0.00000  Uiso   1.00
H538   H     0.22979   0.37263   0.79037   0.00000  Uiso   1.00
H539   H     0.13860   0.13562   0.69230   0.00000  Uiso   1.00
H540   H     0.26377   0.21508   0.87492   0.00000  Uiso   1.00
H541   H     0.22747   0.51625   0.80636   0.00000  Uiso   1.00
H542   H     0.03520   0.01649   0.59960   0.00000  Uiso   1.00
H543   H     0.29915   0.18404   0.98469   0.00000  Uiso   1.00
O544   O     0.13901   0.59343   0.85685   0.00000  Uiso   1.00
O545   O     0.88676   0.93775   0.58559   0.00000  Uiso   1.00
O546   O     0.23305   0.15757   0.09082   0.00000  Uiso   1.00
N547   N     0.06953   0.48386   0.87889   0.00000  Uiso   1.00
N548   N     0.88977   0.01662   0.68557   0.00000  Uiso   1.00
N549   N     0.13652   0.17325   0.04559   0.00000  Uiso   1.00
N550   N     0.17822   0.49390   0.82772   0.00000  Uiso   1.00
N551   N     0.99845   0.02666   0.63440   0.00000  Uiso   1.00
N552   N     0.24521   0.18329   0.99442   0.00000  Uiso   1.00
