data_job_02805
_audit_creation_date              2018-12-19
_audit_creation_method            'Materials Studio'
_symmetry_space_group_name_H-M    'P1'
_symmetry_Int_Tables_number       1
_symmetry_cell_setting            triclinic
loop_
_symmetry_equiv_pos_as_xyz
  x,y,z
_cell_length_a                    12.3254
_cell_length_b                    12.3254
_cell_length_c                    33.0630
_cell_angle_alpha                 90.0000
_cell_angle_beta                  90.0000
_cell_angle_gamma                 120.0000
loop_
_atom_site_label
_atom_site_type_symbol
_atom_site_fract_x
_atom_site_fract_y
_atom_site_fract_z
_atom_site_U_iso_or_equiv
_atom_site_adp_type
_atom_site_occupancy
C1     C     0.84565   0.11992   0.79350   0.00000  Uiso   1.00
C2     C     0.73040   0.05677   0.82068   0.00000  Uiso   1.00
C3     C     0.72773   0.07856   0.86175   0.00000  Uiso   1.00
C4     C     0.61305   0.01135   0.88122   0.00000  Uiso   1.00
C5     C     0.45055   0.92632   0.92661   0.00000  Uiso   1.00
C6     C     0.85826   0.01426   0.77430   0.00000  Uiso   1.00
C7     C     0.96310   0.00032   0.77637   0.00000  Uiso   1.00
C8     C     0.95606   0.89733   0.75679   0.00000  Uiso   1.00
C9     C     0.99210   0.74635   0.73014   0.00000  Uiso   1.00
C10    C     0.81196   0.18036   0.75917   0.00000  Uiso   1.00
C11    C     0.87789   0.30606   0.74851   0.00000  Uiso   1.00
C12    C     0.83187   0.34291   0.71618   0.00000  Uiso   1.00
C13    C     0.79602   0.44982   0.66604   0.00000  Uiso   1.00
C14    C     0.64672   0.96182   0.75505   0.00000  Uiso   1.00
C15    C     0.62236   0.97090   0.79979   0.00000  Uiso   1.00
C16    C     0.50764   0.90364   0.81921   0.00000  Uiso   1.00
C17    C     0.50481   0.92532   0.86030   0.00000  Uiso   1.00
C18    C     0.75022   0.92839   0.75341   0.00000  Uiso   1.00
C19    C     0.74302   0.82540   0.73382   0.00000  Uiso   1.00
C20    C     0.84781   0.81130   0.73586   0.00000  Uiso   1.00
C21    C     0.70391   0.09449   0.73828   0.00000  Uiso   1.00
C22    C     0.65779   0.13114   0.70596   0.00000  Uiso   1.00
C23    C     0.72363   0.25688   0.69526   0.00000  Uiso   1.00
H24    H     0.92977   0.18676   0.80977   0.00000  Uiso   1.00
H25    H     0.81137   0.14501   0.87791   0.00000  Uiso   1.00
H26    H     0.04671   0.06679   0.79254   0.00000  Uiso   1.00
H27    H     0.96150   0.37248   0.76468   0.00000  Uiso   1.00
H28    H     0.63247   0.06082   0.94425   0.00000  Uiso   1.00
H29    H     0.12870   0.89591   0.76422   0.00000  Uiso   1.00
H30    H     0.94902   0.54053   0.70549   0.00000  Uiso   1.00
H31    H     0.56260   0.89496   0.73878   0.00000  Uiso   1.00
H32    H     0.42405   0.83719   0.80303   0.00000  Uiso   1.00
H33    H     0.65939   0.75897   0.71766   0.00000  Uiso   1.00
H34    H     0.57418   0.06467   0.68980   0.00000  Uiso   1.00
H35    H     0.31810   0.81098   0.88348   0.00000  Uiso   1.00
H36    H     0.81434   0.64607   0.70345   0.00000  Uiso   1.00
H37    H     0.63466   0.29069   0.64471   0.00000  Uiso   1.00
O38    O     0.39078   0.90313   0.95741   0.00000  Uiso   1.00
O39    O     0.04183   0.68680   0.72122   0.00000  Uiso   1.00
O40    O     0.80609   0.53251   0.64416   0.00000  Uiso   1.00
N41    N     0.57749   0.00996   0.92113   0.00000  Uiso   1.00
N42    N     0.04143   0.85577   0.75282   0.00000  Uiso   1.00
N43    N     0.87347   0.45843   0.69790   0.00000  Uiso   1.00
N44    N     0.40833   0.87553   0.88843   0.00000  Uiso   1.00
N45    N     0.87228   0.72134   0.72012   0.00000  Uiso   1.00
N46    N     0.70431   0.32399   0.66520   0.00000  Uiso   1.00
C47    C     0.88008   0.72573   0.46017   0.00000  Uiso   1.00
C48    C     0.94323   0.67363   0.48735   0.00000  Uiso   1.00
C49    C     0.92144   0.64918   0.52842   0.00000  Uiso   1.00
C50    C     0.98865   0.60171   0.54789   0.00000  Uiso   1.00
C51    C     0.07368   0.52423   0.59328   0.00000  Uiso   1.00
C52    C     0.98574   0.84400   0.44097   0.00000  Uiso   1.00
C53    C     0.99968   0.96279   0.44304   0.00000  Uiso   1.00
C54    C     0.10267   0.05873   0.42346   0.00000  Uiso   1.00
C55    C     0.25365   0.24574   0.39681   0.00000  Uiso   1.00
C56    C     0.81964   0.63160   0.42584   0.00000  Uiso   1.00
C57    C     0.69394   0.57183   0.41518   0.00000  Uiso   1.00
C58    C     0.65709   0.48897   0.38285   0.00000  Uiso   1.00
C59    C     0.55018   0.34621   0.33271   0.00000  Uiso   1.00
C60    C     0.03818   0.68490   0.42171   0.00000  Uiso   1.00
C61    C     0.02910   0.65146   0.46646   0.00000  Uiso   1.00
C62    C     0.09636   0.60400   0.48587   0.00000  Uiso   1.00
C63    C     0.07468   0.57948   0.52696   0.00000  Uiso   1.00
C64    C     0.07161   0.82183   0.42008   0.00000  Uiso   1.00
C65    C     0.17460   0.91761   0.40049   0.00000  Uiso   1.00
C66    C     0.18870   0.03652   0.40253   0.00000  Uiso   1.00
C67    C     0.90551   0.60942   0.40495   0.00000  Uiso   1.00
C68    C     0.86886   0.52665   0.37263   0.00000  Uiso   1.00
C69    C     0.74312   0.46675   0.36192   0.00000  Uiso   1.00
H70    H     0.81324   0.74301   0.47643   0.00000  Uiso   1.00
H71    H     0.85499   0.66636   0.54458   0.00000  Uiso   1.00
H72    H     0.93321   0.97992   0.45920   0.00000  Uiso   1.00
H73    H     0.62752   0.58901   0.43135   0.00000  Uiso   1.00
H74    H     0.93918   0.57165   0.61092   0.00000  Uiso   1.00
H75    H     0.10409   0.23279   0.43089   0.00000  Uiso   1.00
H76    H     0.45947   0.40850   0.37215   0.00000  Uiso   1.00
H77    H     0.10504   0.66764   0.40545   0.00000  Uiso   1.00
H78    H     0.16281   0.58685   0.46970   0.00000  Uiso   1.00
H79    H     0.24103   0.90042   0.38433   0.00000  Uiso   1.00
H80    H     0.93533   0.50951   0.35647   0.00000  Uiso   1.00
H81    H     0.18902   0.50713   0.55015   0.00000  Uiso   1.00
H82    H     0.35393   0.16827   0.37012   0.00000  Uiso   1.00
H83    H     0.70931   0.34397   0.31138   0.00000  Uiso   1.00
O84    O     0.09687   0.48765   0.62408   0.00000  Uiso   1.00
O85    O     0.31320   0.35503   0.38789   0.00000  Uiso   1.00
O86    O     0.46749   0.27357   0.31083   0.00000  Uiso   1.00
N87    N     0.99004   0.56753   0.58780   0.00000  Uiso   1.00
N88    N     0.14423   0.18566   0.41949   0.00000  Uiso   1.00
N89    N     0.54157   0.41504   0.36456   0.00000  Uiso   1.00
N90    N     0.12447   0.53281   0.55509   0.00000  Uiso   1.00
N91    N     0.27866   0.15094   0.38679   0.00000  Uiso   1.00
N92    N     0.67601   0.38032   0.33186   0.00000  Uiso   1.00
C93    C     0.27427   0.15435   0.12684   0.00000  Uiso   1.00
C94    C     0.32637   0.26960   0.15402   0.00000  Uiso   1.00
C95    C     0.35082   0.27227   0.19509   0.00000  Uiso   1.00
C96    C     0.39829   0.38695   0.21456   0.00000  Uiso   1.00
C97    C     0.47577   0.54945   0.25994   0.00000  Uiso   1.00
C98    C     0.15600   0.14174   0.10764   0.00000  Uiso   1.00
C99    C     0.03721   0.03690   0.10970   0.00000  Uiso   1.00
C100   C     0.94127   0.04394   0.09012   0.00000  Uiso   1.00
C101   C     0.75426   0.00790   0.06348   0.00000  Uiso   1.00
C102   C     0.36840   0.18804   0.09251   0.00000  Uiso   1.00
C103   C     0.42817   0.12211   0.08184   0.00000  Uiso   1.00
C104   C     0.51103   0.16813   0.04952   0.00000  Uiso   1.00
C105   C     0.65379   0.20398   0.99937   0.00000  Uiso   1.00
C106   C     0.31510   0.35328   0.08838   0.00000  Uiso   1.00
C107   C     0.34854   0.37764   0.13313   0.00000  Uiso   1.00
C108   C     0.39600   0.49236   0.15254   0.00000  Uiso   1.00
C109   C     0.42052   0.49519   0.19363   0.00000  Uiso   1.00
C110   C     0.17817   0.24978   0.08675   0.00000  Uiso   1.00
C111   C     0.08239   0.25698   0.06716   0.00000  Uiso   1.00
C112   C     0.96348   0.15219   0.06920   0.00000  Uiso   1.00
C113   C     0.39058   0.29609   0.07162   0.00000  Uiso   1.00
C114   C     0.47335   0.34221   0.03930   0.00000  Uiso   1.00
C115   C     0.53325   0.27637   0.02859   0.00000  Uiso   1.00
H116   H     0.25699   0.07023   0.14310   0.00000  Uiso   1.00
H117   H     0.33364   0.18863   0.21124   0.00000  Uiso   1.00
H118   H     0.02008   0.95329   0.12587   0.00000  Uiso   1.00
H119   H     0.41099   0.03850   0.09801   0.00000  Uiso   1.00
H120   H     0.42835   0.36753   0.27758   0.00000  Uiso   1.00
H121   H     0.76721   0.87130   0.09756   0.00000  Uiso   1.00
H122   H     0.59150   0.05098   0.03882   0.00000  Uiso   1.00
H123   H     0.33236   0.43740   0.07212   0.00000  Uiso   1.00
H124   H     0.41315   0.57595   0.13637   0.00000  Uiso   1.00
H125   H     0.09958   0.34061   0.05099   0.00000  Uiso   1.00
H126   H     0.49049   0.42582   0.02314   0.00000  Uiso   1.00
H127   H     0.49287   0.68190   0.21681   0.00000  Uiso   1.00
H128   H     0.83173   0.18566   0.03678   0.00000  Uiso   1.00
H129   H     0.65603   0.36534   0.97805   0.00000  Uiso   1.00
O130   O     0.51235   0.60922   0.29075   0.00000  Uiso   1.00
O131   O     0.64497   0.95817   0.05455   0.00000  Uiso   1.00
O132   O     0.72643   0.19391   0.97749   0.00000  Uiso   1.00
N133   N     0.43247   0.42251   0.25446   0.00000  Uiso   1.00
N134   N     0.81434   0.95857   0.08615   0.00000  Uiso   1.00
N135   N     0.58496   0.12653   0.03123   0.00000  Uiso   1.00
N136   N     0.46719   0.59167   0.22176   0.00000  Uiso   1.00
N137   N     0.84906   0.12772   0.05345   0.00000  Uiso   1.00
N138   N     0.61968   0.29569   0.99853   0.00000  Uiso   1.00
C139   C     0.11992   0.84565   0.20650   0.00000  Uiso   1.00
C140   C     0.05677   0.73040   0.17932   0.00000  Uiso   1.00
C141   C     0.07856   0.72773   0.13825   0.00000  Uiso   1.00
C142   C     0.01135   0.61305   0.11878   0.00000  Uiso   1.00
C143   C     0.92632   0.45055   0.07339   0.00000  Uiso   1.00
C144   C     0.01426   0.85826   0.22570   0.00000  Uiso   1.00
C145   C     0.00032   0.96310   0.22363   0.00000  Uiso   1.00
C146   C     0.89733   0.95606   0.24321   0.00000  Uiso   1.00
C147   C     0.74635   0.99210   0.26986   0.00000  Uiso   1.00
C148   C     0.18036   0.81196   0.24083   0.00000  Uiso   1.00
C149   C     0.30606   0.87789   0.25149   0.00000  Uiso   1.00
C150   C     0.34291   0.83187   0.28382   0.00000  Uiso   1.00
C151   C     0.44982   0.79602   0.33396   0.00000  Uiso   1.00
C152   C     0.96182   0.64672   0.24495   0.00000  Uiso   1.00
C153   C     0.97090   0.62236   0.20021   0.00000  Uiso   1.00
C154   C     0.90364   0.50764   0.18079   0.00000  Uiso   1.00
C155   C     0.92532   0.50481   0.13970   0.00000  Uiso   1.00
C156   C     0.92839   0.75022   0.24659   0.00000  Uiso   1.00
C157   C     0.82540   0.74302   0.26618   0.00000  Uiso   1.00
C158   C     0.81130   0.84781   0.26414   0.00000  Uiso   1.00
C159   C     0.09449   0.70391   0.26172   0.00000  Uiso   1.00
C160   C     0.13114   0.65779   0.29404   0.00000  Uiso   1.00
C161   C     0.25688   0.72363   0.30474   0.00000  Uiso   1.00
H162   H     0.18676   0.92977   0.19023   0.00000  Uiso   1.00
H163   H     0.14501   0.81137   0.12209   0.00000  Uiso   1.00
H164   H     0.06679   0.04671   0.20746   0.00000  Uiso   1.00
H165   H     0.37248   0.96150   0.23532   0.00000  Uiso   1.00
H166   H     0.06082   0.63247   0.05575   0.00000  Uiso   1.00
H167   H     0.89591   0.12870   0.23578   0.00000  Uiso   1.00
H168   H     0.54053   0.94902   0.29451   0.00000  Uiso   1.00
H169   H     0.89496   0.56260   0.26122   0.00000  Uiso   1.00
H170   H     0.83719   0.42405   0.19697   0.00000  Uiso   1.00
H171   H     0.75897   0.65939   0.28234   0.00000  Uiso   1.00
H172   H     0.06467   0.57418   0.31020   0.00000  Uiso   1.00
H173   H     0.81098   0.31810   0.11652   0.00000  Uiso   1.00
H174   H     0.64607   0.81434   0.29655   0.00000  Uiso   1.00
H175   H     0.29069   0.63466   0.35529   0.00000  Uiso   1.00
O176   O     0.90313   0.39078   0.04259   0.00000  Uiso   1.00
O177   O     0.68680   0.04183   0.27878   0.00000  Uiso   1.00
O178   O     0.53251   0.80609   0.35584   0.00000  Uiso   1.00
N179   N     0.00996   0.57749   0.07887   0.00000  Uiso   1.00
N180   N     0.85577   0.04143   0.24718   0.00000  Uiso   1.00
N181   N     0.45843   0.87347   0.30210   0.00000  Uiso   1.00
N182   N     0.87553   0.40833   0.11157   0.00000  Uiso   1.00
N183   N     0.72134   0.87228   0.27988   0.00000  Uiso   1.00
N184   N     0.32399   0.70431   0.33480   0.00000  Uiso   1.00
C185   C     0.72573   0.88008   0.53983   0.00000  Uiso   1.00
C186   C     0.67363   0.94323   0.51265   0.00000  Uiso   1.00
C187   C     0.64918   0.92144   0.47158   0.00000  Uiso   1.00
C188   C     0.60171   0.98865   0.45211   0.00000  Uiso   1.00
C189   C     0.52423   0.07368   0.40672   0.00000  Uiso   1.00
C190   C     0.84400   0.98574   0.55903   0.00000  Uiso   1.00
C191   C     0.96279   0.99968   0.55696   0.00000  Uiso   1.00
C192   C     0.05873   0.10267   0.57654   0.00000  Uiso   1.00
C193   C     0.24574   0.25365   0.60319   0.00000  Uiso   1.00
C194   C     0.63160   0.81964   0.57416   0.00000  Uiso   1.00
C195   C     0.57183   0.69394   0.58482   0.00000  Uiso   1.00
C196   C     0.48897   0.65709   0.61715   0.00000  Uiso   1.00
C197   C     0.34621   0.55018   0.66729   0.00000  Uiso   1.00
C198   C     0.68490   0.03818   0.57829   0.00000  Uiso   1.00
C199   C     0.65146   0.02910   0.53354   0.00000  Uiso   1.00
C200   C     0.60400   0.09636   0.51413   0.00000  Uiso   1.00
C201   C     0.57948   0.07468   0.47304   0.00000  Uiso   1.00
C202   C     0.82183   0.07161   0.57992   0.00000  Uiso   1.00
C203   C     0.91761   0.17460   0.59951   0.00000  Uiso   1.00
C204   C     0.03652   0.18870   0.59747   0.00000  Uiso   1.00
C205   C     0.60942   0.90551   0.59505   0.00000  Uiso   1.00
C206   C     0.52665   0.86886   0.62737   0.00000  Uiso   1.00
C207   C     0.46675   0.74312   0.63808   0.00000  Uiso   1.00
H208   H     0.74301   0.81324   0.52357   0.00000  Uiso   1.00
H209   H     0.66636   0.85499   0.45542   0.00000  Uiso   1.00
H210   H     0.97992   0.93321   0.54080   0.00000  Uiso   1.00
H211   H     0.58901   0.62752   0.56865   0.00000  Uiso   1.00
H212   H     0.57165   0.93918   0.38908   0.00000  Uiso   1.00
H213   H     0.23279   0.10409   0.56911   0.00000  Uiso   1.00
H214   H     0.40850   0.45947   0.62785   0.00000  Uiso   1.00
H215   H     0.66764   0.10504   0.59455   0.00000  Uiso   1.00
H216   H     0.58685   0.16281   0.53030   0.00000  Uiso   1.00
H217   H     0.90042   0.24103   0.61567   0.00000  Uiso   1.00
H218   H     0.50951   0.93533   0.64353   0.00000  Uiso   1.00
H219   H     0.50713   0.18902   0.44985   0.00000  Uiso   1.00
H220   H     0.16827   0.35393   0.62988   0.00000  Uiso   1.00
H221   H     0.34397   0.70931   0.68862   0.00000  Uiso   1.00
O222   O     0.48765   0.09687   0.37592   0.00000  Uiso   1.00
O223   O     0.35503   0.31320   0.61211   0.00000  Uiso   1.00
O224   O     0.27357   0.46749   0.68917   0.00000  Uiso   1.00
N225   N     0.56753   0.99004   0.41220   0.00000  Uiso   1.00
N226   N     0.18566   0.14423   0.58051   0.00000  Uiso   1.00
N227   N     0.41504   0.54157   0.63544   0.00000  Uiso   1.00
N228   N     0.53281   0.12447   0.44491   0.00000  Uiso   1.00
N229   N     0.15094   0.27866   0.61321   0.00000  Uiso   1.00
N230   N     0.38032   0.67601   0.66814   0.00000  Uiso   1.00
C231   C     0.15435   0.27427   0.87316   0.00000  Uiso   1.00
C232   C     0.26960   0.32637   0.84598   0.00000  Uiso   1.00
C233   C     0.27227   0.35082   0.80491   0.00000  Uiso   1.00
C234   C     0.38695   0.39829   0.78544   0.00000  Uiso   1.00
C235   C     0.54945   0.47577   0.74006   0.00000  Uiso   1.00
C236   C     0.14174   0.15600   0.89236   0.00000  Uiso   1.00
C237   C     0.03690   0.03721   0.89030   0.00000  Uiso   1.00
C238   C     0.04394   0.94127   0.90988   0.00000  Uiso   1.00
C239   C     0.00790   0.75426   0.93652   0.00000  Uiso   1.00
C240   C     0.18804   0.36840   0.90749   0.00000  Uiso   1.00
C241   C     0.12211   0.42817   0.91816   0.00000  Uiso   1.00
C242   C     0.16813   0.51103   0.95048   0.00000  Uiso   1.00
C243   C     0.20398   0.65379   0.00063   0.00000  Uiso   1.00
C244   C     0.35328   0.31510   0.91162   0.00000  Uiso   1.00
C245   C     0.37764   0.34854   0.86687   0.00000  Uiso   1.00
C246   C     0.49236   0.39600   0.84746   0.00000  Uiso   1.00
C247   C     0.49519   0.42052   0.80637   0.00000  Uiso   1.00
C248   C     0.24978   0.17817   0.91325   0.00000  Uiso   1.00
C249   C     0.25698   0.08239   0.93284   0.00000  Uiso   1.00
C250   C     0.15219   0.96348   0.93080   0.00000  Uiso   1.00
C251   C     0.29609   0.39058   0.92838   0.00000  Uiso   1.00
C252   C     0.34221   0.47335   0.96070   0.00000  Uiso   1.00
C253   C     0.27637   0.53325   0.97141   0.00000  Uiso   1.00
H254   H     0.07023   0.25699   0.85690   0.00000  Uiso   1.00
H255   H     0.18863   0.33364   0.78876   0.00000  Uiso   1.00
H256   H     0.95329   0.02008   0.87413   0.00000  Uiso   1.00
H257   H     0.03850   0.41099   0.90199   0.00000  Uiso   1.00
H258   H     0.36753   0.42835   0.72242   0.00000  Uiso   1.00
H259   H     0.87130   0.76721   0.90244   0.00000  Uiso   1.00
H260   H     0.05098   0.59150   0.96118   0.00000  Uiso   1.00
H261   H     0.43740   0.33236   0.92788   0.00000  Uiso   1.00
H262   H     0.57595   0.41315   0.86363   0.00000  Uiso   1.00
H263   H     0.34061   0.09958   0.94901   0.00000  Uiso   1.00
H264   H     0.42582   0.49049   0.97686   0.00000  Uiso   1.00
H265   H     0.68190   0.49287   0.78319   0.00000  Uiso   1.00
H266   H     0.18566   0.83173   0.96322   0.00000  Uiso   1.00
H267   H     0.36534   0.65603   0.02195   0.00000  Uiso   1.00
O268   O     0.60922   0.51235   0.70925   0.00000  Uiso   1.00
O269   O     0.95817   0.64497   0.94545   0.00000  Uiso   1.00
O270   O     0.19391   0.72643   0.02251   0.00000  Uiso   1.00
N271   N     0.42251   0.43247   0.74554   0.00000  Uiso   1.00
N272   N     0.95857   0.81434   0.91385   0.00000  Uiso   1.00
N273   N     0.12653   0.58496   0.96877   0.00000  Uiso   1.00
N274   N     0.59167   0.46719   0.77824   0.00000  Uiso   1.00
N275   N     0.12772   0.84906   0.94655   0.00000  Uiso   1.00
N276   N     0.29569   0.61968   0.00147   0.00000  Uiso   1.00
