data_job_04896
_audit_creation_date              2018-12-19
_audit_creation_method            'Materials Studio'
_symmetry_space_group_name_H-M    'P1'
_symmetry_Int_Tables_number       1
_symmetry_cell_setting            triclinic
loop_
_symmetry_equiv_pos_as_xyz
  x,y,z
_cell_length_a                    9.7875
_cell_length_b                    14.6068
_cell_length_c                    39.1494
_cell_angle_alpha                 90.0000
_cell_angle_beta                  90.0000
_cell_angle_gamma                 90.0000
loop_
_atom_site_label
_atom_site_type_symbol
_atom_site_fract_x
_atom_site_fract_y
_atom_site_fract_z
_atom_site_U_iso_or_equiv
_atom_site_adp_type
_atom_site_occupancy
C1     C     0.98929   0.16075   0.57295   0.00000  Uiso   1.00
C2     C     0.03416   0.26030   0.56949   0.00000  Uiso   1.00
C3     C     0.12049   0.29477   0.54449   0.00000  Uiso   1.00
C4     C     0.14917   0.38780   0.54572   0.00000  Uiso   1.00
C5     C     0.22737   0.53377   0.53650   0.00000  Uiso   1.00
C6     C     0.02991   0.13128   0.60891   0.00000  Uiso   1.00
C7     C     0.11265   0.05726   0.61705   0.00000  Uiso   1.00
C8     C     0.13773   0.04168   0.65147   0.00000  Uiso   1.00
C9     C     0.20925   0.98730   0.70346   0.00000  Uiso   1.00
C10    C     0.83352   0.16189   0.57243   0.00000  Uiso   1.00
C11    C     0.75112   0.11360   0.54989   0.00000  Uiso   1.00
C12    C     0.61085   0.12377   0.55360   0.00000  Uiso   1.00
C13    C     0.37744   0.11693   0.54893   0.00000  Uiso   1.00
C14    C     0.88670   0.26466   0.61960   0.00000  Uiso   1.00
C15    C     0.97843   0.31673   0.59483   0.00000  Uiso   1.00
C16    C     0.00699   0.40974   0.59610   0.00000  Uiso   1.00
C17    C     0.09334   0.44434   0.57110   0.00000  Uiso   1.00
C18    C     0.97419   0.18771   0.63425   0.00000  Uiso   1.00
C19    C     0.99914   0.17223   0.66867   0.00000  Uiso   1.00
C20    C     0.08191   0.09822   0.67686   0.00000  Uiso   1.00
C21    C     0.77779   0.21833   0.59776   0.00000  Uiso   1.00
C22    C     0.63762   0.22857   0.60151   0.00000  Uiso   1.00
C23    C     0.55503   0.18031   0.57898   0.00000  Uiso   1.00
H24    H     0.03268   0.11681   0.55323   0.00000  Uiso   1.00
H25    H     0.16361   0.25107   0.52488   0.00000  Uiso   1.00
H26    H     0.15575   0.01360   0.59744   0.00000  Uiso   1.00
H27    H     0.79428   0.06993   0.53029   0.00000  Uiso   1.00
H28    H     0.28423   0.42481   0.50464   0.00000  Uiso   1.00
H29    H     0.26763   0.92406   0.65763   0.00000  Uiso   1.00
H30    H     0.50540   0.04284   0.51603   0.00000  Uiso   1.00
H31    H     0.84331   0.30860   0.63933   0.00000  Uiso   1.00
H32    H     0.96385   0.45340   0.61571   0.00000  Uiso   1.00
H33    H     0.95600   0.21592   0.68827   0.00000  Uiso   1.00
H34    H     0.59453   0.27225   0.62112   0.00000  Uiso   1.00
H35    H     0.12211   0.58902   0.57836   0.00000  Uiso   1.00
H36    H     0.10550   0.08827   0.73135   0.00000  Uiso   1.00
H37    H     0.34328   0.20706   0.58975   0.00000  Uiso   1.00
O38    O     0.28591   0.59870   0.52441   0.00000  Uiso   1.00
O39    O     0.26411   0.94172   0.72513   0.00000  Uiso   1.00
O40    O     0.26409   0.09757   0.53935   0.00000  Uiso   1.00
N41    N     0.22951   0.44359   0.52523   0.00000  Uiso   1.00
N42    N     0.21400   0.97543   0.66826   0.00000  Uiso   1.00
N43    N     0.50139   0.08646   0.53588   0.00000  Uiso   1.00
N44    N     0.14227   0.53195   0.56489   0.00000  Uiso   1.00
N45    N     0.12677   0.06379   0.70793   0.00000  Uiso   1.00
N46    N     0.41415   0.17482   0.57555   0.00000  Uiso   1.00
C47    C     0.19055   0.15871   0.42576   0.00000  Uiso   1.00
C48    C     0.14493   0.25830   0.42831   0.00000  Uiso   1.00
C49    C     0.05811   0.29406   0.45296   0.00000  Uiso   1.00
C50    C     0.02876   0.38689   0.45089   0.00000  Uiso   1.00
C51    C     0.94940   0.53315   0.45877   0.00000  Uiso   1.00
C52    C     0.15049   0.12683   0.39004   0.00000  Uiso   1.00
C53    C     0.06836   0.05204   0.38252   0.00000  Uiso   1.00
C54    C     0.04372   0.03419   0.34823   0.00000  Uiso   1.00
C55    C     0.97308   0.97629   0.29670   0.00000  Uiso   1.00
C56    C     0.34631   0.16040   0.42636   0.00000  Uiso   1.00
C57    C     0.42885   0.11383   0.44936   0.00000  Uiso   1.00
C58    C     0.56908   0.12423   0.44564   0.00000  Uiso   1.00
C59    C     0.80249   0.11846   0.45050   0.00000  Uiso   1.00
C60    C     0.29282   0.25997   0.37825   0.00000  Uiso   1.00
C61    C     0.20047   0.31329   0.40251   0.00000  Uiso   1.00
C62    C     0.17125   0.40609   0.40040   0.00000  Uiso   1.00
C63    C     0.08441   0.44199   0.42504   0.00000  Uiso   1.00
C64    C     0.20603   0.18182   0.36424   0.00000  Uiso   1.00
C65    C     0.18151   0.16407   0.32996   0.00000  Uiso   1.00
C66    C     0.09936   0.08929   0.32238   0.00000  Uiso   1.00
C67    C     0.40186   0.21540   0.40056   0.00000  Uiso   1.00
C68    C     0.54199   0.22587   0.39680   0.00000  Uiso   1.00
C69    C     0.62472   0.17932   0.41979   0.00000  Uiso   1.00
H70    H     0.14731   0.11589   0.44584   0.00000  Uiso   1.00
H71    H     0.01513   0.25148   0.47292   0.00000  Uiso   1.00
H72    H     0.02541   0.00949   0.40249   0.00000  Uiso   1.00
H73    H     0.38583   0.07127   0.46932   0.00000  Uiso   1.00
H74    H     0.89305   0.42605   0.49155   0.00000  Uiso   1.00
H75    H     0.91475   0.91579   0.34304   0.00000  Uiso   1.00
H76    H     0.67477   0.04606   0.48397   0.00000  Uiso   1.00
H77    H     0.33606   0.30279   0.35817   0.00000  Uiso   1.00
H78    H     0.21425   0.44864   0.38043   0.00000  Uiso   1.00
H79    H     0.22451   0.20665   0.31000   0.00000  Uiso   1.00
H80    H     0.58494   0.26843   0.37683   0.00000  Uiso   1.00
H81    H     0.05465   0.58607   0.41649   0.00000  Uiso   1.00
H82    H     0.07635   0.07580   0.26798   0.00000  Uiso   1.00
H83    H     0.83638   0.20609   0.40891   0.00000  Uiso   1.00
O84    O     0.89027   0.59862   0.47024   0.00000  Uiso   1.00
O85    O     0.91876   0.92917   0.27541   0.00000  Uiso   1.00
O86    O     0.91589   0.10010   0.46030   0.00000  Uiso   1.00
N87    N     0.94782   0.44370   0.47083   0.00000  Uiso   1.00
N88    N     0.96809   0.96664   0.33199   0.00000  Uiso   1.00
N89    N     0.67865   0.08842   0.46374   0.00000  Uiso   1.00
N90    N     0.03478   0.52980   0.43044   0.00000  Uiso   1.00
N91    N     0.05505   0.05275   0.29160   0.00000  Uiso   1.00
N92    N     0.76561   0.17453   0.42335   0.00000  Uiso   1.00
C93    C     0.01071   0.83925   0.07295   0.00000  Uiso   1.00
C94    C     0.96584   0.73970   0.06949   0.00000  Uiso   1.00
C95    C     0.87951   0.70523   0.04449   0.00000  Uiso   1.00
C96    C     0.85083   0.61220   0.04572   0.00000  Uiso   1.00
C97    C     0.77263   0.46623   0.03650   0.00000  Uiso   1.00
C98    C     0.97009   0.86872   0.10891   0.00000  Uiso   1.00
C99    C     0.88735   0.94274   0.11705   0.00000  Uiso   1.00
C100   C     0.86227   0.95832   0.15147   0.00000  Uiso   1.00
C101   C     0.79075   0.01270   0.20346   0.00000  Uiso   1.00
C102   C     0.16648   0.83811   0.07243   0.00000  Uiso   1.00
C103   C     0.24888   0.88640   0.04989   0.00000  Uiso   1.00
C104   C     0.38915   0.87623   0.05360   0.00000  Uiso   1.00
C105   C     0.62256   0.88307   0.04893   0.00000  Uiso   1.00
C106   C     0.11330   0.73534   0.11960   0.00000  Uiso   1.00
C107   C     0.02157   0.68327   0.09483   0.00000  Uiso   1.00
C108   C     0.99301   0.59026   0.09610   0.00000  Uiso   1.00
C109   C     0.90666   0.55566   0.07110   0.00000  Uiso   1.00
C110   C     0.02581   0.81229   0.13425   0.00000  Uiso   1.00
C111   C     0.00086   0.82777   0.16867   0.00000  Uiso   1.00
C112   C     0.91809   0.90178   0.17686   0.00000  Uiso   1.00
C113   C     0.22221   0.78167   0.09776   0.00000  Uiso   1.00
C114   C     0.36238   0.77143   0.10151   0.00000  Uiso   1.00
C115   C     0.44497   0.81969   0.07898   0.00000  Uiso   1.00
H116   H     0.96732   0.88319   0.05323   0.00000  Uiso   1.00
H117   H     0.83639   0.74893   0.02488   0.00000  Uiso   1.00
H118   H     0.84425   0.98640   0.09744   0.00000  Uiso   1.00
H119   H     0.20572   0.93007   0.03029   0.00000  Uiso   1.00
H120   H     0.71577   0.57519   0.00464   0.00000  Uiso   1.00
H121   H     0.73237   0.07594   0.15763   0.00000  Uiso   1.00
H122   H     0.49460   0.95716   0.01603   0.00000  Uiso   1.00
H123   H     0.15669   0.69140   0.13933   0.00000  Uiso   1.00
H124   H     0.03615   0.54660   0.11571   0.00000  Uiso   1.00
H125   H     0.04400   0.78408   0.18827   0.00000  Uiso   1.00
H126   H     0.40547   0.72775   0.12112   0.00000  Uiso   1.00
H127   H     0.87789   0.41098   0.07836   0.00000  Uiso   1.00
H128   H     0.89450   0.91173   0.23135   0.00000  Uiso   1.00
H129   H     0.65672   0.79294   0.08975   0.00000  Uiso   1.00
O130   O     0.71409   0.40130   0.02441   0.00000  Uiso   1.00
O131   O     0.73589   0.05828   0.22513   0.00000  Uiso   1.00
O132   O     0.73591   0.90243   0.03935   0.00000  Uiso   1.00
N133   N     0.77049   0.55641   0.02523   0.00000  Uiso   1.00
N134   N     0.78600   0.02457   0.16826   0.00000  Uiso   1.00
N135   N     0.49861   0.91354   0.03588   0.00000  Uiso   1.00
N136   N     0.85773   0.46805   0.06489   0.00000  Uiso   1.00
N137   N     0.87323   0.93621   0.20793   0.00000  Uiso   1.00
N138   N     0.58585   0.82518   0.07555   0.00000  Uiso   1.00
C139   C     0.80945   0.84129   0.92576   0.00000  Uiso   1.00
C140   C     0.85507   0.74170   0.92831   0.00000  Uiso   1.00
C141   C     0.94189   0.70594   0.95296   0.00000  Uiso   1.00
C142   C     0.97124   0.61311   0.95089   0.00000  Uiso   1.00
C143   C     0.05060   0.46685   0.95877   0.00000  Uiso   1.00
C144   C     0.84951   0.87317   0.89004   0.00000  Uiso   1.00
C145   C     0.93164   0.94796   0.88252   0.00000  Uiso   1.00
C146   C     0.95628   0.96581   0.84823   0.00000  Uiso   1.00
C147   C     0.02692   0.02371   0.79670   0.00000  Uiso   1.00
C148   C     0.65369   0.83960   0.92636   0.00000  Uiso   1.00
C149   C     0.57115   0.88617   0.94936   0.00000  Uiso   1.00
C150   C     0.43092   0.87577   0.94564   0.00000  Uiso   1.00
C151   C     0.19751   0.88154   0.95050   0.00000  Uiso   1.00
C152   C     0.70718   0.74003   0.87825   0.00000  Uiso   1.00
C153   C     0.79953   0.68671   0.90251   0.00000  Uiso   1.00
C154   C     0.82875   0.59391   0.90040   0.00000  Uiso   1.00
C155   C     0.91559   0.55801   0.92504   0.00000  Uiso   1.00
C156   C     0.79397   0.81818   0.86424   0.00000  Uiso   1.00
C157   C     0.81849   0.83593   0.82996   0.00000  Uiso   1.00
C158   C     0.90064   0.91071   0.82238   0.00000  Uiso   1.00
C159   C     0.59814   0.78460   0.90056   0.00000  Uiso   1.00
C160   C     0.45801   0.77413   0.89680   0.00000  Uiso   1.00
C161   C     0.37528   0.82068   0.91979   0.00000  Uiso   1.00
H162   H     0.85269   0.88411   0.94584   0.00000  Uiso   1.00
H163   H     0.98487   0.74852   0.97292   0.00000  Uiso   1.00
H164   H     0.97459   0.99051   0.90249   0.00000  Uiso   1.00
H165   H     0.61417   0.92873   0.96932   0.00000  Uiso   1.00
H166   H     0.10695   0.57395   0.99155   0.00000  Uiso   1.00
H167   H     0.08525   0.08421   0.84304   0.00000  Uiso   1.00
H168   H     0.32523   0.95394   0.98397   0.00000  Uiso   1.00
H169   H     0.66394   0.69721   0.85817   0.00000  Uiso   1.00
H170   H     0.78575   0.55136   0.88043   0.00000  Uiso   1.00
H171   H     0.77549   0.79335   0.81000   0.00000  Uiso   1.00
H172   H     0.41506   0.73157   0.87683   0.00000  Uiso   1.00
H173   H     0.94535   0.41393   0.91649   0.00000  Uiso   1.00
H174   H     0.92365   0.92420   0.76798   0.00000  Uiso   1.00
H175   H     0.16362   0.79391   0.90891   0.00000  Uiso   1.00
O176   O     0.10973   0.40138   0.97024   0.00000  Uiso   1.00
O177   O     0.08124   0.07083   0.77541   0.00000  Uiso   1.00
O178   O     0.08411   0.89990   0.96030   0.00000  Uiso   1.00
N179   N     0.05218   0.55630   0.97083   0.00000  Uiso   1.00
N180   N     0.03191   0.03336   0.83199   0.00000  Uiso   1.00
N181   N     0.32135   0.91158   0.96374   0.00000  Uiso   1.00
N182   N     0.96522   0.47020   0.93044   0.00000  Uiso   1.00
N183   N     0.94495   0.94725   0.79160   0.00000  Uiso   1.00
N184   N     0.23439   0.82547   0.92335   0.00000  Uiso   1.00
C185   C     0.48929   0.83925   0.57295   0.00000  Uiso   1.00
C186   C     0.53416   0.73970   0.56949   0.00000  Uiso   1.00
C187   C     0.62049   0.70523   0.54449   0.00000  Uiso   1.00
C188   C     0.64917   0.61220   0.54572   0.00000  Uiso   1.00
C189   C     0.72737   0.46623   0.53650   0.00000  Uiso   1.00
C190   C     0.52991   0.86872   0.60891   0.00000  Uiso   1.00
C191   C     0.61265   0.94274   0.61705   0.00000  Uiso   1.00
C192   C     0.63773   0.95832   0.65147   0.00000  Uiso   1.00
C193   C     0.70925   0.01270   0.70346   0.00000  Uiso   1.00
C194   C     0.33352   0.83811   0.57243   0.00000  Uiso   1.00
C195   C     0.25112   0.88640   0.54989   0.00000  Uiso   1.00
C196   C     0.11085   0.87623   0.55360   0.00000  Uiso   1.00
C197   C     0.87744   0.88307   0.54893   0.00000  Uiso   1.00
C198   C     0.38670   0.73534   0.61960   0.00000  Uiso   1.00
C199   C     0.47843   0.68327   0.59483   0.00000  Uiso   1.00
C200   C     0.50699   0.59026   0.59610   0.00000  Uiso   1.00
C201   C     0.59334   0.55566   0.57110   0.00000  Uiso   1.00
C202   C     0.47419   0.81229   0.63425   0.00000  Uiso   1.00
C203   C     0.49914   0.82777   0.66867   0.00000  Uiso   1.00
C204   C     0.58191   0.90178   0.67686   0.00000  Uiso   1.00
C205   C     0.27779   0.78167   0.59776   0.00000  Uiso   1.00
C206   C     0.13762   0.77143   0.60151   0.00000  Uiso   1.00
C207   C     0.05503   0.81969   0.57898   0.00000  Uiso   1.00
H208   H     0.53268   0.88319   0.55323   0.00000  Uiso   1.00
H209   H     0.66361   0.74893   0.52488   0.00000  Uiso   1.00
H210   H     0.65575   0.98640   0.59744   0.00000  Uiso   1.00
H211   H     0.29428   0.93007   0.53029   0.00000  Uiso   1.00
H212   H     0.78423   0.57519   0.50464   0.00000  Uiso   1.00
H213   H     0.76763   0.07594   0.65763   0.00000  Uiso   1.00
H214   H     0.00540   0.95716   0.51603   0.00000  Uiso   1.00
H215   H     0.34331   0.69140   0.63933   0.00000  Uiso   1.00
H216   H     0.46385   0.54660   0.61571   0.00000  Uiso   1.00
H217   H     0.45600   0.78408   0.68827   0.00000  Uiso   1.00
H218   H     0.09453   0.72775   0.62112   0.00000  Uiso   1.00
H219   H     0.62211   0.41098   0.57836   0.00000  Uiso   1.00
H220   H     0.60550   0.91173   0.73135   0.00000  Uiso   1.00
H221   H     0.84328   0.79294   0.58975   0.00000  Uiso   1.00
O222   O     0.78591   0.40130   0.52441   0.00000  Uiso   1.00
O223   O     0.76411   0.05828   0.72513   0.00000  Uiso   1.00
O224   O     0.76409   0.90243   0.53935   0.00000  Uiso   1.00
N225   N     0.72951   0.55641   0.52523   0.00000  Uiso   1.00
N226   N     0.71400   0.02457   0.66826   0.00000  Uiso   1.00
N227   N     0.00139   0.91354   0.53588   0.00000  Uiso   1.00
N228   N     0.64227   0.46805   0.56489   0.00000  Uiso   1.00
N229   N     0.62677   0.93621   0.70793   0.00000  Uiso   1.00
N230   N     0.91415   0.82518   0.57555   0.00000  Uiso   1.00
C231   C     0.69055   0.84129   0.42576   0.00000  Uiso   1.00
C232   C     0.64493   0.74170   0.42831   0.00000  Uiso   1.00
C233   C     0.55811   0.70594   0.45296   0.00000  Uiso   1.00
C234   C     0.52876   0.61311   0.45089   0.00000  Uiso   1.00
C235   C     0.44940   0.46685   0.45877   0.00000  Uiso   1.00
C236   C     0.65049   0.87317   0.39004   0.00000  Uiso   1.00
C237   C     0.56836   0.94796   0.38252   0.00000  Uiso   1.00
C238   C     0.54372   0.96581   0.34823   0.00000  Uiso   1.00
C239   C     0.47308   0.02371   0.29670   0.00000  Uiso   1.00
C240   C     0.84631   0.83960   0.42636   0.00000  Uiso   1.00
C241   C     0.92885   0.88617   0.44936   0.00000  Uiso   1.00
C242   C     0.06908   0.87577   0.44564   0.00000  Uiso   1.00
C243   C     0.30249   0.88154   0.45050   0.00000  Uiso   1.00
C244   C     0.79282   0.74003   0.37825   0.00000  Uiso   1.00
C245   C     0.70047   0.68671   0.40251   0.00000  Uiso   1.00
C246   C     0.67125   0.59391   0.40040   0.00000  Uiso   1.00
C247   C     0.58441   0.55801   0.42504   0.00000  Uiso   1.00
C248   C     0.70603   0.81818   0.36424   0.00000  Uiso   1.00
C249   C     0.68151   0.83593   0.32996   0.00000  Uiso   1.00
C250   C     0.59936   0.91071   0.32238   0.00000  Uiso   1.00
C251   C     0.90186   0.78460   0.40056   0.00000  Uiso   1.00
C252   C     0.04199   0.77413   0.39680   0.00000  Uiso   1.00
C253   C     0.12472   0.82068   0.41979   0.00000  Uiso   1.00
H254   H     0.64731   0.88411   0.44584   0.00000  Uiso   1.00
H255   H     0.51513   0.74852   0.47292   0.00000  Uiso   1.00
H256   H     0.52541   0.99051   0.40249   0.00000  Uiso   1.00
H257   H     0.88583   0.92873   0.46932   0.00000  Uiso   1.00
H258   H     0.39305   0.57395   0.49155   0.00000  Uiso   1.00
H259   H     0.41475   0.08421   0.34304   0.00000  Uiso   1.00
H260   H     0.17477   0.95394   0.48397   0.00000  Uiso   1.00
H261   H     0.83606   0.69721   0.35817   0.00000  Uiso   1.00
H262   H     0.71425   0.55136   0.38043   0.00000  Uiso   1.00
H263   H     0.72451   0.79335   0.31000   0.00000  Uiso   1.00
H264   H     0.08494   0.73157   0.37683   0.00000  Uiso   1.00
H265   H     0.55465   0.41393   0.41649   0.00000  Uiso   1.00
H266   H     0.57635   0.92420   0.26798   0.00000  Uiso   1.00
H267   H     0.33638   0.79391   0.40891   0.00000  Uiso   1.00
O268   O     0.39027   0.40138   0.47024   0.00000  Uiso   1.00
O269   O     0.41876   0.07083   0.27541   0.00000  Uiso   1.00
O270   O     0.41589   0.89990   0.46030   0.00000  Uiso   1.00
N271   N     0.44782   0.55630   0.47083   0.00000  Uiso   1.00
N272   N     0.46809   0.03336   0.33199   0.00000  Uiso   1.00
N273   N     0.17865   0.91158   0.46374   0.00000  Uiso   1.00
N274   N     0.53478   0.47020   0.43044   0.00000  Uiso   1.00
N275   N     0.55505   0.94725   0.29160   0.00000  Uiso   1.00
N276   N     0.26561   0.82547   0.42335   0.00000  Uiso   1.00
C277   C     0.51071   0.16075   0.07295   0.00000  Uiso   1.00
C278   C     0.46584   0.26030   0.06949   0.00000  Uiso   1.00
C279   C     0.37951   0.29477   0.04449   0.00000  Uiso   1.00
C280   C     0.35083   0.38780   0.04572   0.00000  Uiso   1.00
C281   C     0.27263   0.53377   0.03650   0.00000  Uiso   1.00
C282   C     0.47009   0.13128   0.10891   0.00000  Uiso   1.00
C283   C     0.38735   0.05726   0.11705   0.00000  Uiso   1.00
C284   C     0.36227   0.04168   0.15147   0.00000  Uiso   1.00
C285   C     0.29075   0.98730   0.20346   0.00000  Uiso   1.00
C286   C     0.66648   0.16189   0.07243   0.00000  Uiso   1.00
C287   C     0.74888   0.11360   0.04989   0.00000  Uiso   1.00
C288   C     0.88915   0.12377   0.05360   0.00000  Uiso   1.00
C289   C     0.12256   0.11693   0.04893   0.00000  Uiso   1.00
C290   C     0.61330   0.26466   0.11960   0.00000  Uiso   1.00
C291   C     0.52157   0.31673   0.09483   0.00000  Uiso   1.00
C292   C     0.49301   0.40974   0.09610   0.00000  Uiso   1.00
C293   C     0.40666   0.44434   0.07110   0.00000  Uiso   1.00
C294   C     0.52581   0.18771   0.13425   0.00000  Uiso   1.00
C295   C     0.50086   0.17223   0.16867   0.00000  Uiso   1.00
C296   C     0.41809   0.09822   0.17686   0.00000  Uiso   1.00
C297   C     0.72221   0.21833   0.09776   0.00000  Uiso   1.00
C298   C     0.86238   0.22857   0.10151   0.00000  Uiso   1.00
C299   C     0.94497   0.18031   0.07898   0.00000  Uiso   1.00
H300   H     0.46732   0.11681   0.05323   0.00000  Uiso   1.00
H301   H     0.33639   0.25107   0.02488   0.00000  Uiso   1.00
H302   H     0.34425   0.01360   0.09744   0.00000  Uiso   1.00
H303   H     0.70572   0.06993   0.03029   0.00000  Uiso   1.00
H304   H     0.21577   0.42481   0.00464   0.00000  Uiso   1.00
H305   H     0.23237   0.92406   0.15763   0.00000  Uiso   1.00
H306   H     0.99460   0.04284   0.01603   0.00000  Uiso   1.00
H307   H     0.65669   0.30860   0.13933   0.00000  Uiso   1.00
H308   H     0.53615   0.45340   0.11571   0.00000  Uiso   1.00
H309   H     0.54400   0.21592   0.18827   0.00000  Uiso   1.00
H310   H     0.90547   0.27225   0.12112   0.00000  Uiso   1.00
H311   H     0.37789   0.58902   0.07836   0.00000  Uiso   1.00
H312   H     0.39450   0.08827   0.23135   0.00000  Uiso   1.00
H313   H     0.15672   0.20706   0.08975   0.00000  Uiso   1.00
O314   O     0.21409   0.59870   0.02441   0.00000  Uiso   1.00
O315   O     0.23589   0.94172   0.22513   0.00000  Uiso   1.00
O316   O     0.23591   0.09757   0.03935   0.00000  Uiso   1.00
N317   N     0.27049   0.44359   0.02523   0.00000  Uiso   1.00
N318   N     0.28600   0.97543   0.16826   0.00000  Uiso   1.00
N319   N     0.99861   0.08646   0.03588   0.00000  Uiso   1.00
N320   N     0.35773   0.53195   0.06489   0.00000  Uiso   1.00
N321   N     0.37323   0.06379   0.20793   0.00000  Uiso   1.00
N322   N     0.08585   0.17482   0.07555   0.00000  Uiso   1.00
C323   C     0.30945   0.15871   0.92576   0.00000  Uiso   1.00
C324   C     0.35507   0.25830   0.92831   0.00000  Uiso   1.00
C325   C     0.44189   0.29406   0.95296   0.00000  Uiso   1.00
C326   C     0.47124   0.38689   0.95089   0.00000  Uiso   1.00
C327   C     0.55060   0.53315   0.95877   0.00000  Uiso   1.00
C328   C     0.34951   0.12683   0.89004   0.00000  Uiso   1.00
C329   C     0.43164   0.05204   0.88252   0.00000  Uiso   1.00
C330   C     0.45628   0.03419   0.84823   0.00000  Uiso   1.00
C331   C     0.52692   0.97629   0.79670   0.00000  Uiso   1.00
C332   C     0.15369   0.16040   0.92636   0.00000  Uiso   1.00
C333   C     0.07115   0.11383   0.94936   0.00000  Uiso   1.00
C334   C     0.93092   0.12423   0.94564   0.00000  Uiso   1.00
C335   C     0.69751   0.11846   0.95050   0.00000  Uiso   1.00
C336   C     0.20718   0.25997   0.87825   0.00000  Uiso   1.00
C337   C     0.29953   0.31329   0.90251   0.00000  Uiso   1.00
C338   C     0.32875   0.40609   0.90040   0.00000  Uiso   1.00
C339   C     0.41559   0.44199   0.92504   0.00000  Uiso   1.00
C340   C     0.29397   0.18182   0.86424   0.00000  Uiso   1.00
C341   C     0.31849   0.16407   0.82996   0.00000  Uiso   1.00
C342   C     0.40064   0.08929   0.82238   0.00000  Uiso   1.00
C343   C     0.09814   0.21540   0.90056   0.00000  Uiso   1.00
C344   C     0.95801   0.22587   0.89680   0.00000  Uiso   1.00
C345   C     0.87528   0.17932   0.91979   0.00000  Uiso   1.00
H346   H     0.35269   0.11589   0.94584   0.00000  Uiso   1.00
H347   H     0.48487   0.25148   0.97292   0.00000  Uiso   1.00
H348   H     0.47459   0.00949   0.90249   0.00000  Uiso   1.00
H349   H     0.11417   0.07127   0.96932   0.00000  Uiso   1.00
H350   H     0.60695   0.42605   0.99155   0.00000  Uiso   1.00
H351   H     0.58525   0.91579   0.84304   0.00000  Uiso   1.00
H352   H     0.82523   0.04606   0.98397   0.00000  Uiso   1.00
H353   H     0.16394   0.30279   0.85817   0.00000  Uiso   1.00
H354   H     0.28575   0.44864   0.88043   0.00000  Uiso   1.00
H355   H     0.27549   0.20665   0.81000   0.00000  Uiso   1.00
H356   H     0.91506   0.26843   0.87683   0.00000  Uiso   1.00
H357   H     0.44535   0.58607   0.91649   0.00000  Uiso   1.00
H358   H     0.42365   0.07580   0.76798   0.00000  Uiso   1.00
H359   H     0.66362   0.20609   0.90891   0.00000  Uiso   1.00
O360   O     0.60973   0.59862   0.97024   0.00000  Uiso   1.00
O361   O     0.58124   0.92917   0.77541   0.00000  Uiso   1.00
O362   O     0.58411   0.10010   0.96030   0.00000  Uiso   1.00
N363   N     0.55218   0.44370   0.97083   0.00000  Uiso   1.00
N364   N     0.53191   0.96664   0.83199   0.00000  Uiso   1.00
N365   N     0.82135   0.08842   0.96374   0.00000  Uiso   1.00
N366   N     0.46522   0.52980   0.93044   0.00000  Uiso   1.00
N367   N     0.44495   0.05275   0.79160   0.00000  Uiso   1.00
N368   N     0.73439   0.17453   0.92335   0.00000  Uiso   1.00
