data_job_03001
_audit_creation_date              2018-12-19
_audit_creation_method            'Materials Studio'
_symmetry_space_group_name_H-M    'P1'
_symmetry_Int_Tables_number       1
_symmetry_cell_setting            triclinic
loop_
_symmetry_equiv_pos_as_xyz
  x,y,z
_cell_length_a                    10.3544
_cell_length_b                    25.7940
_cell_length_c                    10.8975
_cell_angle_alpha                 90.0000
_cell_angle_beta                  110.3260
_cell_angle_gamma                 90.0000
loop_
_atom_site_label
_atom_site_type_symbol
_atom_site_fract_x
_atom_site_fract_y
_atom_site_fract_z
_atom_site_U_iso_or_equiv
_atom_site_adp_type
_atom_site_occupancy
C1     C     0.99128   0.63103   0.68029   0.00000  Uiso   1.00
C2     C     0.89775   0.67709   0.67686   0.00000  Uiso   1.00
C3     C     0.89816   0.72412   0.61515   0.00000  Uiso   1.00
C4     C     0.80462   0.76134   0.62332   0.00000  Uiso   1.00
C5     C     0.67323   0.83431   0.60780   0.00000  Uiso   1.00
C6     C     0.06585   0.61880   0.82460   0.00000  Uiso   1.00
C7     C     0.20760   0.61681   0.88709   0.00000  Uiso   1.00
C8     C     0.25556   0.60495   0.01962   0.00000  Uiso   1.00
C9     C     0.38515   0.58739   0.23344   0.00000  Uiso   1.00
C10    C     0.89590   0.58520   0.62455   0.00000  Uiso   1.00
C11    C     0.89477   0.55495   0.51886   0.00000  Uiso   1.00
C12    C     0.79966   0.51479   0.48299   0.00000  Uiso   1.00
C13    C     0.66537   0.44506   0.38620   0.00000  Uiso   1.00
C14    C     0.82443   0.61350   0.80454   0.00000  Uiso   1.00
C15    C     0.80713   0.66756   0.74436   0.00000  Uiso   1.00
C16    C     0.71356   0.70472   0.75262   0.00000  Uiso   1.00
C17    C     0.71383   0.75180   0.69093   0.00000  Uiso   1.00
C18    C     0.97523   0.60928   0.89209   0.00000  Uiso   1.00
C19    C     0.02300   0.59741   0.02456   0.00000  Uiso   1.00
C20    C     0.16478   0.59541   0.08723   0.00000  Uiso   1.00
C21    C     0.80527   0.57567   0.69204   0.00000  Uiso   1.00
C22    C     0.71016   0.53556   0.65633   0.00000  Uiso   1.00
C23    C     0.70887   0.50525   0.55060   0.00000  Uiso   1.00
H24    H     0.06184   0.63844   0.62775   0.00000  Uiso   1.00
H25    H     0.96832   0.73147   0.56294   0.00000  Uiso   1.00
H26    H     0.27770   0.62418   0.83483   0.00000  Uiso   1.00
H27    H     0.96491   0.56233   0.46666   0.00000  Uiso   1.00
H28    H     0.82470   0.83042   0.52089   0.00000  Uiso   1.00
H29    H     0.47706   0.60416   0.09418   0.00000  Uiso   1.00
H30    H     0.81748   0.47374   0.31782   0.00000  Uiso   1.00
H31    H     0.75387   0.60609   0.85708   0.00000  Uiso   1.00
H32    H     0.64344   0.69734   0.80485   0.00000  Uiso   1.00
H33    H     0.95283   0.59005   0.07675   0.00000  Uiso   1.00
H34    H     0.64004   0.52820   0.70858   0.00000  Uiso   1.00
H35    H     0.56103   0.80272   0.71724   0.00000  Uiso   1.00
H36    H     0.21339   0.57646   0.29053   0.00000  Uiso   1.00
H37    H     0.55380   0.44604   0.51417   0.00000  Uiso   1.00
O38    O     0.62581   0.87719   0.58061   0.00000  Uiso   1.00
O39    O     0.48168   0.58034   0.33273   0.00000  Uiso   1.00
O40    O     0.61632   0.40923   0.31417   0.00000  Uiso   1.00
N41    N     0.77778   0.81138   0.57425   0.00000  Uiso   1.00
N42    N     0.38770   0.59985   0.11024   0.00000  Uiso   1.00
N43    N     0.77107   0.47790   0.38444   0.00000  Uiso   1.00
N44    N     0.63590   0.79647   0.67990   0.00000  Uiso   1.00
N45    N     0.24581   0.58494   0.21590   0.00000  Uiso   1.00
N46    N     0.62919   0.46300   0.49009   0.00000  Uiso   1.00
C47    C     0.00872   0.13103   0.81971   0.00000  Uiso   1.00
C48    C     0.10225   0.17709   0.82314   0.00000  Uiso   1.00
C49    C     0.10184   0.22412   0.88485   0.00000  Uiso   1.00
C50    C     0.19538   0.26134   0.87668   0.00000  Uiso   1.00
C51    C     0.32677   0.33431   0.89220   0.00000  Uiso   1.00
C52    C     0.93415   0.11880   0.67540   0.00000  Uiso   1.00
C53    C     0.79240   0.11681   0.61291   0.00000  Uiso   1.00
C54    C     0.74444   0.10495   0.48038   0.00000  Uiso   1.00
C55    C     0.61485   0.08739   0.26656   0.00000  Uiso   1.00
C56    C     0.10410   0.08520   0.87545   0.00000  Uiso   1.00
C57    C     0.10523   0.05495   0.98114   0.00000  Uiso   1.00
C58    C     0.20034   0.01479   0.01701   0.00000  Uiso   1.00
C59    C     0.33463   0.94506   0.11380   0.00000  Uiso   1.00
C60    C     0.17557   0.11350   0.69546   0.00000  Uiso   1.00
C61    C     0.19287   0.16756   0.75564   0.00000  Uiso   1.00
C62    C     0.28644   0.20472   0.74738   0.00000  Uiso   1.00
C63    C     0.28617   0.25180   0.80907   0.00000  Uiso   1.00
C64    C     0.02477   0.10928   0.60791   0.00000  Uiso   1.00
C65    C     0.97700   0.09741   0.47544   0.00000  Uiso   1.00
C66    C     0.83522   0.09541   0.41277   0.00000  Uiso   1.00
C67    C     0.19473   0.07567   0.80796   0.00000  Uiso   1.00
C68    C     0.28984   0.03556   0.84367   0.00000  Uiso   1.00
C69    C     0.29113   0.00525   0.94940   0.00000  Uiso   1.00
H70    H     0.93816   0.13844   0.87225   0.00000  Uiso   1.00
H71    H     0.03168   0.23147   0.93706   0.00000  Uiso   1.00
H72    H     0.72230   0.12418   0.66517   0.00000  Uiso   1.00
H73    H     0.03509   0.06233   0.03334   0.00000  Uiso   1.00
H74    H     0.17530   0.33042   0.97911   0.00000  Uiso   1.00
H75    H     0.52294   0.10416   0.40582   0.00000  Uiso   1.00
H76    H     0.18252   0.97374   0.18218   0.00000  Uiso   1.00
H77    H     0.24613   0.10609   0.64292   0.00000  Uiso   1.00
H78    H     0.35656   0.19734   0.69515   0.00000  Uiso   1.00
H79    H     0.04717   0.09005   0.42325   0.00000  Uiso   1.00
H80    H     0.35996   0.02820   0.79142   0.00000  Uiso   1.00
H81    H     0.43897   0.30272   0.78276   0.00000  Uiso   1.00
H82    H     0.78661   0.07646   0.20947   0.00000  Uiso   1.00
H83    H     0.44620   0.94604   0.98583   0.00000  Uiso   1.00
O84    O     0.37419   0.37719   0.91939   0.00000  Uiso   1.00
O85    O     0.51832   0.08034   0.16727   0.00000  Uiso   1.00
O86    O     0.38368   0.90923   0.18583   0.00000  Uiso   1.00
N87    N     0.22222   0.31138   0.92575   0.00000  Uiso   1.00
N88    N     0.61230   0.09985   0.38976   0.00000  Uiso   1.00
N89    N     0.22893   0.97790   0.11556   0.00000  Uiso   1.00
N90    N     0.36410   0.29647   0.82010   0.00000  Uiso   1.00
N91    N     0.75419   0.08494   0.28410   0.00000  Uiso   1.00
N92    N     0.37081   0.96300   0.00991   0.00000  Uiso   1.00
C93    C     0.00872   0.36897   0.31971   0.00000  Uiso   1.00
C94    C     0.10225   0.32291   0.32314   0.00000  Uiso   1.00
C95    C     0.10184   0.27588   0.38485   0.00000  Uiso   1.00
C96    C     0.19538   0.23866   0.37668   0.00000  Uiso   1.00
C97    C     0.32677   0.16569   0.39220   0.00000  Uiso   1.00
C98    C     0.93415   0.38120   0.17540   0.00000  Uiso   1.00
C99    C     0.79240   0.38319   0.11291   0.00000  Uiso   1.00
C100   C     0.74444   0.39505   0.98038   0.00000  Uiso   1.00
C101   C     0.61485   0.41261   0.76656   0.00000  Uiso   1.00
C102   C     0.10410   0.41480   0.37545   0.00000  Uiso   1.00
C103   C     0.10523   0.44505   0.48114   0.00000  Uiso   1.00
C104   C     0.20034   0.48521   0.51701   0.00000  Uiso   1.00
C105   C     0.33463   0.55494   0.61380   0.00000  Uiso   1.00
C106   C     0.17557   0.38650   0.19546   0.00000  Uiso   1.00
C107   C     0.19287   0.33244   0.25564   0.00000  Uiso   1.00
C108   C     0.28644   0.29528   0.24738   0.00000  Uiso   1.00
C109   C     0.28617   0.24820   0.30907   0.00000  Uiso   1.00
C110   C     0.02477   0.39072   0.10791   0.00000  Uiso   1.00
C111   C     0.97700   0.40259   0.97544   0.00000  Uiso   1.00
C112   C     0.83522   0.40459   0.91277   0.00000  Uiso   1.00
C113   C     0.19473   0.42433   0.30796   0.00000  Uiso   1.00
C114   C     0.28984   0.46444   0.34367   0.00000  Uiso   1.00
C115   C     0.29113   0.49475   0.44940   0.00000  Uiso   1.00
H116   H     0.93816   0.36156   0.37225   0.00000  Uiso   1.00
H117   H     0.03168   0.26853   0.43706   0.00000  Uiso   1.00
H118   H     0.72230   0.37582   0.16517   0.00000  Uiso   1.00
H119   H     0.03509   0.43767   0.53334   0.00000  Uiso   1.00
H120   H     0.17530   0.16958   0.47911   0.00000  Uiso   1.00
H121   H     0.52294   0.39584   0.90582   0.00000  Uiso   1.00
H122   H     0.18252   0.52626   0.68218   0.00000  Uiso   1.00
H123   H     0.24613   0.39391   0.14292   0.00000  Uiso   1.00
H124   H     0.35656   0.30266   0.19515   0.00000  Uiso   1.00
H125   H     0.04717   0.40995   0.92325   0.00000  Uiso   1.00
H126   H     0.35996   0.47180   0.29142   0.00000  Uiso   1.00
H127   H     0.43897   0.19728   0.28276   0.00000  Uiso   1.00
H128   H     0.78661   0.42354   0.70947   0.00000  Uiso   1.00
H129   H     0.44620   0.55396   0.48583   0.00000  Uiso   1.00
O130   O     0.37419   0.12281   0.41939   0.00000  Uiso   1.00
O131   O     0.51832   0.41966   0.66727   0.00000  Uiso   1.00
O132   O     0.38368   0.59077   0.68583   0.00000  Uiso   1.00
N133   N     0.22222   0.18862   0.42575   0.00000  Uiso   1.00
N134   N     0.61230   0.40015   0.88976   0.00000  Uiso   1.00
N135   N     0.22893   0.52210   0.61556   0.00000  Uiso   1.00
N136   N     0.36410   0.20353   0.32010   0.00000  Uiso   1.00
N137   N     0.75419   0.41506   0.78410   0.00000  Uiso   1.00
N138   N     0.37081   0.53700   0.50991   0.00000  Uiso   1.00
C139   C     0.99128   0.86897   0.18029   0.00000  Uiso   1.00
C140   C     0.89775   0.82291   0.17686   0.00000  Uiso   1.00
C141   C     0.89816   0.77588   0.11515   0.00000  Uiso   1.00
C142   C     0.80462   0.73866   0.12332   0.00000  Uiso   1.00
C143   C     0.67323   0.66569   0.10780   0.00000  Uiso   1.00
C144   C     0.06585   0.88120   0.32460   0.00000  Uiso   1.00
C145   C     0.20760   0.88319   0.38709   0.00000  Uiso   1.00
C146   C     0.25556   0.89505   0.51962   0.00000  Uiso   1.00
C147   C     0.38515   0.91261   0.73344   0.00000  Uiso   1.00
C148   C     0.89590   0.91480   0.12455   0.00000  Uiso   1.00
C149   C     0.89477   0.94505   0.01886   0.00000  Uiso   1.00
C150   C     0.79966   0.98521   0.98299   0.00000  Uiso   1.00
C151   C     0.66537   0.05494   0.88620   0.00000  Uiso   1.00
C152   C     0.82443   0.88650   0.30454   0.00000  Uiso   1.00
C153   C     0.80713   0.83244   0.24436   0.00000  Uiso   1.00
C154   C     0.71356   0.79528   0.25262   0.00000  Uiso   1.00
C155   C     0.71383   0.74820   0.19093   0.00000  Uiso   1.00
C156   C     0.97523   0.89072   0.39209   0.00000  Uiso   1.00
C157   C     0.02300   0.90259   0.52456   0.00000  Uiso   1.00
C158   C     0.16478   0.90459   0.58723   0.00000  Uiso   1.00
C159   C     0.80527   0.92433   0.19204   0.00000  Uiso   1.00
C160   C     0.71016   0.96444   0.15633   0.00000  Uiso   1.00
C161   C     0.70887   0.99475   0.05060   0.00000  Uiso   1.00
H162   H     0.06184   0.86156   0.12775   0.00000  Uiso   1.00
H163   H     0.96832   0.76853   0.06294   0.00000  Uiso   1.00
H164   H     0.27770   0.87582   0.33483   0.00000  Uiso   1.00
H165   H     0.96491   0.93767   0.96666   0.00000  Uiso   1.00
H166   H     0.82470   0.66958   0.02089   0.00000  Uiso   1.00
H167   H     0.47706   0.89584   0.59418   0.00000  Uiso   1.00
H168   H     0.81748   0.02626   0.81782   0.00000  Uiso   1.00
H169   H     0.75387   0.89391   0.35708   0.00000  Uiso   1.00
H170   H     0.64344   0.80266   0.30485   0.00000  Uiso   1.00
H171   H     0.95283   0.90995   0.57675   0.00000  Uiso   1.00
H172   H     0.64004   0.97180   0.20858   0.00000  Uiso   1.00
H173   H     0.56103   0.69728   0.21724   0.00000  Uiso   1.00
H174   H     0.21339   0.92354   0.79053   0.00000  Uiso   1.00
H175   H     0.55380   0.05396   0.01417   0.00000  Uiso   1.00
O176   O     0.62581   0.62281   0.08061   0.00000  Uiso   1.00
O177   O     0.48168   0.91966   0.83273   0.00000  Uiso   1.00
O178   O     0.61632   0.09077   0.81417   0.00000  Uiso   1.00
N179   N     0.77778   0.68862   0.07425   0.00000  Uiso   1.00
N180   N     0.38770   0.90015   0.61024   0.00000  Uiso   1.00
N181   N     0.77107   0.02210   0.88444   0.00000  Uiso   1.00
N182   N     0.63590   0.70353   0.17990   0.00000  Uiso   1.00
N183   N     0.24581   0.91506   0.71590   0.00000  Uiso   1.00
N184   N     0.62919   0.03700   0.99009   0.00000  Uiso   1.00
