data_job_06724
_audit_creation_date              2018-12-19
_audit_creation_method            'Materials Studio'
_symmetry_space_group_name_H-M    'P1'
_symmetry_Int_Tables_number       1
_symmetry_cell_setting            triclinic
loop_
_symmetry_equiv_pos_as_xyz
  x,y,z
_cell_length_a                    17.8885
_cell_length_b                    20.6540
_cell_length_c                    23.1158
_cell_angle_alpha                 103.4550
_cell_angle_beta                  86.6610
_cell_angle_gamma                 86.3114
loop_
_atom_site_label
_atom_site_type_symbol
_atom_site_fract_x
_atom_site_fract_y
_atom_site_fract_z
_atom_site_U_iso_or_equiv
_atom_site_adp_type
_atom_site_occupancy
C1     C     0.24959   0.65196   0.40438   0.00000  Uiso   1.00
C2     C     0.17196   0.65436   0.43614   0.00000  Uiso   1.00
C3     C     0.13316   0.71059   0.47310   0.00000  Uiso   1.00
C4     C     0.06285   0.70245   0.49793   0.00000  Uiso   1.00
C5     C     0.94694   0.71563   0.54906   0.00000  Uiso   1.00
C6     C     0.29807   0.59861   0.42395   0.00000  Uiso   1.00
C7     C     0.36531   0.60796   0.45066   0.00000  Uiso   1.00
C8     C     0.40117   0.55289   0.46521   0.00000  Uiso   1.00
C9     C     0.48108   0.47951   0.49738   0.00000  Uiso   1.00
C10    C     0.24046   0.62447   0.33821   0.00000  Uiso   1.00
C11    C     0.25927   0.65555   0.29283   0.00000  Uiso   1.00
C12    C     0.24663   0.62224   0.23519   0.00000  Uiso   1.00
C13    C     0.23708   0.58901   0.13424   0.00000  Uiso   1.00
C14    C     0.19372   0.53752   0.38272   0.00000  Uiso   1.00
C15    C     0.14161   0.59220   0.42438   0.00000  Uiso   1.00
C16    C     0.07134   0.58398   0.44915   0.00000  Uiso   1.00
C17    C     0.03244   0.64018   0.48614   0.00000  Uiso   1.00
C18    C     0.26773   0.53646   0.41219   0.00000  Uiso   1.00
C19    C     0.30349   0.48135   0.42670   0.00000  Uiso   1.00
C20    C     0.37076   0.49062   0.45343   0.00000  Uiso   1.00
C21    C     0.21011   0.56231   0.32645   0.00000  Uiso   1.00
C22    C     0.19744   0.52895   0.26887   0.00000  Uiso   1.00
C23    C     0.21623   0.55997   0.22341   0.00000  Uiso   1.00
H24    H     0.27323   0.70034   0.41353   0.00000  Uiso   1.00
H25    H     0.15667   0.75868   0.48220   0.00000  Uiso   1.00
H26    H     0.38879   0.65607   0.45975   0.00000  Uiso   1.00
H27    H     0.28276   0.70365   0.30195   0.00000  Uiso   1.00
H28    H     0.01407   0.79593   0.55316   0.00000  Uiso   1.00
H29    H     0.50352   0.57957   0.50580   0.00000  Uiso   1.00
H30    H     0.27993   0.67991   0.17304   0.00000  Uiso   1.00
H31    H     0.17009   0.48913   0.37357   0.00000  Uiso   1.00
H32    H     0.04787   0.53587   0.44004   0.00000  Uiso   1.00
H33    H     0.27999   0.43326   0.41759   0.00000  Uiso   1.00
H34    H     0.17396   0.48085   0.25979   0.00000  Uiso   1.00
H35    H     0.92577   0.61509   0.51894   0.00000  Uiso   1.00
H36    H     0.41522   0.39873   0.47159   0.00000  Uiso   1.00
H37    H     0.19163   0.49907   0.13883   0.00000  Uiso   1.00
O38    O     0.89139   0.74007   0.58051   0.00000  Uiso   1.00
O39    O     0.53354   0.45621   0.51838   0.00000  Uiso   1.00
O40    O     0.24019   0.58786   0.08181   0.00000  Uiso   1.00
N41    N     0.01006   0.74696   0.53597   0.00000  Uiso   1.00
N42    N     0.46766   0.54468   0.49171   0.00000  Uiso   1.00
N43    N     0.25864   0.63848   0.18060   0.00000  Uiso   1.00
N44    N     0.96254   0.64965   0.51756   0.00000  Uiso   1.00
N45    N     0.42014   0.44737   0.47330   0.00000  Uiso   1.00
N46    N     0.21112   0.54117   0.16219   0.00000  Uiso   1.00
C47    C     0.56988   0.24774   0.70859   0.00000  Uiso   1.00
C48    C     0.64263   0.22803   0.73369   0.00000  Uiso   1.00
C49    C     0.67361   0.26501   0.78328   0.00000  Uiso   1.00
C50    C     0.74052   0.23838   0.79906   0.00000  Uiso   1.00
C51    C     0.84824   0.21714   0.84298   0.00000  Uiso   1.00
C52    C     0.59052   0.24751   0.64359   0.00000  Uiso   1.00
C53    C     0.57768   0.30086   0.61744   0.00000  Uiso   1.00
C54    C     0.60072   0.29063   0.55738   0.00000  Uiso   1.00
C55    C     0.62748   0.29961   0.46143   0.00000  Uiso   1.00
C56    C     0.52018   0.19021   0.70725   0.00000  Uiso   1.00
C57    C     0.44818   0.19539   0.73460   0.00000  Uiso   1.00
C58    C     0.41199   0.13691   0.72812   0.00000  Uiso   1.00
C59    C     0.32953   0.05693   0.73100   0.00000  Uiso   1.00
C60    C     0.63362   0.13469   0.64841   0.00000  Uiso   1.00
C61    C     0.67725   0.16663   0.70100   0.00000  Uiso   1.00
C62    C     0.74413   0.13994   0.71671   0.00000  Uiso   1.00
C63    C     0.77521   0.17687   0.76632   0.00000  Uiso   1.00
C64    C     0.62514   0.18611   0.61091   0.00000  Uiso   1.00
C65    C     0.64820   0.17579   0.55087   0.00000  Uiso   1.00
C66    C     0.63540   0.22911   0.52464   0.00000  Uiso   1.00
C67    C     0.55480   0.12881   0.67456   0.00000  Uiso   1.00
C68    C     0.51871   0.07032   0.66803   0.00000  Uiso   1.00
C69    C     0.44667   0.07540   0.69538   0.00000  Uiso   1.00
H70    H     0.54293   0.29554   0.73403   0.00000  Uiso   1.00
H71    H     0.64681   0.31253   0.80856   0.00000  Uiso   1.00
H72    H     0.55088   0.34837   0.64275   0.00000  Uiso   1.00
H73    H     0.42141   0.24291   0.75989   0.00000  Uiso   1.00
H74    H     0.77725   0.30429   0.87677   0.00000  Uiso   1.00
H75    H     0.57497   0.37986   0.52713   0.00000  Uiso   1.00
H76    H     0.30194   0.15749   0.77415   0.00000  Uiso   1.00
H77    H     0.66058   0.08688   0.62297   0.00000  Uiso   1.00
H78    H     0.77091   0.09242   0.69141   0.00000  Uiso   1.00
H79    H     0.67499   0.12826   0.52559   0.00000  Uiso   1.00
H80    H     0.54551   0.02281   0.64274   0.00000  Uiso   1.00
H81    H     0.87798   0.12565   0.78168   0.00000  Uiso   1.00
H82    H     0.67569   0.20122   0.43204   0.00000  Uiso   1.00
H83    H     0.40268   0.97884   0.67906   0.00000  Uiso   1.00
O84    O     0.89809   0.22239   0.87623   0.00000  Uiso   1.00
O85    O     0.63268   0.32153   0.41753   0.00000  Uiso   1.00
O86    O     0.27449   0.02978   0.74162   0.00000  Uiso   1.00
N87    N     0.78581   0.26148   0.84500   0.00000  Uiso   1.00
N88    N     0.59670   0.33214   0.51812   0.00000  Uiso   1.00
N89    N     0.34143   0.12424   0.74905   0.00000  Uiso   1.00
N90    N     0.84001   0.16535   0.79383   0.00000  Uiso   1.00
N91    N     0.65090   0.23601   0.46695   0.00000  Uiso   1.00
N92    N     0.39564   0.02811   0.69788   0.00000  Uiso   1.00
C93    C     0.73574   0.50416   0.21098   0.00000  Uiso   1.00
C94    C     0.78491   0.53831   0.17288   0.00000  Uiso   1.00
C95    C     0.85635   0.55785   0.18466   0.00000  Uiso   1.00
C96    C     0.89209   0.58833   0.14438   0.00000  Uiso   1.00
C97    C     0.97367   0.63979   0.09288   0.00000  Uiso   1.00
C98    C     0.66219   0.54809   0.22710   0.00000  Uiso   1.00
C99    C     0.63044   0.57584   0.28447   0.00000  Uiso   1.00
C100   C     0.56287   0.61455   0.28982   0.00000  Uiso   1.00
C101   C     0.45390   0.68115   0.32249   0.00000  Uiso   1.00
C102   C     0.71657   0.43937   0.16959   0.00000  Uiso   1.00
C103   C     0.73054   0.37571   0.17860   0.00000  Uiso   1.00
C104   C     0.70874   0.32288   0.13554   0.00000  Uiso   1.00
C105   C     0.68420   0.22068   0.07892   0.00000  Uiso   1.00
C106   C     0.67218   0.52355   0.11849   0.00000  Uiso   1.00
C107   C     0.75038   0.54884   0.12265   0.00000  Uiso   1.00
C108   C     0.78602   0.57930   0.08233   0.00000  Uiso   1.00
C109   C     0.85751   0.59888   0.09405   0.00000  Uiso   1.00
C110   C     0.62766   0.55862   0.17687   0.00000  Uiso   1.00
C111   C     0.56012   0.59730   0.18213   0.00000  Uiso   1.00
C112   C     0.52828   0.62510   0.23949   0.00000  Uiso   1.00
C113   C     0.68205   0.44990   0.11935   0.00000  Uiso   1.00
C114   C     0.66021   0.39717   0.07627   0.00000  Uiso   1.00
C115   C     0.67415   0.33344   0.08521   0.00000  Uiso   1.00
H116   H     0.76262   0.49596   0.25010   0.00000  Uiso   1.00
H117   H     0.88305   0.54969   0.22355   0.00000  Uiso   1.00
H118   H     0.65717   0.56768   0.32334   0.00000  Uiso   1.00
H119   H     0.75725   0.36758   0.21749   0.00000  Uiso   1.00
H120   H     0.00132   0.61393   0.17197   0.00000  Uiso   1.00
H121   H     0.52504   0.65184   0.38238   0.00000  Uiso   1.00
H122   H     0.73608   0.22988   0.15917   0.00000  Uiso   1.00
H123   H     0.64530   0.53175   0.07938   0.00000  Uiso   1.00
H124   H     0.75929   0.58745   0.04346   0.00000  Uiso   1.00
H125   H     0.53342   0.60543   0.14325   0.00000  Uiso   1.00
H126   H     0.63350   0.40533   0.03740   0.00000  Uiso   1.00
H127   H     0.90088   0.64458   0.02580   0.00000  Uiso   1.00
H128   H     0.42460   0.68248   0.23621   0.00000  Uiso   1.00
H129   H     0.63564   0.26053   0.01301   0.00000  Uiso   1.00
O130   O     0.02820   0.66527   0.07835   0.00000  Uiso   1.00
O131   O     0.40333   0.71498   0.35439   0.00000  Uiso   1.00
O132   O     0.68021   0.16140   0.06155   0.00000  Uiso   1.00
N133   N     0.96205   0.61349   0.14249   0.00000  Uiso   1.00
N134   N     0.51676   0.64894   0.33921   0.00000  Uiso   1.00
N135   N     0.71404   0.25445   0.13054   0.00000  Uiso   1.00
N136   N     0.90800   0.62998   0.06384   0.00000  Uiso   1.00
N137   N     0.46271   0.66543   0.26056   0.00000  Uiso   1.00
N138   N     0.66000   0.27094   0.05189   0.00000  Uiso   1.00
C139   C     0.95732   0.02958   0.12012   0.00000  Uiso   1.00
C140   C     0.88557   0.05359   0.16044   0.00000  Uiso   1.00
C141   C     0.88008   0.06778   0.22231   0.00000  Uiso   1.00
C142   C     0.80940   0.08912   0.25100   0.00000  Uiso   1.00
C143   C     0.70756   0.12538   0.31848   0.00000  Uiso   1.00
C144   C     0.96583   0.07964   0.08146   0.00000  Uiso   1.00
C145   C     0.02784   0.11573   0.07692   0.00000  Uiso   1.00
C146   C     0.02472   0.15900   0.03913   0.00000  Uiso   1.00
C147   C     0.04752   0.23568   0.98396   0.00000  Uiso   1.00
C148   C     0.94122   0.96421   0.07800   0.00000  Uiso   1.00
C149   C     0.98254   0.90324   0.07054   0.00000  Uiso   1.00
C150   C     0.95871   0.84932   0.02982   0.00000  Uiso   1.00
C151   C     0.94329   0.74676   0.96927   0.00000  Uiso   1.00
C152   C     0.84154   0.04225   0.06106   0.00000  Uiso   1.00
C153   C     0.82268   0.06047   0.12835   0.00000  Uiso   1.00
C154   C     0.75199   0.08179   0.15696   0.00000  Uiso   1.00
C155   C     0.74640   0.09601   0.21887   0.00000  Uiso   1.00
C156   C     0.90295   0.08652   0.04938   0.00000  Uiso   1.00
C157   C     0.89975   0.12975   0.01158   0.00000  Uiso   1.00
C158   C     0.96173   0.16590   0.00699   0.00000  Uiso   1.00
C159   C     0.87833   0.97108   0.04592   0.00000  Uiso   1.00
C160   C     0.85444   0.91725   0.00519   0.00000  Uiso   1.00
C161   C     0.89571   0.85622   0.99768   0.00000  Uiso   1.00
H162   H     0.00628   0.02423   0.14510   0.00000  Uiso   1.00
H163   H     0.92876   0.06245   0.24712   0.00000  Uiso   1.00
H164   H     0.07650   0.11040   0.10175   0.00000  Uiso   1.00
H165   H     0.03120   0.89794   0.09537   0.00000  Uiso   1.00
H166   H     0.81509   0.10789   0.34608   0.00000  Uiso   1.00
H167   H     0.12661   0.20896   0.03955   0.00000  Uiso   1.00
H168   H     0.03110   0.76095   0.02609   0.00000  Uiso   1.00
H169   H     0.79258   0.04760   0.03608   0.00000  Uiso   1.00
H170   H     0.70333   0.08711   0.13212   0.00000  Uiso   1.00
H171   H     0.85107   0.13505   0.98676   0.00000  Uiso   1.00
H172   H     0.80578   0.92259   0.98038   0.00000  Uiso   1.00
H173   H     0.63213   0.12790   0.25275   0.00000  Uiso   1.00
H174   H     0.94365   0.22897   0.94621   0.00000  Uiso   1.00
H175   H     0.84813   0.78096   0.93276   0.00000  Uiso   1.00
O176   O     0.66876   0.14348   0.36456   0.00000  Uiso   1.00
O177   O     0.07747   0.27607   0.96240   0.00000  Uiso   1.00
O178   O     0.95215   0.68829   0.94475   0.00000  Uiso   1.00
N179   N     0.78428   0.10717   0.31093   0.00000  Uiso   1.00
N180   N     0.07552   0.20167   0.02435   0.00000  Uiso   1.00
N181   N     0.98624   0.78282   0.01176   0.00000  Uiso   1.00
N182   N     0.68582   0.11793   0.26071   0.00000  Uiso   1.00
N183   N     0.97707   0.21244   0.97413   0.00000  Uiso   1.00
N184   N     0.88779   0.79359   0.96154   0.00000  Uiso   1.00
C185   C     0.02234   0.27299   0.67299   0.00000  Uiso   1.00
C186   C     0.08728   0.31295   0.65966   0.00000  Uiso   1.00
C187   C     0.08710   0.38204   0.67437   0.00000  Uiso   1.00
C188   C     0.15205   0.40903   0.65831   0.00000  Uiso   1.00
C189   C     0.24334   0.47726   0.64217   0.00000  Uiso   1.00
C190   C     0.05367   0.22535   0.70871   0.00000  Uiso   1.00
C191   C     0.02522   0.22079   0.76465   0.00000  Uiso   1.00
C192   C     0.06188   0.17402   0.78987   0.00000  Uiso   1.00
C193   C     0.10096   0.10623   0.84986   0.00000  Uiso   1.00
C194   C     0.00532   0.22931   0.61312   0.00000  Uiso   1.00
C195   C     0.93623   0.22806   0.58869   0.00000  Uiso   1.00
C196   C     0.93217   0.18461   0.53343   0.00000  Uiso   1.00
C197   C     0.89619   0.12297   0.44499   0.00000  Uiso   1.00
C198   C     0.13799   0.19803   0.61830   0.00000  Uiso   1.00
C199   C     0.15010   0.27223   0.62996   0.00000  Uiso   1.00
C200   C     0.21506   0.29912   0.61387   0.00000  Uiso   1.00
C201   C     0.21498   0.36824   0.62855   0.00000  Uiso   1.00
C202   C     0.11649   0.18463   0.67901   0.00000  Uiso   1.00
C203   C     0.15319   0.13786   0.70415   0.00000  Uiso   1.00
C204   C     0.12481   0.13324   0.76012   0.00000  Uiso   1.00
C205   C     0.06815   0.18859   0.58341   0.00000  Uiso   1.00
C206   C     0.06419   0.14514   0.52818   0.00000  Uiso   1.00
C207   C     0.99511   0.14383   0.50367   0.00000  Uiso   1.00
H208   H     0.97343   0.30468   0.69611   0.00000  Uiso   1.00
H209   H     0.03847   0.41353   0.69737   0.00000  Uiso   1.00
H210   H     0.97660   0.25230   0.78762   0.00000  Uiso   1.00
H211   H     0.88763   0.25957   0.61168   0.00000  Uiso   1.00
H212   H     0.13830   0.51626   0.68567   0.00000  Uiso   1.00
H213   H     0.00783   0.17627   0.87598   0.00000  Uiso   1.00
H214   H     0.82020   0.19161   0.50498   0.00000  Uiso   1.00
H215   H     0.18691   0.16633   0.59518   0.00000  Uiso   1.00
H216   H     0.26367   0.26760   0.59089   0.00000  Uiso   1.00
H217   H     0.20180   0.10636   0.68115   0.00000  Uiso   1.00
H218   H     0.11282   0.11364   0.50521   0.00000  Uiso   1.00
H219   H     0.32108   0.39781   0.59926   0.00000  Uiso   1.00
H220   H     0.19061   0.05782   0.78957   0.00000  Uiso   1.00
H221   H     0.00298   0.07316   0.41856   0.00000  Uiso   1.00
O222   O     0.27635   0.52615   0.64148   0.00000  Uiso   1.00
O223   O     0.10516   0.08008   0.89115   0.00000  Uiso   1.00
O224   O     0.85900   0.10021   0.40441   0.00000  Uiso   1.00
N225   N     0.17078   0.47449   0.66591   0.00000  Uiso   1.00
N226   N     0.04881   0.15662   0.84385   0.00000  Uiso   1.00
N227   N     0.87338   0.17095   0.49700   0.00000  Uiso   1.00
N228   N     0.26913   0.41075   0.61941   0.00000  Uiso   1.00
N229   N     0.14716   0.09289   0.79734   0.00000  Uiso   1.00
N230   N     0.97173   0.10722   0.45049   0.00000  Uiso   1.00
C231   C     0.22984   0.84767   0.87358   0.00000  Uiso   1.00
C232   C     0.23980   0.81095   0.92306   0.00000  Uiso   1.00
C233   C     0.27996   0.83167   0.97276   0.00000  Uiso   1.00
C234   C     0.28237   0.79109   0.01291   0.00000  Uiso   1.00
C235   C     0.30334   0.74309   0.09117   0.00000  Uiso   1.00
C236   C     0.14531   0.85951   0.87038   0.00000  Uiso   1.00
C237   C     0.10604   0.92106   0.87578   0.00000  Uiso   1.00
C238   C     0.02892   0.92135   0.87157   0.00000  Uiso   1.00
C239   C     0.90321   0.94874   0.86801   0.00000  Uiso   1.00
C240   C     0.25840   0.79792   0.81559   0.00000  Uiso   1.00
C241   C     0.31419   0.80768   0.77491   0.00000  Uiso   1.00
C242   C     0.33226   0.75612   0.72456   0.00000  Uiso   1.00
C243   C     0.38214   0.68788   0.63593   0.00000  Uiso   1.00
C244   C     0.16270   0.73876   0.85650   0.00000  Uiso   1.00
C245   C     0.20332   0.75179   0.91379   0.00000  Uiso   1.00
C246   C     0.20568   0.71117   0.95387   0.00000  Uiso   1.00
C247   C     0.24584   0.73183   0.00362   0.00000  Uiso   1.00
C248   C     0.10885   0.80036   0.86111   0.00000  Uiso   1.00
C249   C     0.03176   0.80056   0.85689   0.00000  Uiso   1.00
C250   C     0.99238   0.86209   0.86228   0.00000  Uiso   1.00
C251   C     0.22193   0.73876   0.80632   0.00000  Uiso   1.00
C252   C     0.23991   0.68718   0.75602   0.00000  Uiso   1.00
C253   C     0.29573   0.69686   0.71527   0.00000  Uiso   1.00
H254   H     0.25823   0.89372   0.88080   0.00000  Uiso   1.00
H255   H     0.30817   0.87745   0.97992   0.00000  Uiso   1.00
H256   H     0.13428   0.96683   0.88295   0.00000  Uiso   1.00
H257   H     0.34240   0.85346   0.78210   0.00000  Uiso   1.00
H258   H     0.34743   0.83334   0.08574   0.00000  Uiso   1.00
H259   H     0.98078   0.02178   0.88125   0.00000  Uiso   1.00
H260   H     0.41964   0.78274   0.66859   0.00000  Uiso   1.00
H261   H     0.13431   0.69270   0.84928   0.00000  Uiso   1.00
H262   H     0.17745   0.66540   0.94668   0.00000  Uiso   1.00
H263   H     0.00356   0.75478   0.84971   0.00000  Uiso   1.00
H264   H     0.21168   0.64141   0.74886   0.00000  Uiso   1.00
H265   H     0.24133   0.66123   0.05877   0.00000  Uiso   1.00
H266   H     0.87468   0.84968   0.85427   0.00000  Uiso   1.00
H267   H     0.31354   0.61063   0.64161   0.00000  Uiso   1.00
O268   O     0.32497   0.73296   0.13691   0.00000  Uiso   1.00
O269   O     0.84395   0.98019   0.86861   0.00000  Uiso   1.00
O270   O     0.41973   0.66657   0.58960   0.00000  Uiso   1.00
N271   N     0.31655   0.79657   0.06602   0.00000  Uiso   1.00
N272   N     0.97375   0.97276   0.87484   0.00000  Uiso   1.00
N273   N     0.38404   0.74928   0.67601   0.00000  Uiso   1.00
N274   N     0.25946   0.70396   0.05151   0.00000  Uiso   1.00
N275   N     0.91667   0.88015   0.86033   0.00000  Uiso   1.00
N276   N     0.32695   0.65667   0.66150   0.00000  Uiso   1.00
C277   C     0.87168   0.43984   0.63138   0.00000  Uiso   1.00
C278   C     0.94692   0.43581   0.59562   0.00000  Uiso   1.00
C279   C     0.98350   0.37843   0.55869   0.00000  Uiso   1.00
C280   C     0.05183   0.38516   0.52987   0.00000  Uiso   1.00
C281   C     0.16398   0.36949   0.47313   0.00000  Uiso   1.00
C282   C     0.82084   0.49199   0.61225   0.00000  Uiso   1.00
C283   C     0.75141   0.48184   0.58930   0.00000  Uiso   1.00
C284   C     0.71361   0.53587   0.57448   0.00000  Uiso   1.00
C285   C     0.63000   0.60744   0.54359   0.00000  Uiso   1.00
C286   C     0.88587   0.46984   0.69619   0.00000  Uiso   1.00
C287   C     0.87110   0.44108   0.74383   0.00000  Uiso   1.00
C288   C     0.88804   0.47647   0.79968   0.00000  Uiso   1.00
C289   C     0.90539   0.51364   0.89912   0.00000  Uiso   1.00
C290   C     0.92799   0.55383   0.64586   0.00000  Uiso   1.00
C291   C     0.97750   0.49773   0.60349   0.00000  Uiso   1.00
C292   C     0.04580   0.50455   0.57471   0.00000  Uiso   1.00
C293   C     0.08248   0.44718   0.53775   0.00000  Uiso   1.00
C294   C     0.85142   0.55391   0.62011   0.00000  Uiso   1.00
C295   C     0.81371   0.60796   0.60532   0.00000  Uiso   1.00
C296   C     0.74425   0.59790   0.58236   0.00000  Uiso   1.00
C297   C     0.91646   0.53176   0.70405   0.00000  Uiso   1.00
C298   C     0.93341   0.56720   0.75985   0.00000  Uiso   1.00
C299   C     0.91867   0.53850   0.80756   0.00000  Uiso   1.00
H300   H     0.84787   0.39164   0.62525   0.00000  Uiso   1.00
H301   H     0.95981   0.33052   0.55261   0.00000  Uiso   1.00
H302   H     0.72776   0.43392   0.58323   0.00000  Uiso   1.00
H303   H     0.84744   0.39317   0.73772   0.00000  Uiso   1.00
H304   H     0.09739   0.29007   0.47553   0.00000  Uiso   1.00
H305   H     0.60809   0.50811   0.54009   0.00000  Uiso   1.00
H306   H     0.86045   0.42217   0.86589   0.00000  Uiso   1.00
H307   H     0.95180   0.60204   0.65198   0.00000  Uiso   1.00
H308   H     0.06945   0.55247   0.58081   0.00000  Uiso   1.00
H309   H     0.83740   0.65587   0.61142   0.00000  Uiso   1.00
H310   H     0.95707   0.61512   0.76592   0.00000  Uiso   1.00
H311   H     0.18638   0.47021   0.49841   0.00000  Uiso   1.00
H312   H     0.69707   0.68825   0.56298   0.00000  Uiso   1.00
H313   H     0.94943   0.60231   0.88877   0.00000  Uiso   1.00
O314   O     0.21739   0.34374   0.43965   0.00000  Uiso   1.00
O315   O     0.57544   0.62980   0.52437   0.00000  Uiso   1.00
O316   O     0.90653   0.51704   0.95180   0.00000  Uiso   1.00
N317   N     0.10220   0.33927   0.49069   0.00000  Uiso   1.00
N318   N     0.64473   0.54312   0.55105   0.00000  Uiso   1.00
N319   N     0.88065   0.46278   0.85564   0.00000  Uiso   1.00
N320   N     0.15008   0.43620   0.50300   0.00000  Uiso   1.00
N321   N     0.69261   0.64005   0.56336   0.00000  Uiso   1.00
N322   N     0.92853   0.55971   0.86795   0.00000  Uiso   1.00
C323   C     0.64748   0.81141   0.33135   0.00000  Uiso   1.00
C324   C     0.58675   0.84474   0.30191   0.00000  Uiso   1.00
C325   C     0.54998   0.81370   0.25299   0.00000  Uiso   1.00
C326   C     0.49616   0.85283   0.23273   0.00000  Uiso   1.00
C327   C     0.40433   0.89428   0.18282   0.00000  Uiso   1.00
C328   C     0.61948   0.82285   0.39680   0.00000  Uiso   1.00
C329   C     0.61024   0.77341   0.42766   0.00000  Uiso   1.00
C330   C     0.58398   0.79412   0.48729   0.00000  Uiso   1.00
C331   C     0.54302   0.80158   0.58470   0.00000  Uiso   1.00
C332   C     0.71553   0.85207   0.33032   0.00000  Uiso   1.00
C333   C     0.78705   0.82720   0.30530   0.00000  Uiso   1.00
C334   C     0.84166   0.87251   0.30898   0.00000  Uiso   1.00
C335   C     0.94983   0.92535   0.30317   0.00000  Uiso   1.00
C336   C     0.61731   0.93609   0.38237   0.00000  Uiso   1.00
C337   C     0.57036   0.91246   0.32962   0.00000  Uiso   1.00
C338   C     0.51659   0.95165   0.30943   0.00000  Uiso   1.00
C339   C     0.47974   0.92068   0.26049   0.00000  Uiso   1.00
C340   C     0.60309   0.89057   0.42451   0.00000  Uiso   1.00
C341   C     0.57685   0.91136   0.48410   0.00000  Uiso   1.00
C342   C     0.56756   0.86196   0.51505   0.00000  Uiso   1.00
C343   C     0.69914   0.91980   0.35803   0.00000  Uiso   1.00
C344   C     0.75366   0.96515   0.36175   0.00000  Uiso   1.00
C345   C     0.82524   0.94036   0.33674   0.00000  Uiso   1.00
H346   H     0.66024   0.75868   0.30978   0.00000  Uiso   1.00
H347   H     0.56267   0.76129   0.23156   0.00000  Uiso   1.00
H348   H     0.62293   0.72100   0.40620   0.00000  Uiso   1.00
H349   H     0.79971   0.77479   0.28386   0.00000  Uiso   1.00
H350   H     0.44725   0.79404   0.15707   0.00000  Uiso   1.00
H351   H     0.57433   0.70910   0.52532   0.00000  Uiso   1.00
H352   H     0.94711   0.82252   0.26735   0.00000  Uiso   1.00
H353   H     0.60455   0.98882   0.40395   0.00000  Uiso   1.00
H354   H     0.50392   0.00406   0.33089   0.00000  Uiso   1.00
H355   H     0.56418   0.96377   0.50553   0.00000  Uiso   1.00
H356   H     0.74095   0.01756   0.38319   0.00000  Uiso   1.00
H357   H     0.39956   0.99108   0.23769   0.00000  Uiso   1.00
H358   H     0.52665   0.90614   0.60595   0.00000  Uiso   1.00
H359   H     0.89942   0.01956   0.34797   0.00000  Uiso   1.00
O360   O     0.35820   0.89843   0.14763   0.00000  Uiso   1.00
O361   O     0.52494   0.78699   0.63077   0.00000  Uiso   1.00
O362   O     0.01401   0.93579   0.29231   0.00000  Uiso   1.00
N363   N     0.44985   0.83833   0.18606   0.00000  Uiso   1.00
N364   N     0.56865   0.75891   0.53036   0.00000  Uiso   1.00
N365   N     0.91717   0.86495   0.28918   0.00000  Uiso   1.00
N366   N     0.42419   0.94435   0.22944   0.00000  Uiso   1.00
N367   N     0.54299   0.86494   0.57374   0.00000  Uiso   1.00
N368   N     0.89151   0.97097   0.33256   0.00000  Uiso   1.00
C369   C     0.54716   0.78731   0.94707   0.00000  Uiso   1.00
C370   C     0.52027   0.72510   0.96394   0.00000  Uiso   1.00
C371   C     0.45323   0.69728   0.94948   0.00000  Uiso   1.00
C372   C     0.43893   0.64030   0.96904   0.00000  Uiso   1.00
C373   C     0.38944   0.54796   0.99021   0.00000  Uiso   1.00
C374   C     0.62386   0.76606   0.91321   0.00000  Uiso   1.00
C375   C     0.64392   0.77270   0.85609   0.00000  Uiso   1.00
C376   C     0.71683   0.75021   0.83296   0.00000  Uiso   1.00
C377   C     0.82819   0.72151   0.77538   0.00000  Uiso   1.00
C378   C     0.56163   0.83533   0.00550   0.00000  Uiso   1.00
C379   C     0.52940   0.90021   0.02598   0.00000  Uiso   1.00
C380   C     0.54993   0.93606   0.08054   0.00000  Uiso   1.00
C381   C     0.56467   0.01490   0.16626   0.00000  Uiso   1.00
C382   C     0.64096   0.73560   0.00754   0.00000  Uiso   1.00
C383   C     0.57122   0.69701   0.99679   0.00000  Uiso   1.00
C384   C     0.55701   0.64006   0.01638   0.00000  Uiso   1.00
C385   C     0.48996   0.61217   0.00194   0.00000  Uiso   1.00
C386   C     0.67481   0.73797   0.94605   0.00000  Uiso   1.00
C387   C     0.74770   0.71548   0.92300   0.00000  Uiso   1.00
C388   C     0.76787   0.72207   0.86586   0.00000  Uiso   1.00
C389   C     0.61258   0.80724   0.03835   0.00000  Uiso   1.00
C390   C     0.63317   0.84299   0.09288   0.00000  Uiso   1.00
C391   C     0.60097   0.90792   0.11344   0.00000  Uiso   1.00
H392   H     0.50750   0.80918   0.92150   0.00000  Uiso   1.00
H393   H     0.41382   0.71903   0.92405   0.00000  Uiso   1.00
H394   H     0.60449   0.79444   0.83069   0.00000  Uiso   1.00
H395   H     0.48997   0.92193   0.00055   0.00000  Uiso   1.00
H396   H     0.33244   0.60668   0.94135   0.00000  Uiso   1.00
H397   H     0.73448   0.76571   0.74450   0.00000  Uiso   1.00
H398   H     0.49301   0.03456   0.10267   0.00000  Uiso   1.00
H399   H     0.68063   0.71373   0.03312   0.00000  Uiso   1.00
H400   H     0.59645   0.61834   0.04179   0.00000  Uiso   1.00
H401   H     0.78712   0.69375   0.94843   0.00000  Uiso   1.00
H402   H     0.67260   0.82124   0.11829   0.00000  Uiso   1.00
H403   H     0.48067   0.52495   0.03691   0.00000  Uiso   1.00
H404   H     0.88271   0.68399   0.84006   0.00000  Uiso   1.00
H405   H     0.64124   0.95283   0.19823   0.00000  Uiso   1.00
O406   O     0.34807   0.50477   0.99280   0.00000  Uiso   1.00
O407   O     0.87553   0.71343   0.73455   0.00000  Uiso   1.00
O408   O     0.55872   0.06615   0.20447   0.00000  Uiso   1.00
N409   N     0.37887   0.60054   0.96266   0.00000  Uiso   1.00
N410   N     0.75475   0.74922   0.77861   0.00000  Uiso   1.00
N411   N     0.52901   0.00057   0.11347   0.00000  Uiso   1.00
N412   N     0.45864   0.55657   0.01408   0.00000  Uiso   1.00
N413   N     0.83451   0.70524   0.83003   0.00000  Uiso   1.00
N414   N     0.60877   0.95660   0.16489   0.00000  Uiso   1.00
C415   C     0.40088   0.18041   0.93786   0.00000  Uiso   1.00
C416   C     0.47707   0.14246   0.91597   0.00000  Uiso   1.00
C417   C     0.50861   0.12718   0.85765   0.00000  Uiso   1.00
C418   C     0.57884   0.09210   0.84670   0.00000  Uiso   1.00
C419   C     0.69145   0.03605   0.80574   0.00000  Uiso   1.00
C420   C     0.35654   0.13486   0.96774   0.00000  Uiso   1.00
C421   C     0.28675   0.11320   0.95295   0.00000  Uiso   1.00
C422   C     0.25551   0.07174   0.98558   0.00000  Uiso   1.00
C423   C     0.18098   0.00393   0.02502   0.00000  Uiso   1.00
C424   C     0.41606   0.23983   0.98762   0.00000  Uiso   1.00
C425   C     0.39628   0.30643   0.98956   0.00000  Uiso   1.00
C426   C     0.41514   0.35334   0.03895   0.00000  Uiso   1.00
C427   C     0.43302   0.44851   0.10926   0.00000  Uiso   1.00
C428   C     0.46950   0.14529   0.02212   0.00000  Uiso   1.00
C429   C     0.51434   0.12338   0.96174   0.00000  Uiso   1.00
C430   C     0.58454   0.08833   0.95087   0.00000  Uiso   1.00
C431   C     0.61618   0.07300   0.89255   0.00000  Uiso   1.00
C432   C     0.39381   0.11579   0.01350   0.00000  Uiso   1.00
C433   C     0.36267   0.07435   0.04617   0.00000  Uiso   1.00
C434   C     0.29285   0.05263   0.03143   0.00000  Uiso   1.00
C435   C     0.45333   0.22076   0.03339   0.00000  Uiso   1.00
C436   C     0.47221   0.26757   0.08278   0.00000  Uiso   1.00
C437   C     0.45248   0.33423   0.08479   0.00000  Uiso   1.00
H438   H     0.37186   0.19526   0.90224   0.00000  Uiso   1.00
H439   H     0.47975   0.14194   0.82225   0.00000  Uiso   1.00
H440   H     0.25791   0.12798   0.91754   0.00000  Uiso   1.00
H441   H     0.36744   0.32117   0.95414   0.00000  Uiso   1.00
H442   H     0.61579   0.07440   0.75374   0.00000  Uiso   1.00
H443   H     0.14803   0.04497   0.95468   0.00000  Uiso   1.00
H444   H     0.37899   0.45236   0.03187   0.00000  Uiso   1.00
H445   H     0.49852   0.13044   0.05775   0.00000  Uiso   1.00
H446   H     0.61337   0.07357   0.98629   0.00000  Uiso   1.00
H447   H     0.39153   0.05960   0.08158   0.00000  Uiso   1.00
H448   H     0.50106   0.25280   0.11819   0.00000  Uiso   1.00
H449   H     0.72424   0.01891   0.88689   0.00000  Uiso   1.00
H450   H     0.25647   0.98948   0.08783   0.00000  Uiso   1.00
H451   H     0.48743   0.39686   0.16501   0.00000  Uiso   1.00
O452   O     0.74326   0.01039   0.77050   0.00000  Uiso   1.00
O453   O     0.12957   0.97180   0.03412   0.00000  Uiso   1.00
O454   O     0.43259   0.50628   0.13539   0.00000  Uiso   1.00
N455   N     0.62556   0.06916   0.79489   0.00000  Uiso   1.00
N456   N     0.18823   0.04163   0.98274   0.00000  Uiso   1.00
N457   N     0.40414   0.42251   0.05491   0.00000  Uiso   1.00
N458   N     0.68391   0.03930   0.86653   0.00000  Uiso   1.00
N459   N     0.24659   0.01177   0.05439   0.00000  Uiso   1.00
N460   N     0.46250   0.39265   0.12656   0.00000  Uiso   1.00
C461   C     0.19154   0.84019   0.37339   0.00000  Uiso   1.00
C462   C     0.10981   0.82669   0.38471   0.00000  Uiso   1.00
C463   C     0.07885   0.76645   0.36405   0.00000  Uiso   1.00
C464   C     0.00296   0.76425   0.37922   0.00000  Uiso   1.00
C465   C     0.88264   0.73476   0.39150   0.00000  Uiso   1.00
C466   C     0.18963   0.89941   0.34440   0.00000  Uiso   1.00
C467   C     0.22578   0.90032   0.28985   0.00000  Uiso   1.00
C468   C     0.21709   0.95935   0.27109   0.00000  Uiso   1.00
C469   C     0.22072   0.04278   0.22080   0.00000  Uiso   1.00
C470   C     0.22056   0.86521   0.43472   0.00000  Uiso   1.00
C471   C     0.28274   0.83737   0.45611   0.00000  Uiso   1.00
C472   C     0.30010   0.86760   0.51339   0.00000  Uiso   1.00
C473   C     0.35177   0.89793   0.60334   0.00000  Uiso   1.00
C474   C     0.11185   0.94340   0.43708   0.00000  Uiso   1.00
C475   C     0.06653   0.88275   0.41930   0.00000  Uiso   1.00
C476   C     0.99067   0.88063   0.43451   0.00000  Uiso   1.00
C477   C     0.95960   0.82040   0.41388   0.00000  Uiso   1.00
C478   C     0.14634   0.95547   0.37899   0.00000  Uiso   1.00
C479   C     0.13760   0.01451   0.36031   0.00000  Uiso   1.00
C480   C     0.17372   0.01551   0.30574   0.00000  Uiso   1.00
C481   C     0.17728   0.92127   0.46931   0.00000  Uiso   1.00
C482   C     0.19456   0.95155   0.52657   0.00000  Uiso   1.00
C483   C     0.25674   0.92376   0.54804   0.00000  Uiso   1.00
H484   H     0.22524   0.79655   0.34646   0.00000  Uiso   1.00
H485   H     0.11236   0.72308   0.33727   0.00000  Uiso   1.00
H486   H     0.25928   0.85694   0.26309   0.00000  Uiso   1.00
H487   H     0.31622   0.79399   0.42932   0.00000  Uiso   1.00
H488   H     0.96812   0.66635   0.34233   0.00000  Uiso   1.00
H489   H     0.27791   0.94860   0.18591   0.00000  Uiso   1.00
H490   H     0.39800   0.81586   0.53645   0.00000  Uiso   1.00
H491   H     0.07814   0.98705   0.46401   0.00000  Uiso   1.00
H492   H     0.95719   0.92402   0.46128   0.00000  Uiso   1.00
H493   H     0.10410   0.05788   0.38709   0.00000  Uiso   1.00
H494   H     0.16105   0.99493   0.55332   0.00000  Uiso   1.00
H495   H     0.84217   0.82944   0.44297   0.00000  Uiso   1.00
H496   H     0.15197   0.11170   0.28655   0.00000  Uiso   1.00
H497   H     0.27205   0.97896   0.63709   0.00000  Uiso   1.00
O498   O     0.82822   0.70301   0.38871   0.00000  Uiso   1.00
O499   O     0.23468   0.07331   0.18351   0.00000  Uiso   1.00
O500   O     0.39222   0.89916   0.64340   0.00000  Uiso   1.00
N501   N     0.95508   0.71338   0.36640   0.00000  Uiso   1.00
N502   N     0.24471   0.97726   0.22015   0.00000  Uiso   1.00
N503   N     0.35699   0.85318   0.54787   0.00000  Uiso   1.00
N504   N     0.88731   0.80114   0.42055   0.00000  Uiso   1.00
N505   N     0.17694   0.06502   0.27431   0.00000  Uiso   1.00
N506   N     0.28922   0.94094   0.60203   0.00000  Uiso   1.00
C507   C     0.97677   0.31675   0.19350   0.00000  Uiso   1.00
C508   C     0.95147   0.34094   0.13972   0.00000  Uiso   1.00
C509   C     0.90012   0.31173   0.10097   0.00000  Uiso   1.00
C510   C     0.88447   0.34137   0.05447   0.00000  Uiso   1.00
C511   C     0.83996   0.37027   0.97207   0.00000  Uiso   1.00
C512   C     0.06212   0.30499   0.18430   0.00000  Uiso   1.00
C513   C     0.10379   0.24557   0.18304   0.00000  Uiso   1.00
C514   C     0.18129   0.24495   0.17408   0.00000  Uiso   1.00
C515   C     0.30856   0.21806   0.16094   0.00000  Uiso   1.00
C516   C     0.96027   0.37598   0.24712   0.00000  Uiso   1.00
C517   C     0.91632   0.37625   0.29868   0.00000  Uiso   1.00
C518   C     0.90808   0.43540   0.34262   0.00000  Uiso   1.00
C519   C     0.87722   0.51873   0.42701   0.00000  Uiso   1.00
C520   C     0.04030   0.42133   0.17984   0.00000  Uiso   1.00
C521   C     0.98598   0.39774   0.13230   0.00000  Uiso   1.00
C522   C     0.97040   0.42743   0.08585   0.00000  Uiso   1.00
C523   C     0.91903   0.39828   0.04704   0.00000  Uiso   1.00
C524   C     0.09662   0.36179   0.17688   0.00000  Uiso   1.00
C525   C     0.17407   0.36127   0.16793   0.00000  Uiso   1.00
C526   C     0.21585   0.30186   0.16665   0.00000  Uiso   1.00
C527   C     0.99477   0.43279   0.23970   0.00000  Uiso   1.00
C528   C     0.98660   0.49195   0.28356   0.00000  Uiso   1.00
C529   C     0.94265   0.49231   0.33518   0.00000  Uiso   1.00
H530   H     0.94992   0.27253   0.19928   0.00000  Uiso   1.00
H531   H     0.87343   0.26777   0.10672   0.00000  Uiso   1.00
H532   H     0.07708   0.20162   0.18879   0.00000  Uiso   1.00
H533   H     0.88963   0.33228   0.30441   0.00000  Uiso   1.00
H534   H     0.80387   0.28753   0.00082   0.00000  Uiso   1.00
H535   H     0.23327   0.14806   0.17389   0.00000  Uiso   1.00
H536   H     0.83801   0.42358   0.41769   0.00000  Uiso   1.00
H537   H     0.06716   0.46555   0.17406   0.00000  Uiso   1.00
H538   H     0.99710   0.47139   0.08012   0.00000  Uiso   1.00
H539   H     0.20075   0.40524   0.16219   0.00000  Uiso   1.00
H540   H     0.01331   0.53590   0.27781   0.00000  Uiso   1.00
H541   H     0.90425   0.45280   0.97923   0.00000  Uiso   1.00
H542   H     0.33365   0.31332   0.15230   0.00000  Uiso   1.00
H543   H     0.93839   0.58885   0.39610   0.00000  Uiso   1.00
O544   O     0.80588   0.37051   0.92867   0.00000  Uiso   1.00
O545   O     0.36923   0.18753   0.15574   0.00000  Uiso   1.00
O546   O     0.85066   0.54901   0.47560   0.00000  Uiso   1.00
N547   N     0.83710   0.32563   0.00864   0.00000  Uiso   1.00
N548   N     0.23856   0.19523   0.17043   0.00000  Uiso   1.00
N549   N     0.86904   0.45282   0.39838   0.00000  Uiso   1.00
N550   N     0.89111   0.41456   0.99702   0.00000  Uiso   1.00
N551   N     0.29257   0.28416   0.15882   0.00000  Uiso   1.00
N552   N     0.92305   0.54174   0.38676   0.00000  Uiso   1.00
