data_job_03232
_audit_creation_date              2018-12-19
_audit_creation_method            'Materials Studio'
_symmetry_space_group_name_H-M    'P1'
_symmetry_Int_Tables_number       1
_symmetry_cell_setting            triclinic
loop_
_symmetry_equiv_pos_as_xyz
  x,y,z
_cell_length_a                    15.1863
_cell_length_b                    20.2463
_cell_length_c                    31.0069
_cell_angle_alpha                 90.0000
_cell_angle_beta                  108.9821
_cell_angle_gamma                 90.0000
loop_
_atom_site_label
_atom_site_type_symbol
_atom_site_fract_x
_atom_site_fract_y
_atom_site_fract_z
_atom_site_U_iso_or_equiv
_atom_site_adp_type
_atom_site_occupancy
C1     C     0.83676   0.74820   0.66655   0.00000  Uiso   1.00
C2     C     0.77037   0.78838   0.68399   0.00000  Uiso   1.00
C3     C     0.78896   0.81138   0.72823   0.00000  Uiso   1.00
C4     C     0.71911   0.84722   0.73737   0.00000  Uiso   1.00
C5     C     0.62899   0.90770   0.76961   0.00000  Uiso   1.00
C6     C     0.78469   0.68504   0.64656   0.00000  Uiso   1.00
C7     C     0.81534   0.62116   0.65933   0.00000  Uiso   1.00
C8     C     0.75755   0.57001   0.63695   0.00000  Uiso   1.00
C9     C     0.68969   0.47007   0.61107   0.00000  Uiso   1.00
C10    C     0.84754   0.78675   0.62632   0.00000  Uiso   1.00
C11    C     0.93103   0.80837   0.62205   0.00000  Uiso   1.00
C12    C     0.92616   0.84284   0.58263   0.00000  Uiso   1.00
C13    C     0.95589   0.90081   0.52531   0.00000  Uiso   1.00
C14    C     0.67964   0.77094   0.60412   0.00000  Uiso   1.00
C15    C     0.68502   0.80073   0.65008   0.00000  Uiso   1.00
C16    C     0.61513   0.83655   0.65916   0.00000  Uiso   1.00
C17    C     0.63362   0.85960   0.70340   0.00000  Uiso   1.00
C18    C     0.69935   0.69740   0.61266   0.00000  Uiso   1.00
C19    C     0.64150   0.64633   0.59026   0.00000  Uiso   1.00
C20    C     0.67205   0.58239   0.60298   0.00000  Uiso   1.00
C21    C     0.76220   0.79911   0.59241   0.00000  Uiso   1.00
C22    C     0.75719   0.83354   0.55298   0.00000  Uiso   1.00
C23    C     0.84066   0.85522   0.54866   0.00000  Uiso   1.00
H24    H     0.90320   0.73857   0.69295   0.00000  Uiso   1.00
H25    H     0.85501   0.80180   0.75446   0.00000  Uiso   1.00
H26    H     0.88139   0.61162   0.68556   0.00000  Uiso   1.00
H27    H     0.99706   0.79880   0.64830   0.00000  Uiso   1.00
H28    H     0.76395   0.87733   0.80770   0.00000  Uiso   1.00
H29    H     0.81957   0.47632   0.66243   0.00000  Uiso   1.00
H30    H     0.06349   0.87103   0.58384   0.00000  Uiso   1.00
H31    H     0.61319   0.78056   0.57772   0.00000  Uiso   1.00
H32    H     0.54909   0.84610   0.63291   0.00000  Uiso   1.00
H33    H     0.57547   0.65591   0.56402   0.00000  Uiso   1.00
H34    H     0.69114   0.84310   0.52675   0.00000  Uiso   1.00
H35    H     0.51565   0.91328   0.70905   0.00000  Uiso   1.00
H36    H     0.57128   0.51226   0.56377   0.00000  Uiso   1.00
H37    H     0.81519   0.90698   0.48519   0.00000  Uiso   1.00
O38    O     0.60285   0.93764   0.79676   0.00000  Uiso   1.00
O39    O     0.67584   0.41153   0.60616   0.00000  Uiso   1.00
O40    O     0.99586   0.92938   0.50306   0.00000  Uiso   1.00
N41    N     0.71431   0.87681   0.77691   0.00000  Uiso   1.00
N42    N     0.76631   0.50188   0.64109   0.00000  Uiso   1.00
N43    N     0.99436   0.87089   0.56761   0.00000  Uiso   1.00
N44    N     0.58071   0.89615   0.72382   0.00000  Uiso   1.00
N45    N     0.63271   0.52123   0.58801   0.00000  Uiso   1.00
N46    N     0.86075   0.89024   0.51453   0.00000  Uiso   1.00
C47    C     0.33676   0.24820   0.66655   0.00000  Uiso   1.00
C48    C     0.27037   0.28838   0.68399   0.00000  Uiso   1.00
C49    C     0.28896   0.31138   0.72823   0.00000  Uiso   1.00
C50    C     0.21911   0.34722   0.73737   0.00000  Uiso   1.00
C51    C     0.12899   0.40770   0.76961   0.00000  Uiso   1.00
C52    C     0.28469   0.18504   0.64656   0.00000  Uiso   1.00
C53    C     0.31534   0.12116   0.65933   0.00000  Uiso   1.00
C54    C     0.25755   0.07001   0.63695   0.00000  Uiso   1.00
C55    C     0.18969   0.97007   0.61107   0.00000  Uiso   1.00
C56    C     0.34754   0.28675   0.62632   0.00000  Uiso   1.00
C57    C     0.43103   0.30837   0.62205   0.00000  Uiso   1.00
C58    C     0.42616   0.34284   0.58263   0.00000  Uiso   1.00
C59    C     0.45589   0.40081   0.52531   0.00000  Uiso   1.00
C60    C     0.17964   0.27094   0.60412   0.00000  Uiso   1.00
C61    C     0.18502   0.30073   0.65008   0.00000  Uiso   1.00
C62    C     0.11513   0.33655   0.65916   0.00000  Uiso   1.00
C63    C     0.13362   0.35960   0.70340   0.00000  Uiso   1.00
C64    C     0.19935   0.19740   0.61266   0.00000  Uiso   1.00
C65    C     0.14150   0.14633   0.59026   0.00000  Uiso   1.00
C66    C     0.17205   0.08239   0.60298   0.00000  Uiso   1.00
C67    C     0.26220   0.29911   0.59241   0.00000  Uiso   1.00
C68    C     0.25719   0.33354   0.55298   0.00000  Uiso   1.00
C69    C     0.34066   0.35522   0.54866   0.00000  Uiso   1.00
H70    H     0.40320   0.23857   0.69295   0.00000  Uiso   1.00
H71    H     0.35501   0.30180   0.75446   0.00000  Uiso   1.00
H72    H     0.38139   0.11162   0.68556   0.00000  Uiso   1.00
H73    H     0.49706   0.29880   0.64830   0.00000  Uiso   1.00
H74    H     0.26395   0.37733   0.80770   0.00000  Uiso   1.00
H75    H     0.31957   0.97632   0.66243   0.00000  Uiso   1.00
H76    H     0.56349   0.37103   0.58384   0.00000  Uiso   1.00
H77    H     0.11319   0.28056   0.57772   0.00000  Uiso   1.00
H78    H     0.04909   0.34610   0.63291   0.00000  Uiso   1.00
H79    H     0.07547   0.15591   0.56402   0.00000  Uiso   1.00
H80    H     0.19114   0.34310   0.52675   0.00000  Uiso   1.00
H81    H     0.01565   0.41328   0.70905   0.00000  Uiso   1.00
H82    H     0.07128   0.01226   0.56377   0.00000  Uiso   1.00
H83    H     0.31519   0.40698   0.48519   0.00000  Uiso   1.00
O84    O     0.10285   0.43764   0.79676   0.00000  Uiso   1.00
O85    O     0.17584   0.91153   0.60616   0.00000  Uiso   1.00
O86    O     0.49586   0.42938   0.50306   0.00000  Uiso   1.00
N87    N     0.21431   0.37681   0.77691   0.00000  Uiso   1.00
N88    N     0.26631   0.00188   0.64109   0.00000  Uiso   1.00
N89    N     0.49436   0.37089   0.56761   0.00000  Uiso   1.00
N90    N     0.08071   0.39615   0.72382   0.00000  Uiso   1.00
N91    N     0.13271   0.02123   0.58801   0.00000  Uiso   1.00
N92    N     0.36075   0.39024   0.51453   0.00000  Uiso   1.00
C93    C     0.16324   0.74820   0.83345   0.00000  Uiso   1.00
C94    C     0.22963   0.78838   0.81601   0.00000  Uiso   1.00
C95    C     0.21104   0.81138   0.77177   0.00000  Uiso   1.00
C96    C     0.28089   0.84722   0.76263   0.00000  Uiso   1.00
C97    C     0.37101   0.90770   0.73039   0.00000  Uiso   1.00
C98    C     0.21531   0.68504   0.85344   0.00000  Uiso   1.00
C99    C     0.18466   0.62116   0.84067   0.00000  Uiso   1.00
C100   C     0.24245   0.57001   0.86305   0.00000  Uiso   1.00
C101   C     0.31031   0.47007   0.88893   0.00000  Uiso   1.00
C102   C     0.15246   0.78675   0.87368   0.00000  Uiso   1.00
C103   C     0.06897   0.80837   0.87795   0.00000  Uiso   1.00
C104   C     0.07384   0.84284   0.91737   0.00000  Uiso   1.00
C105   C     0.04411   0.90081   0.97469   0.00000  Uiso   1.00
C106   C     0.32036   0.77094   0.89588   0.00000  Uiso   1.00
C107   C     0.31498   0.80073   0.84992   0.00000  Uiso   1.00
C108   C     0.38487   0.83655   0.84084   0.00000  Uiso   1.00
C109   C     0.36638   0.85960   0.79660   0.00000  Uiso   1.00
C110   C     0.30065   0.69740   0.88734   0.00000  Uiso   1.00
C111   C     0.35850   0.64633   0.90974   0.00000  Uiso   1.00
C112   C     0.32795   0.58239   0.89702   0.00000  Uiso   1.00
C113   C     0.23780   0.79911   0.90759   0.00000  Uiso   1.00
C114   C     0.24281   0.83354   0.94702   0.00000  Uiso   1.00
C115   C     0.15934   0.85522   0.95134   0.00000  Uiso   1.00
H116   H     0.09680   0.73857   0.80705   0.00000  Uiso   1.00
H117   H     0.14499   0.80180   0.74554   0.00000  Uiso   1.00
H118   H     0.11861   0.61162   0.81444   0.00000  Uiso   1.00
H119   H     0.00294   0.79880   0.85170   0.00000  Uiso   1.00
H120   H     0.23605   0.87733   0.69230   0.00000  Uiso   1.00
H121   H     0.18043   0.47632   0.83757   0.00000  Uiso   1.00
H122   H     0.93651   0.87103   0.91616   0.00000  Uiso   1.00
H123   H     0.38681   0.78056   0.92228   0.00000  Uiso   1.00
H124   H     0.45091   0.84610   0.86709   0.00000  Uiso   1.00
H125   H     0.42453   0.65591   0.93598   0.00000  Uiso   1.00
H126   H     0.30886   0.84310   0.97325   0.00000  Uiso   1.00
H127   H     0.48435   0.91328   0.79095   0.00000  Uiso   1.00
H128   H     0.42872   0.51226   0.93623   0.00000  Uiso   1.00
H129   H     0.18481   0.90698   0.01481   0.00000  Uiso   1.00
O130   O     0.39715   0.93764   0.70324   0.00000  Uiso   1.00
O131   O     0.32416   0.41153   0.89384   0.00000  Uiso   1.00
O132   O     0.00414   0.92938   0.99694   0.00000  Uiso   1.00
N133   N     0.28569   0.87681   0.72309   0.00000  Uiso   1.00
N134   N     0.23369   0.50188   0.85891   0.00000  Uiso   1.00
N135   N     0.00564   0.87089   0.93239   0.00000  Uiso   1.00
N136   N     0.41929   0.89615   0.77618   0.00000  Uiso   1.00
N137   N     0.36729   0.52123   0.91199   0.00000  Uiso   1.00
N138   N     0.13925   0.89024   0.98547   0.00000  Uiso   1.00
C139   C     0.66324   0.24820   0.83345   0.00000  Uiso   1.00
C140   C     0.72963   0.28838   0.81601   0.00000  Uiso   1.00
C141   C     0.71104   0.31138   0.77177   0.00000  Uiso   1.00
C142   C     0.78089   0.34722   0.76263   0.00000  Uiso   1.00
C143   C     0.87101   0.40770   0.73039   0.00000  Uiso   1.00
C144   C     0.71531   0.18504   0.85344   0.00000  Uiso   1.00
C145   C     0.68466   0.12116   0.84067   0.00000  Uiso   1.00
C146   C     0.74245   0.07001   0.86305   0.00000  Uiso   1.00
C147   C     0.81031   0.97007   0.88893   0.00000  Uiso   1.00
C148   C     0.65246   0.28675   0.87368   0.00000  Uiso   1.00
C149   C     0.56897   0.30837   0.87795   0.00000  Uiso   1.00
C150   C     0.57384   0.34284   0.91737   0.00000  Uiso   1.00
C151   C     0.54411   0.40081   0.97469   0.00000  Uiso   1.00
C152   C     0.82036   0.27094   0.89588   0.00000  Uiso   1.00
C153   C     0.81498   0.30073   0.84992   0.00000  Uiso   1.00
C154   C     0.88487   0.33655   0.84084   0.00000  Uiso   1.00
C155   C     0.86638   0.35960   0.79660   0.00000  Uiso   1.00
C156   C     0.80065   0.19740   0.88734   0.00000  Uiso   1.00
C157   C     0.85850   0.14633   0.90974   0.00000  Uiso   1.00
C158   C     0.82795   0.08239   0.89702   0.00000  Uiso   1.00
C159   C     0.73780   0.29911   0.90759   0.00000  Uiso   1.00
C160   C     0.74281   0.33354   0.94702   0.00000  Uiso   1.00
C161   C     0.65934   0.35522   0.95134   0.00000  Uiso   1.00
H162   H     0.59680   0.23857   0.80705   0.00000  Uiso   1.00
H163   H     0.64499   0.30180   0.74554   0.00000  Uiso   1.00
H164   H     0.61861   0.11162   0.81444   0.00000  Uiso   1.00
H165   H     0.50294   0.29880   0.85170   0.00000  Uiso   1.00
H166   H     0.73605   0.37733   0.69230   0.00000  Uiso   1.00
H167   H     0.68043   0.97632   0.83757   0.00000  Uiso   1.00
H168   H     0.43651   0.37103   0.91616   0.00000  Uiso   1.00
H169   H     0.88681   0.28056   0.92228   0.00000  Uiso   1.00
H170   H     0.95091   0.34610   0.86709   0.00000  Uiso   1.00
H171   H     0.92453   0.15591   0.93598   0.00000  Uiso   1.00
H172   H     0.80886   0.34310   0.97325   0.00000  Uiso   1.00
H173   H     0.98435   0.41328   0.79095   0.00000  Uiso   1.00
H174   H     0.92872   0.01226   0.93623   0.00000  Uiso   1.00
H175   H     0.68481   0.40698   0.01481   0.00000  Uiso   1.00
O176   O     0.89715   0.43764   0.70324   0.00000  Uiso   1.00
O177   O     0.82416   0.91153   0.89384   0.00000  Uiso   1.00
O178   O     0.50414   0.42938   0.99694   0.00000  Uiso   1.00
N179   N     0.78569   0.37681   0.72309   0.00000  Uiso   1.00
N180   N     0.73369   0.00188   0.85891   0.00000  Uiso   1.00
N181   N     0.50564   0.37089   0.93239   0.00000  Uiso   1.00
N182   N     0.91929   0.39615   0.77618   0.00000  Uiso   1.00
N183   N     0.86729   0.02123   0.91199   0.00000  Uiso   1.00
N184   N     0.63925   0.39024   0.98547   0.00000  Uiso   1.00
C185   C     0.16324   0.25180   0.33345   0.00000  Uiso   1.00
C186   C     0.22963   0.21162   0.31601   0.00000  Uiso   1.00
C187   C     0.21104   0.18862   0.27177   0.00000  Uiso   1.00
C188   C     0.28089   0.15278   0.26263   0.00000  Uiso   1.00
C189   C     0.37101   0.09230   0.23039   0.00000  Uiso   1.00
C190   C     0.21531   0.31496   0.35344   0.00000  Uiso   1.00
C191   C     0.18466   0.37884   0.34067   0.00000  Uiso   1.00
C192   C     0.24245   0.42999   0.36305   0.00000  Uiso   1.00
C193   C     0.31031   0.52993   0.38893   0.00000  Uiso   1.00
C194   C     0.15246   0.21325   0.37368   0.00000  Uiso   1.00
C195   C     0.06897   0.19163   0.37795   0.00000  Uiso   1.00
C196   C     0.07384   0.15716   0.41737   0.00000  Uiso   1.00
C197   C     0.04411   0.09919   0.47469   0.00000  Uiso   1.00
C198   C     0.32036   0.22906   0.39588   0.00000  Uiso   1.00
C199   C     0.31498   0.19927   0.34992   0.00000  Uiso   1.00
C200   C     0.38487   0.16345   0.34084   0.00000  Uiso   1.00
C201   C     0.36638   0.14040   0.29660   0.00000  Uiso   1.00
C202   C     0.30065   0.30260   0.38734   0.00000  Uiso   1.00
C203   C     0.35850   0.35367   0.40974   0.00000  Uiso   1.00
C204   C     0.32795   0.41761   0.39702   0.00000  Uiso   1.00
C205   C     0.23780   0.20089   0.40759   0.00000  Uiso   1.00
C206   C     0.24281   0.16646   0.44702   0.00000  Uiso   1.00
C207   C     0.15934   0.14478   0.45134   0.00000  Uiso   1.00
H208   H     0.09680   0.26143   0.30705   0.00000  Uiso   1.00
H209   H     0.14499   0.19820   0.24554   0.00000  Uiso   1.00
H210   H     0.11861   0.38838   0.31444   0.00000  Uiso   1.00
H211   H     0.00294   0.20120   0.35170   0.00000  Uiso   1.00
H212   H     0.23605   0.12267   0.19230   0.00000  Uiso   1.00
H213   H     0.18043   0.52368   0.33757   0.00000  Uiso   1.00
H214   H     0.93651   0.12897   0.41616   0.00000  Uiso   1.00
H215   H     0.38681   0.21944   0.42228   0.00000  Uiso   1.00
H216   H     0.45091   0.15390   0.36709   0.00000  Uiso   1.00
H217   H     0.42453   0.34409   0.43598   0.00000  Uiso   1.00
H218   H     0.30886   0.15690   0.47325   0.00000  Uiso   1.00
H219   H     0.48435   0.08672   0.29095   0.00000  Uiso   1.00
H220   H     0.42872   0.48774   0.43623   0.00000  Uiso   1.00
H221   H     0.18481   0.09302   0.51481   0.00000  Uiso   1.00
O222   O     0.39715   0.06236   0.20324   0.00000  Uiso   1.00
O223   O     0.32416   0.58847   0.39384   0.00000  Uiso   1.00
O224   O     0.00414   0.07062   0.49694   0.00000  Uiso   1.00
N225   N     0.28569   0.12319   0.22309   0.00000  Uiso   1.00
N226   N     0.23369   0.49812   0.35891   0.00000  Uiso   1.00
N227   N     0.00564   0.12911   0.43239   0.00000  Uiso   1.00
N228   N     0.41929   0.10385   0.27618   0.00000  Uiso   1.00
N229   N     0.36729   0.47877   0.41199   0.00000  Uiso   1.00
N230   N     0.13925   0.10976   0.48547   0.00000  Uiso   1.00
C231   C     0.66324   0.75180   0.33345   0.00000  Uiso   1.00
C232   C     0.72963   0.71162   0.31601   0.00000  Uiso   1.00
C233   C     0.71104   0.68862   0.27177   0.00000  Uiso   1.00
C234   C     0.78089   0.65278   0.26263   0.00000  Uiso   1.00
C235   C     0.87101   0.59230   0.23039   0.00000  Uiso   1.00
C236   C     0.71531   0.81496   0.35344   0.00000  Uiso   1.00
C237   C     0.68466   0.87884   0.34067   0.00000  Uiso   1.00
C238   C     0.74245   0.92999   0.36305   0.00000  Uiso   1.00
C239   C     0.81031   0.02993   0.38893   0.00000  Uiso   1.00
C240   C     0.65246   0.71325   0.37368   0.00000  Uiso   1.00
C241   C     0.56897   0.69163   0.37795   0.00000  Uiso   1.00
C242   C     0.57384   0.65716   0.41737   0.00000  Uiso   1.00
C243   C     0.54411   0.59919   0.47469   0.00000  Uiso   1.00
C244   C     0.82036   0.72906   0.39588   0.00000  Uiso   1.00
C245   C     0.81498   0.69927   0.34992   0.00000  Uiso   1.00
C246   C     0.88487   0.66345   0.34084   0.00000  Uiso   1.00
C247   C     0.86638   0.64040   0.29660   0.00000  Uiso   1.00
C248   C     0.80065   0.80260   0.38734   0.00000  Uiso   1.00
C249   C     0.85850   0.85367   0.40974   0.00000  Uiso   1.00
C250   C     0.82795   0.91761   0.39702   0.00000  Uiso   1.00
C251   C     0.73780   0.70089   0.40759   0.00000  Uiso   1.00
C252   C     0.74281   0.66646   0.44702   0.00000  Uiso   1.00
C253   C     0.65934   0.64478   0.45134   0.00000  Uiso   1.00
H254   H     0.59680   0.76143   0.30705   0.00000  Uiso   1.00
H255   H     0.64499   0.69820   0.24554   0.00000  Uiso   1.00
H256   H     0.61861   0.88838   0.31444   0.00000  Uiso   1.00
H257   H     0.50294   0.70120   0.35170   0.00000  Uiso   1.00
H258   H     0.73605   0.62267   0.19230   0.00000  Uiso   1.00
H259   H     0.68043   0.02368   0.33757   0.00000  Uiso   1.00
H260   H     0.43651   0.62897   0.41616   0.00000  Uiso   1.00
H261   H     0.88681   0.71944   0.42228   0.00000  Uiso   1.00
H262   H     0.95091   0.65390   0.36709   0.00000  Uiso   1.00
H263   H     0.92453   0.84409   0.43598   0.00000  Uiso   1.00
H264   H     0.80886   0.65690   0.47325   0.00000  Uiso   1.00
H265   H     0.98435   0.58672   0.29095   0.00000  Uiso   1.00
H266   H     0.92872   0.98774   0.43623   0.00000  Uiso   1.00
H267   H     0.68481   0.59302   0.51481   0.00000  Uiso   1.00
O268   O     0.89715   0.56236   0.20324   0.00000  Uiso   1.00
O269   O     0.82416   0.08847   0.39384   0.00000  Uiso   1.00
O270   O     0.50414   0.57062   0.49694   0.00000  Uiso   1.00
N271   N     0.78569   0.62319   0.22309   0.00000  Uiso   1.00
N272   N     0.73369   0.99812   0.35891   0.00000  Uiso   1.00
N273   N     0.50564   0.62911   0.43239   0.00000  Uiso   1.00
N274   N     0.91929   0.60385   0.27618   0.00000  Uiso   1.00
N275   N     0.86729   0.97877   0.41199   0.00000  Uiso   1.00
N276   N     0.63925   0.60976   0.48547   0.00000  Uiso   1.00
C277   C     0.83676   0.25180   0.16655   0.00000  Uiso   1.00
C278   C     0.77037   0.21162   0.18399   0.00000  Uiso   1.00
C279   C     0.78896   0.18862   0.22823   0.00000  Uiso   1.00
C280   C     0.71911   0.15278   0.23737   0.00000  Uiso   1.00
C281   C     0.62899   0.09230   0.26961   0.00000  Uiso   1.00
C282   C     0.78469   0.31496   0.14656   0.00000  Uiso   1.00
C283   C     0.81534   0.37884   0.15933   0.00000  Uiso   1.00
C284   C     0.75755   0.42999   0.13695   0.00000  Uiso   1.00
C285   C     0.68969   0.52993   0.11107   0.00000  Uiso   1.00
C286   C     0.84754   0.21325   0.12632   0.00000  Uiso   1.00
C287   C     0.93103   0.19163   0.12205   0.00000  Uiso   1.00
C288   C     0.92616   0.15716   0.08263   0.00000  Uiso   1.00
C289   C     0.95589   0.09919   0.02531   0.00000  Uiso   1.00
C290   C     0.67964   0.22906   0.10412   0.00000  Uiso   1.00
C291   C     0.68502   0.19927   0.15008   0.00000  Uiso   1.00
C292   C     0.61513   0.16345   0.15916   0.00000  Uiso   1.00
C293   C     0.63362   0.14040   0.20340   0.00000  Uiso   1.00
C294   C     0.69935   0.30260   0.11266   0.00000  Uiso   1.00
C295   C     0.64150   0.35367   0.09026   0.00000  Uiso   1.00
C296   C     0.67205   0.41761   0.10298   0.00000  Uiso   1.00
C297   C     0.76220   0.20089   0.09241   0.00000  Uiso   1.00
C298   C     0.75719   0.16646   0.05298   0.00000  Uiso   1.00
C299   C     0.84066   0.14478   0.04866   0.00000  Uiso   1.00
H300   H     0.90320   0.26143   0.19295   0.00000  Uiso   1.00
H301   H     0.85501   0.19820   0.25446   0.00000  Uiso   1.00
H302   H     0.88139   0.38838   0.18556   0.00000  Uiso   1.00
H303   H     0.99706   0.20120   0.14830   0.00000  Uiso   1.00
H304   H     0.76395   0.12267   0.30770   0.00000  Uiso   1.00
H305   H     0.81957   0.52368   0.16243   0.00000  Uiso   1.00
H306   H     0.06349   0.12897   0.08384   0.00000  Uiso   1.00
H307   H     0.61319   0.21944   0.07772   0.00000  Uiso   1.00
H308   H     0.54909   0.15390   0.13291   0.00000  Uiso   1.00
H309   H     0.57547   0.34409   0.06402   0.00000  Uiso   1.00
H310   H     0.69114   0.15690   0.02675   0.00000  Uiso   1.00
H311   H     0.51565   0.08672   0.20905   0.00000  Uiso   1.00
H312   H     0.57128   0.48774   0.06377   0.00000  Uiso   1.00
H313   H     0.81519   0.09302   0.98519   0.00000  Uiso   1.00
O314   O     0.60285   0.06236   0.29676   0.00000  Uiso   1.00
O315   O     0.67584   0.58847   0.10616   0.00000  Uiso   1.00
O316   O     0.99586   0.07062   0.00306   0.00000  Uiso   1.00
N317   N     0.71431   0.12319   0.27691   0.00000  Uiso   1.00
N318   N     0.76631   0.49812   0.14109   0.00000  Uiso   1.00
N319   N     0.99436   0.12911   0.06761   0.00000  Uiso   1.00
N320   N     0.58071   0.10385   0.22382   0.00000  Uiso   1.00
N321   N     0.63271   0.47877   0.08801   0.00000  Uiso   1.00
N322   N     0.86075   0.10976   0.01453   0.00000  Uiso   1.00
C323   C     0.33676   0.75180   0.16655   0.00000  Uiso   1.00
C324   C     0.27037   0.71162   0.18399   0.00000  Uiso   1.00
C325   C     0.28896   0.68862   0.22823   0.00000  Uiso   1.00
C326   C     0.21911   0.65278   0.23737   0.00000  Uiso   1.00
C327   C     0.12899   0.59230   0.26961   0.00000  Uiso   1.00
C328   C     0.28469   0.81496   0.14656   0.00000  Uiso   1.00
C329   C     0.31534   0.87884   0.15933   0.00000  Uiso   1.00
C330   C     0.25755   0.92999   0.13695   0.00000  Uiso   1.00
C331   C     0.18969   0.02993   0.11107   0.00000  Uiso   1.00
C332   C     0.34754   0.71325   0.12632   0.00000  Uiso   1.00
C333   C     0.43103   0.69163   0.12205   0.00000  Uiso   1.00
C334   C     0.42616   0.65716   0.08263   0.00000  Uiso   1.00
C335   C     0.45589   0.59919   0.02531   0.00000  Uiso   1.00
C336   C     0.17964   0.72906   0.10412   0.00000  Uiso   1.00
C337   C     0.18502   0.69927   0.15008   0.00000  Uiso   1.00
C338   C     0.11513   0.66345   0.15916   0.00000  Uiso   1.00
C339   C     0.13362   0.64040   0.20340   0.00000  Uiso   1.00
C340   C     0.19935   0.80260   0.11266   0.00000  Uiso   1.00
C341   C     0.14150   0.85367   0.09026   0.00000  Uiso   1.00
C342   C     0.17205   0.91761   0.10298   0.00000  Uiso   1.00
C343   C     0.26220   0.70089   0.09241   0.00000  Uiso   1.00
C344   C     0.25719   0.66646   0.05298   0.00000  Uiso   1.00
C345   C     0.34066   0.64478   0.04866   0.00000  Uiso   1.00
H346   H     0.40320   0.76143   0.19295   0.00000  Uiso   1.00
H347   H     0.35501   0.69820   0.25446   0.00000  Uiso   1.00
H348   H     0.38139   0.88838   0.18556   0.00000  Uiso   1.00
H349   H     0.49706   0.70120   0.14830   0.00000  Uiso   1.00
H350   H     0.26395   0.62267   0.30770   0.00000  Uiso   1.00
H351   H     0.31957   0.02368   0.16243   0.00000  Uiso   1.00
H352   H     0.56349   0.62897   0.08384   0.00000  Uiso   1.00
H353   H     0.11319   0.71944   0.07772   0.00000  Uiso   1.00
H354   H     0.04909   0.65390   0.13291   0.00000  Uiso   1.00
H355   H     0.07547   0.84409   0.06402   0.00000  Uiso   1.00
H356   H     0.19114   0.65690   0.02675   0.00000  Uiso   1.00
H357   H     0.01565   0.58672   0.20905   0.00000  Uiso   1.00
H358   H     0.07128   0.98774   0.06377   0.00000  Uiso   1.00
H359   H     0.31519   0.59302   0.98519   0.00000  Uiso   1.00
O360   O     0.10285   0.56236   0.29676   0.00000  Uiso   1.00
O361   O     0.17584   0.08847   0.10616   0.00000  Uiso   1.00
O362   O     0.49586   0.57062   0.00306   0.00000  Uiso   1.00
N363   N     0.21431   0.62319   0.27691   0.00000  Uiso   1.00
N364   N     0.26631   0.99812   0.14109   0.00000  Uiso   1.00
N365   N     0.49436   0.62911   0.06761   0.00000  Uiso   1.00
N366   N     0.08071   0.60385   0.22382   0.00000  Uiso   1.00
N367   N     0.13271   0.97877   0.08801   0.00000  Uiso   1.00
N368   N     0.36075   0.60976   0.01453   0.00000  Uiso   1.00
