data_job_00719
_audit_creation_date              2018-12-19
_audit_creation_method            'Materials Studio'
_symmetry_space_group_name_H-M    'P1'
_symmetry_Int_Tables_number       1
_symmetry_cell_setting            triclinic
loop_
_symmetry_equiv_pos_as_xyz
  x,y,z
_cell_length_a                    11.7352
_cell_length_b                    24.2237
_cell_length_c                    16.6354
_cell_angle_alpha                 90.0000
_cell_angle_beta                  90.0000
_cell_angle_gamma                 90.0000
loop_
_atom_site_label
_atom_site_type_symbol
_atom_site_fract_x
_atom_site_fract_y
_atom_site_fract_z
_atom_site_U_iso_or_equiv
_atom_site_adp_type
_atom_site_occupancy
C1     C     0.88377   0.89330   0.76055   0.00000  Uiso   1.00
C2     C     0.80894   0.84295   0.74504   0.00000  Uiso   1.00
C3     C     0.81938   0.80681   0.68073   0.00000  Uiso   1.00
C4     C     0.74261   0.76327   0.67727   0.00000  Uiso   1.00
C5     C     0.63918   0.68618   0.64423   0.00000  Uiso   1.00
C6     C     0.80290   0.94242   0.76624   0.00000  Uiso   1.00
C7     C     0.80829   0.98992   0.71975   0.00000  Uiso   1.00
C8     C     0.72645   0.03011   0.73416   0.00000  Uiso   1.00
C9     C     0.61369   0.10748   0.73406   0.00000  Uiso   1.00
C10    C     0.93331   0.88557   0.84454   0.00000  Uiso   1.00
C11    C     0.04834   0.88528   0.86390   0.00000  Uiso   1.00
C12    C     0.07629   0.87762   0.94423   0.00000  Uiso   1.00
C13    C     0.16601   0.86672   0.06571   0.00000  Uiso   1.00
C14    C     0.72886   0.88022   0.86879   0.00000  Uiso   1.00
C15    C     0.72479   0.83584   0.80384   0.00000  Uiso   1.00
C16    C     0.64799   0.79234   0.80048   0.00000  Uiso   1.00
C17    C     0.65832   0.75615   0.73618   0.00000  Uiso   1.00
C18    C     0.71876   0.93531   0.82503   0.00000  Uiso   1.00
C19    C     0.63690   0.97545   0.83951   0.00000  Uiso   1.00
C20    C     0.64215   0.02300   0.79305   0.00000  Uiso   1.00
C21    C     0.84917   0.87846   0.90334   0.00000  Uiso   1.00
C22    C     0.87694   0.87081   0.98366   0.00000  Uiso   1.00
C23    C     0.99199   0.87051   0.00313   0.00000  Uiso   1.00
H24    H     0.94928   0.89883   0.71478   0.00000  Uiso   1.00
H25    H     0.88450   0.81233   0.63523   0.00000  Uiso   1.00
H26    H     0.87342   0.99541   0.67426   0.00000  Uiso   1.00
H27    H     0.11343   0.89078   0.81839   0.00000  Uiso   1.00
H28    H     0.77556   0.71330   0.57296   0.00000  Uiso   1.00
H29    H     0.75221   0.09934   0.65527   0.00000  Uiso   1.00
H30    H     0.25832   0.87872   0.95918   0.00000  Uiso   1.00
H31    H     0.66335   0.87469   0.91457   0.00000  Uiso   1.00
H32    H     0.58288   0.78685   0.84599   0.00000  Uiso   1.00
H33    H     0.57180   0.96994   0.88502   0.00000  Uiso   1.00
H34    H     0.81181   0.86531   0.02914   0.00000  Uiso   1.00
H35    H     0.53075   0.69262   0.74401   0.00000  Uiso   1.00
H36    H     0.50740   0.07867   0.82633   0.00000  Uiso   1.00
H37    H     0.01351   0.85805   0.13024   0.00000  Uiso   1.00
O38    O     0.60536   0.64563   0.60976   0.00000  Uiso   1.00
O39    O     0.57474   0.15211   0.71776   0.00000  Uiso   1.00
O40    O     0.23874   0.86266   0.11647   0.00000  Uiso   1.00
N41    N     0.72900   0.72048   0.62264   0.00000  Uiso   1.00
N42    N     0.70716   0.08141   0.69959   0.00000  Uiso   1.00
N43    N     0.18033   0.87516   0.98372   0.00000  Uiso   1.00
N44    N     0.59727   0.70936   0.71468   0.00000  Uiso   1.00
N45    N     0.57543   0.07028   0.79163   0.00000  Uiso   1.00
N46    N     0.04860   0.86403   0.07576   0.00000  Uiso   1.00
C47    C     0.61623   0.10670   0.26055   0.00000  Uiso   1.00
C48    C     0.69106   0.15705   0.24504   0.00000  Uiso   1.00
C49    C     0.68062   0.19319   0.18073   0.00000  Uiso   1.00
C50    C     0.75739   0.23673   0.17727   0.00000  Uiso   1.00
C51    C     0.86082   0.31382   0.14423   0.00000  Uiso   1.00
C52    C     0.69710   0.05758   0.26624   0.00000  Uiso   1.00
C53    C     0.69171   0.01008   0.21975   0.00000  Uiso   1.00
C54    C     0.77355   0.96989   0.23416   0.00000  Uiso   1.00
C55    C     0.88631   0.89252   0.23406   0.00000  Uiso   1.00
C56    C     0.56669   0.11443   0.34454   0.00000  Uiso   1.00
C57    C     0.45166   0.11472   0.36390   0.00000  Uiso   1.00
C58    C     0.42371   0.12238   0.44423   0.00000  Uiso   1.00
C59    C     0.33399   0.13328   0.56571   0.00000  Uiso   1.00
C60    C     0.77114   0.11978   0.36879   0.00000  Uiso   1.00
C61    C     0.77521   0.16416   0.30384   0.00000  Uiso   1.00
C62    C     0.85201   0.20766   0.30048   0.00000  Uiso   1.00
C63    C     0.84168   0.24385   0.23618   0.00000  Uiso   1.00
C64    C     0.78124   0.06469   0.32503   0.00000  Uiso   1.00
C65    C     0.86310   0.02455   0.33951   0.00000  Uiso   1.00
C66    C     0.85785   0.97700   0.29305   0.00000  Uiso   1.00
C67    C     0.65083   0.12154   0.40334   0.00000  Uiso   1.00
C68    C     0.62306   0.12919   0.48366   0.00000  Uiso   1.00
C69    C     0.50801   0.12949   0.50313   0.00000  Uiso   1.00
H70    H     0.55072   0.10117   0.21478   0.00000  Uiso   1.00
H71    H     0.61550   0.18767   0.13523   0.00000  Uiso   1.00
H72    H     0.62658   0.00459   0.17426   0.00000  Uiso   1.00
H73    H     0.38657   0.10922   0.31839   0.00000  Uiso   1.00
H74    H     0.72444   0.28670   0.07296   0.00000  Uiso   1.00
H75    H     0.74779   0.90066   0.15527   0.00000  Uiso   1.00
H76    H     0.24168   0.12128   0.45918   0.00000  Uiso   1.00
H77    H     0.83665   0.12531   0.41457   0.00000  Uiso   1.00
H78    H     0.91712   0.21315   0.34599   0.00000  Uiso   1.00
H79    H     0.92820   0.03006   0.38502   0.00000  Uiso   1.00
H80    H     0.68819   0.13469   0.52914   0.00000  Uiso   1.00
H81    H     0.96925   0.30738   0.24401   0.00000  Uiso   1.00
H82    H     0.99260   0.92133   0.32633   0.00000  Uiso   1.00
H83    H     0.48649   0.14195   0.63024   0.00000  Uiso   1.00
O84    O     0.89464   0.35437   0.10976   0.00000  Uiso   1.00
O85    O     0.92526   0.84789   0.21776   0.00000  Uiso   1.00
O86    O     0.26126   0.13734   0.61647   0.00000  Uiso   1.00
N87    N     0.77100   0.27952   0.12264   0.00000  Uiso   1.00
N88    N     0.79284   0.91859   0.19959   0.00000  Uiso   1.00
N89    N     0.31967   0.12484   0.48372   0.00000  Uiso   1.00
N90    N     0.90273   0.29064   0.21468   0.00000  Uiso   1.00
N91    N     0.92457   0.92972   0.29163   0.00000  Uiso   1.00
N92    N     0.45140   0.13597   0.57576   0.00000  Uiso   1.00
C93    C     0.11623   0.39330   0.73945   0.00000  Uiso   1.00
C94    C     0.19106   0.34295   0.75496   0.00000  Uiso   1.00
C95    C     0.18062   0.30681   0.81927   0.00000  Uiso   1.00
C96    C     0.25739   0.26327   0.82273   0.00000  Uiso   1.00
C97    C     0.36082   0.18618   0.85577   0.00000  Uiso   1.00
C98    C     0.19710   0.44242   0.73376   0.00000  Uiso   1.00
C99    C     0.19171   0.48992   0.78025   0.00000  Uiso   1.00
C100   C     0.27355   0.53011   0.76584   0.00000  Uiso   1.00
C101   C     0.38631   0.60748   0.76594   0.00000  Uiso   1.00
C102   C     0.06669   0.38557   0.65546   0.00000  Uiso   1.00
C103   C     0.95166   0.38528   0.63610   0.00000  Uiso   1.00
C104   C     0.92371   0.37762   0.55577   0.00000  Uiso   1.00
C105   C     0.83399   0.36672   0.43429   0.00000  Uiso   1.00
C106   C     0.27114   0.38022   0.63121   0.00000  Uiso   1.00
C107   C     0.27521   0.33584   0.69616   0.00000  Uiso   1.00
C108   C     0.35201   0.29234   0.69952   0.00000  Uiso   1.00
C109   C     0.34168   0.25615   0.76382   0.00000  Uiso   1.00
C110   C     0.28124   0.43531   0.67497   0.00000  Uiso   1.00
C111   C     0.36310   0.47545   0.66049   0.00000  Uiso   1.00
C112   C     0.35785   0.52300   0.70695   0.00000  Uiso   1.00
C113   C     0.15083   0.37846   0.59666   0.00000  Uiso   1.00
C114   C     0.12306   0.37081   0.51634   0.00000  Uiso   1.00
C115   C     0.00801   0.37051   0.49687   0.00000  Uiso   1.00
H116   H     0.05072   0.39883   0.78522   0.00000  Uiso   1.00
H117   H     0.11550   0.31233   0.86477   0.00000  Uiso   1.00
H118   H     0.12658   0.49541   0.82574   0.00000  Uiso   1.00
H119   H     0.88657   0.39078   0.68161   0.00000  Uiso   1.00
H120   H     0.22444   0.21330   0.92704   0.00000  Uiso   1.00
H121   H     0.24779   0.59934   0.84473   0.00000  Uiso   1.00
H122   H     0.74168   0.37872   0.54082   0.00000  Uiso   1.00
H123   H     0.33665   0.37469   0.58543   0.00000  Uiso   1.00
H124   H     0.41712   0.28685   0.65401   0.00000  Uiso   1.00
H125   H     0.42820   0.46994   0.61498   0.00000  Uiso   1.00
H126   H     0.18819   0.36531   0.47086   0.00000  Uiso   1.00
H127   H     0.46925   0.19262   0.75599   0.00000  Uiso   1.00
H128   H     0.49260   0.57867   0.67367   0.00000  Uiso   1.00
H129   H     0.98649   0.35805   0.36976   0.00000  Uiso   1.00
O130   O     0.39464   0.14563   0.89024   0.00000  Uiso   1.00
O131   O     0.42526   0.65211   0.78224   0.00000  Uiso   1.00
O132   O     0.76126   0.36266   0.38353   0.00000  Uiso   1.00
N133   N     0.27100   0.22048   0.87736   0.00000  Uiso   1.00
N134   N     0.29284   0.58141   0.80041   0.00000  Uiso   1.00
N135   N     0.81967   0.37516   0.51628   0.00000  Uiso   1.00
N136   N     0.40273   0.20936   0.78532   0.00000  Uiso   1.00
N137   N     0.42457   0.57028   0.70837   0.00000  Uiso   1.00
N138   N     0.95140   0.36403   0.42424   0.00000  Uiso   1.00
C139   C     0.38377   0.60670   0.23945   0.00000  Uiso   1.00
C140   C     0.30894   0.65705   0.25496   0.00000  Uiso   1.00
C141   C     0.31938   0.69319   0.31927   0.00000  Uiso   1.00
C142   C     0.24261   0.73673   0.32273   0.00000  Uiso   1.00
C143   C     0.13918   0.81382   0.35577   0.00000  Uiso   1.00
C144   C     0.30290   0.55758   0.23376   0.00000  Uiso   1.00
C145   C     0.30829   0.51008   0.28025   0.00000  Uiso   1.00
C146   C     0.22645   0.46989   0.26584   0.00000  Uiso   1.00
C147   C     0.11369   0.39252   0.26594   0.00000  Uiso   1.00
C148   C     0.43331   0.61443   0.15546   0.00000  Uiso   1.00
C149   C     0.54834   0.61472   0.13610   0.00000  Uiso   1.00
C150   C     0.57629   0.62238   0.05577   0.00000  Uiso   1.00
C151   C     0.66601   0.63328   0.93429   0.00000  Uiso   1.00
C152   C     0.22886   0.61978   0.13121   0.00000  Uiso   1.00
C153   C     0.22479   0.66416   0.19616   0.00000  Uiso   1.00
C154   C     0.14799   0.70766   0.19952   0.00000  Uiso   1.00
C155   C     0.15832   0.74385   0.26382   0.00000  Uiso   1.00
C156   C     0.21876   0.56469   0.17497   0.00000  Uiso   1.00
C157   C     0.13690   0.52455   0.16049   0.00000  Uiso   1.00
C158   C     0.14215   0.47700   0.20695   0.00000  Uiso   1.00
C159   C     0.34917   0.62154   0.09666   0.00000  Uiso   1.00
C160   C     0.37694   0.62919   0.01634   0.00000  Uiso   1.00
C161   C     0.49199   0.62949   0.99687   0.00000  Uiso   1.00
H162   H     0.44928   0.60117   0.28522   0.00000  Uiso   1.00
H163   H     0.38450   0.68767   0.36477   0.00000  Uiso   1.00
H164   H     0.37342   0.50459   0.32574   0.00000  Uiso   1.00
H165   H     0.61343   0.60922   0.18161   0.00000  Uiso   1.00
H166   H     0.27556   0.78670   0.42704   0.00000  Uiso   1.00
H167   H     0.25221   0.40066   0.34473   0.00000  Uiso   1.00
H168   H     0.75832   0.62128   0.04082   0.00000  Uiso   1.00
H169   H     0.16335   0.62531   0.08543   0.00000  Uiso   1.00
H170   H     0.08288   0.71315   0.15401   0.00000  Uiso   1.00
H171   H     0.07180   0.53006   0.11498   0.00000  Uiso   1.00
H172   H     0.31181   0.63469   0.97086   0.00000  Uiso   1.00
H173   H     0.03075   0.80738   0.25599   0.00000  Uiso   1.00
H174   H     0.00740   0.42133   0.17367   0.00000  Uiso   1.00
H175   H     0.51351   0.64195   0.86976   0.00000  Uiso   1.00
O176   O     0.10536   0.85437   0.39024   0.00000  Uiso   1.00
O177   O     0.07474   0.34789   0.28224   0.00000  Uiso   1.00
O178   O     0.73874   0.63734   0.88353   0.00000  Uiso   1.00
N179   N     0.22900   0.77952   0.37736   0.00000  Uiso   1.00
N180   N     0.20716   0.41859   0.30041   0.00000  Uiso   1.00
N181   N     0.68033   0.62484   0.01628   0.00000  Uiso   1.00
N182   N     0.09727   0.79064   0.28532   0.00000  Uiso   1.00
N183   N     0.07543   0.42972   0.20837   0.00000  Uiso   1.00
N184   N     0.54860   0.63597   0.92424   0.00000  Uiso   1.00
C185   C     0.11623   0.10670   0.23945   0.00000  Uiso   1.00
C186   C     0.19106   0.15705   0.25496   0.00000  Uiso   1.00
C187   C     0.18062   0.19319   0.31927   0.00000  Uiso   1.00
C188   C     0.25739   0.23673   0.32273   0.00000  Uiso   1.00
C189   C     0.36082   0.31382   0.35577   0.00000  Uiso   1.00
C190   C     0.19710   0.05758   0.23376   0.00000  Uiso   1.00
C191   C     0.19171   0.01008   0.28025   0.00000  Uiso   1.00
C192   C     0.27355   0.96989   0.26584   0.00000  Uiso   1.00
C193   C     0.38631   0.89252   0.26594   0.00000  Uiso   1.00
C194   C     0.06669   0.11443   0.15546   0.00000  Uiso   1.00
C195   C     0.95166   0.11472   0.13610   0.00000  Uiso   1.00
C196   C     0.92371   0.12238   0.05577   0.00000  Uiso   1.00
C197   C     0.83399   0.13328   0.93429   0.00000  Uiso   1.00
C198   C     0.27114   0.11978   0.13121   0.00000  Uiso   1.00
C199   C     0.27521   0.16416   0.19616   0.00000  Uiso   1.00
C200   C     0.35201   0.20766   0.19952   0.00000  Uiso   1.00
C201   C     0.34168   0.24385   0.26382   0.00000  Uiso   1.00
C202   C     0.28124   0.06469   0.17497   0.00000  Uiso   1.00
C203   C     0.36310   0.02455   0.16049   0.00000  Uiso   1.00
C204   C     0.35785   0.97700   0.20695   0.00000  Uiso   1.00
C205   C     0.15083   0.12154   0.09666   0.00000  Uiso   1.00
C206   C     0.12306   0.12919   0.01634   0.00000  Uiso   1.00
C207   C     0.00801   0.12949   0.99687   0.00000  Uiso   1.00
H208   H     0.05072   0.10117   0.28522   0.00000  Uiso   1.00
H209   H     0.11550   0.18767   0.36477   0.00000  Uiso   1.00
H210   H     0.12658   0.00459   0.32574   0.00000  Uiso   1.00
H211   H     0.88657   0.10922   0.18161   0.00000  Uiso   1.00
H212   H     0.22444   0.28670   0.42704   0.00000  Uiso   1.00
H213   H     0.24779   0.90066   0.34473   0.00000  Uiso   1.00
H214   H     0.74168   0.12128   0.04082   0.00000  Uiso   1.00
H215   H     0.33665   0.12531   0.08543   0.00000  Uiso   1.00
H216   H     0.41712   0.21315   0.15401   0.00000  Uiso   1.00
H217   H     0.42820   0.03006   0.11498   0.00000  Uiso   1.00
H218   H     0.18819   0.13469   0.97086   0.00000  Uiso   1.00
H219   H     0.46925   0.30738   0.25599   0.00000  Uiso   1.00
H220   H     0.49260   0.92133   0.17367   0.00000  Uiso   1.00
H221   H     0.98649   0.14195   0.86976   0.00000  Uiso   1.00
O222   O     0.39464   0.35437   0.39024   0.00000  Uiso   1.00
O223   O     0.42526   0.84789   0.28224   0.00000  Uiso   1.00
O224   O     0.76126   0.13734   0.88353   0.00000  Uiso   1.00
N225   N     0.27100   0.27952   0.37736   0.00000  Uiso   1.00
N226   N     0.29284   0.91859   0.30041   0.00000  Uiso   1.00
N227   N     0.81967   0.12484   0.01628   0.00000  Uiso   1.00
N228   N     0.40273   0.29064   0.28532   0.00000  Uiso   1.00
N229   N     0.42457   0.92972   0.20837   0.00000  Uiso   1.00
N230   N     0.95140   0.13597   0.92424   0.00000  Uiso   1.00
C231   C     0.38377   0.89330   0.73945   0.00000  Uiso   1.00
C232   C     0.30894   0.84295   0.75496   0.00000  Uiso   1.00
C233   C     0.31938   0.80681   0.81927   0.00000  Uiso   1.00
C234   C     0.24261   0.76327   0.82273   0.00000  Uiso   1.00
C235   C     0.13918   0.68618   0.85577   0.00000  Uiso   1.00
C236   C     0.30290   0.94242   0.73376   0.00000  Uiso   1.00
C237   C     0.30829   0.98992   0.78025   0.00000  Uiso   1.00
C238   C     0.22645   0.03011   0.76584   0.00000  Uiso   1.00
C239   C     0.11369   0.10748   0.76594   0.00000  Uiso   1.00
C240   C     0.43331   0.88557   0.65546   0.00000  Uiso   1.00
C241   C     0.54834   0.88528   0.63610   0.00000  Uiso   1.00
C242   C     0.57629   0.87762   0.55577   0.00000  Uiso   1.00
C243   C     0.66601   0.86672   0.43429   0.00000  Uiso   1.00
C244   C     0.22886   0.88022   0.63121   0.00000  Uiso   1.00
C245   C     0.22479   0.83584   0.69616   0.00000  Uiso   1.00
C246   C     0.14799   0.79234   0.69952   0.00000  Uiso   1.00
C247   C     0.15832   0.75615   0.76382   0.00000  Uiso   1.00
C248   C     0.21876   0.93531   0.67497   0.00000  Uiso   1.00
C249   C     0.13690   0.97545   0.66049   0.00000  Uiso   1.00
C250   C     0.14215   0.02300   0.70695   0.00000  Uiso   1.00
C251   C     0.34917   0.87846   0.59666   0.00000  Uiso   1.00
C252   C     0.37694   0.87081   0.51634   0.00000  Uiso   1.00
C253   C     0.49199   0.87051   0.49687   0.00000  Uiso   1.00
H254   H     0.44928   0.89883   0.78522   0.00000  Uiso   1.00
H255   H     0.38450   0.81233   0.86477   0.00000  Uiso   1.00
H256   H     0.37342   0.99541   0.82574   0.00000  Uiso   1.00
H257   H     0.61343   0.89078   0.68161   0.00000  Uiso   1.00
H258   H     0.27556   0.71330   0.92704   0.00000  Uiso   1.00
H259   H     0.25221   0.09934   0.84473   0.00000  Uiso   1.00
H260   H     0.75832   0.87872   0.54082   0.00000  Uiso   1.00
H261   H     0.16335   0.87469   0.58543   0.00000  Uiso   1.00
H262   H     0.08288   0.78685   0.65401   0.00000  Uiso   1.00
H263   H     0.07180   0.96994   0.61498   0.00000  Uiso   1.00
H264   H     0.31181   0.86531   0.47086   0.00000  Uiso   1.00
H265   H     0.03075   0.69262   0.75599   0.00000  Uiso   1.00
H266   H     0.00740   0.07867   0.67367   0.00000  Uiso   1.00
H267   H     0.51351   0.85805   0.36976   0.00000  Uiso   1.00
O268   O     0.10536   0.64563   0.89024   0.00000  Uiso   1.00
O269   O     0.07474   0.15211   0.78224   0.00000  Uiso   1.00
O270   O     0.73874   0.86266   0.38353   0.00000  Uiso   1.00
N271   N     0.22900   0.72048   0.87736   0.00000  Uiso   1.00
N272   N     0.20716   0.08141   0.80041   0.00000  Uiso   1.00
N273   N     0.68033   0.87516   0.51628   0.00000  Uiso   1.00
N274   N     0.09727   0.70936   0.78532   0.00000  Uiso   1.00
N275   N     0.07543   0.07028   0.70837   0.00000  Uiso   1.00
N276   N     0.54860   0.86403   0.42424   0.00000  Uiso   1.00
C277   C     0.88377   0.60670   0.26055   0.00000  Uiso   1.00
C278   C     0.80894   0.65705   0.24504   0.00000  Uiso   1.00
C279   C     0.81938   0.69319   0.18073   0.00000  Uiso   1.00
C280   C     0.74261   0.73673   0.17727   0.00000  Uiso   1.00
C281   C     0.63918   0.81382   0.14423   0.00000  Uiso   1.00
C282   C     0.80290   0.55758   0.26624   0.00000  Uiso   1.00
C283   C     0.80829   0.51008   0.21975   0.00000  Uiso   1.00
C284   C     0.72645   0.46989   0.23416   0.00000  Uiso   1.00
C285   C     0.61369   0.39252   0.23406   0.00000  Uiso   1.00
C286   C     0.93331   0.61443   0.34454   0.00000  Uiso   1.00
C287   C     0.04834   0.61472   0.36390   0.00000  Uiso   1.00
C288   C     0.07629   0.62238   0.44423   0.00000  Uiso   1.00
C289   C     0.16601   0.63328   0.56571   0.00000  Uiso   1.00
C290   C     0.72886   0.61978   0.36879   0.00000  Uiso   1.00
C291   C     0.72479   0.66416   0.30384   0.00000  Uiso   1.00
C292   C     0.64799   0.70766   0.30048   0.00000  Uiso   1.00
C293   C     0.65832   0.74385   0.23618   0.00000  Uiso   1.00
C294   C     0.71876   0.56469   0.32503   0.00000  Uiso   1.00
C295   C     0.63690   0.52455   0.33951   0.00000  Uiso   1.00
C296   C     0.64215   0.47700   0.29305   0.00000  Uiso   1.00
C297   C     0.84917   0.62154   0.40334   0.00000  Uiso   1.00
C298   C     0.87694   0.62919   0.48366   0.00000  Uiso   1.00
C299   C     0.99199   0.62949   0.50313   0.00000  Uiso   1.00
H300   H     0.94928   0.60117   0.21478   0.00000  Uiso   1.00
H301   H     0.88450   0.68767   0.13523   0.00000  Uiso   1.00
H302   H     0.87342   0.50459   0.17426   0.00000  Uiso   1.00
H303   H     0.11343   0.60922   0.31839   0.00000  Uiso   1.00
H304   H     0.77556   0.78670   0.07296   0.00000  Uiso   1.00
H305   H     0.75221   0.40066   0.15527   0.00000  Uiso   1.00
H306   H     0.25832   0.62128   0.45918   0.00000  Uiso   1.00
H307   H     0.66335   0.62531   0.41457   0.00000  Uiso   1.00
H308   H     0.58288   0.71315   0.34599   0.00000  Uiso   1.00
H309   H     0.57180   0.53006   0.38502   0.00000  Uiso   1.00
H310   H     0.81181   0.63469   0.52914   0.00000  Uiso   1.00
H311   H     0.53075   0.80738   0.24401   0.00000  Uiso   1.00
H312   H     0.50740   0.42133   0.32633   0.00000  Uiso   1.00
H313   H     0.01351   0.64195   0.63024   0.00000  Uiso   1.00
O314   O     0.60536   0.85437   0.10976   0.00000  Uiso   1.00
O315   O     0.57474   0.34789   0.21776   0.00000  Uiso   1.00
O316   O     0.23874   0.63734   0.61647   0.00000  Uiso   1.00
N317   N     0.72900   0.77952   0.12264   0.00000  Uiso   1.00
N318   N     0.70716   0.41859   0.19959   0.00000  Uiso   1.00
N319   N     0.18033   0.62484   0.48372   0.00000  Uiso   1.00
N320   N     0.59727   0.79064   0.21468   0.00000  Uiso   1.00
N321   N     0.57543   0.42972   0.29163   0.00000  Uiso   1.00
N322   N     0.04860   0.63597   0.57576   0.00000  Uiso   1.00
C323   C     0.61623   0.39330   0.76055   0.00000  Uiso   1.00
C324   C     0.69106   0.34295   0.74504   0.00000  Uiso   1.00
C325   C     0.68062   0.30681   0.68073   0.00000  Uiso   1.00
C326   C     0.75739   0.26327   0.67727   0.00000  Uiso   1.00
C327   C     0.86082   0.18618   0.64423   0.00000  Uiso   1.00
C328   C     0.69710   0.44242   0.76624   0.00000  Uiso   1.00
C329   C     0.69171   0.48992   0.71975   0.00000  Uiso   1.00
C330   C     0.77355   0.53011   0.73416   0.00000  Uiso   1.00
C331   C     0.88631   0.60748   0.73406   0.00000  Uiso   1.00
C332   C     0.56669   0.38557   0.84454   0.00000  Uiso   1.00
C333   C     0.45166   0.38528   0.86390   0.00000  Uiso   1.00
C334   C     0.42371   0.37762   0.94423   0.00000  Uiso   1.00
C335   C     0.33399   0.36672   0.06571   0.00000  Uiso   1.00
C336   C     0.77114   0.38022   0.86879   0.00000  Uiso   1.00
C337   C     0.77521   0.33584   0.80384   0.00000  Uiso   1.00
C338   C     0.85201   0.29234   0.80048   0.00000  Uiso   1.00
C339   C     0.84168   0.25615   0.73618   0.00000  Uiso   1.00
C340   C     0.78124   0.43531   0.82503   0.00000  Uiso   1.00
C341   C     0.86310   0.47545   0.83951   0.00000  Uiso   1.00
C342   C     0.85785   0.52300   0.79305   0.00000  Uiso   1.00
C343   C     0.65083   0.37846   0.90334   0.00000  Uiso   1.00
C344   C     0.62306   0.37081   0.98366   0.00000  Uiso   1.00
C345   C     0.50801   0.37051   0.00313   0.00000  Uiso   1.00
H346   H     0.55072   0.39883   0.71478   0.00000  Uiso   1.00
H347   H     0.61550   0.31233   0.63523   0.00000  Uiso   1.00
H348   H     0.62658   0.49541   0.67426   0.00000  Uiso   1.00
H349   H     0.38657   0.39078   0.81839   0.00000  Uiso   1.00
H350   H     0.72444   0.21330   0.57296   0.00000  Uiso   1.00
H351   H     0.74779   0.59934   0.65527   0.00000  Uiso   1.00
H352   H     0.24168   0.37872   0.95918   0.00000  Uiso   1.00
H353   H     0.83665   0.37469   0.91457   0.00000  Uiso   1.00
H354   H     0.91712   0.28685   0.84599   0.00000  Uiso   1.00
H355   H     0.92820   0.46994   0.88502   0.00000  Uiso   1.00
H356   H     0.68819   0.36531   0.02914   0.00000  Uiso   1.00
H357   H     0.96925   0.19262   0.74401   0.00000  Uiso   1.00
H358   H     0.99260   0.57867   0.82633   0.00000  Uiso   1.00
H359   H     0.48649   0.35805   0.13024   0.00000  Uiso   1.00
O360   O     0.89464   0.14563   0.60976   0.00000  Uiso   1.00
O361   O     0.92526   0.65211   0.71776   0.00000  Uiso   1.00
O362   O     0.26126   0.36266   0.11647   0.00000  Uiso   1.00
N363   N     0.77100   0.22048   0.62264   0.00000  Uiso   1.00
N364   N     0.79284   0.58141   0.69959   0.00000  Uiso   1.00
N365   N     0.31967   0.37516   0.98372   0.00000  Uiso   1.00
N366   N     0.90273   0.20936   0.71468   0.00000  Uiso   1.00
N367   N     0.92457   0.57028   0.79163   0.00000  Uiso   1.00
N368   N     0.45140   0.36403   0.07576   0.00000  Uiso   1.00
