data_job_03915
_audit_creation_date              2018-12-19
_audit_creation_method            'Materials Studio'
_symmetry_space_group_name_H-M    'P1'
_symmetry_Int_Tables_number       1
_symmetry_cell_setting            triclinic
loop_
_symmetry_equiv_pos_as_xyz
  x,y,z
_cell_length_a                    17.5498
_cell_length_b                    16.2169
_cell_length_c                    12.6332
_cell_angle_alpha                 90.0000
_cell_angle_beta                  90.0000
_cell_angle_gamma                 90.0000
loop_
_atom_site_label
_atom_site_type_symbol
_atom_site_fract_x
_atom_site_fract_y
_atom_site_fract_z
_atom_site_U_iso_or_equiv
_atom_site_adp_type
_atom_site_occupancy
C1     C     0.83987   0.50813   0.42246   0.00000  Uiso   1.00
C2     C     0.87564   0.47429   0.52352   0.00000  Uiso   1.00
C3     C     0.84866   0.40800   0.58202   0.00000  Uiso   1.00
C4     C     0.88947   0.38662   0.67207   0.00000  Uiso   1.00
C5     C     0.93504   0.32750   0.82440   0.00000  Uiso   1.00
C6     C     0.82418   0.59914   0.44357   0.00000  Uiso   1.00
C7     C     0.75393   0.63783   0.43483   0.00000  Uiso   1.00
C8     C     0.75143   0.72155   0.45757   0.00000  Uiso   1.00
C9     C     0.71712   0.85629   0.48570   0.00000  Uiso   1.00
C10    C     0.90233   0.50570   0.33861   0.00000  Uiso   1.00
C11    C     0.89777   0.46585   0.24160   0.00000  Uiso   1.00
C12    C     0.96105   0.47091   0.17595   0.00000  Uiso   1.00
C13    C     0.04807   0.46056   0.04112   0.00000  Uiso   1.00
C14    C     0.96034   0.58801   0.47837   0.00000  Uiso   1.00
C15    C     0.94108   0.51768   0.55389   0.00000  Uiso   1.00
C16    C     0.98195   0.49639   0.64388   0.00000  Uiso   1.00
C17    C     0.95502   0.43008   0.70249   0.00000  Uiso   1.00
C18    C     0.88962   0.64253   0.47394   0.00000  Uiso   1.00
C19    C     0.88722   0.72622   0.49669   0.00000  Uiso   1.00
C20    C     0.81698   0.76503   0.48799   0.00000  Uiso   1.00
C21    C     0.96777   0.54909   0.36897   0.00000  Uiso   1.00
C22    C     0.03106   0.55423   0.30346   0.00000  Uiso   1.00
C23    C     0.02660   0.51438   0.20638   0.00000  Uiso   1.00
H24    H     0.78892   0.47435   0.39882   0.00000  Uiso   1.00
H25    H     0.79801   0.37444   0.55849   0.00000  Uiso   1.00
H26    H     0.70330   0.60424   0.41132   0.00000  Uiso   1.00
H27    H     0.84712   0.43227   0.21812   0.00000  Uiso   1.00
H28    H     0.83693   0.28284   0.74894   0.00000  Uiso   1.00
H29    H     0.63724   0.76738   0.43857   0.00000  Uiso   1.00
H30    H     0.94051   0.40476   0.03119   0.00000  Uiso   1.00
H31    H     0.01129   0.62180   0.50201   0.00000  Uiso   1.00
H32    H     0.03258   0.52998   0.66736   0.00000  Uiso   1.00
H33    H     0.93787   0.75978   0.52018   0.00000  Uiso   1.00
H34    H     0.08169   0.58781   0.32699   0.00000  Uiso   1.00
H35    H     0.02731   0.40908   0.83730   0.00000  Uiso   1.00
H36    H     0.82762   0.89362   0.52693   0.00000  Uiso   1.00
H37    H     0.13089   0.53100   0.11955   0.00000  Uiso   1.00
O38    O     0.94210   0.28291   0.90005   0.00000  Uiso   1.00
O39    O     0.68012   0.91861   0.49284   0.00000  Uiso   1.00
O40    O     0.07800   0.44286   0.95836   0.00000  Uiso   1.00
N41    N     0.87882   0.32514   0.74703   0.00000  Uiso   1.00
N42    N     0.69212   0.77815   0.45688   0.00000  Uiso   1.00
N43    N     0.97564   0.43915   0.07599   0.00000  Uiso   1.00
N44    N     0.98127   0.39306   0.79458   0.00000  Uiso   1.00
N45    N     0.79457   0.84608   0.50442   0.00000  Uiso   1.00
N46    N     0.07809   0.50708   0.12354   0.00000  Uiso   1.00
C47    C     0.66013   0.49187   0.92246   0.00000  Uiso   1.00
C48    C     0.62436   0.52571   0.02352   0.00000  Uiso   1.00
C49    C     0.65134   0.59200   0.08202   0.00000  Uiso   1.00
C50    C     0.61053   0.61338   0.17207   0.00000  Uiso   1.00
C51    C     0.56496   0.67250   0.32440   0.00000  Uiso   1.00
C52    C     0.67582   0.40086   0.94357   0.00000  Uiso   1.00
C53    C     0.74607   0.36217   0.93483   0.00000  Uiso   1.00
C54    C     0.74857   0.27845   0.95757   0.00000  Uiso   1.00
C55    C     0.78288   0.14371   0.98570   0.00000  Uiso   1.00
C56    C     0.59767   0.49430   0.83861   0.00000  Uiso   1.00
C57    C     0.60223   0.53415   0.74160   0.00000  Uiso   1.00
C58    C     0.53895   0.52909   0.67595   0.00000  Uiso   1.00
C59    C     0.45193   0.53944   0.54112   0.00000  Uiso   1.00
C60    C     0.53966   0.41199   0.97837   0.00000  Uiso   1.00
C61    C     0.55892   0.48232   0.05389   0.00000  Uiso   1.00
C62    C     0.51805   0.50361   0.14388   0.00000  Uiso   1.00
C63    C     0.54498   0.56992   0.20249   0.00000  Uiso   1.00
C64    C     0.61038   0.35747   0.97394   0.00000  Uiso   1.00
C65    C     0.61278   0.27378   0.99669   0.00000  Uiso   1.00
C66    C     0.68302   0.23497   0.98799   0.00000  Uiso   1.00
C67    C     0.53223   0.45091   0.86897   0.00000  Uiso   1.00
C68    C     0.46894   0.44577   0.80346   0.00000  Uiso   1.00
C69    C     0.47340   0.48562   0.70638   0.00000  Uiso   1.00
H70    H     0.71108   0.52565   0.89882   0.00000  Uiso   1.00
H71    H     0.70199   0.62556   0.05849   0.00000  Uiso   1.00
H72    H     0.79670   0.39576   0.91132   0.00000  Uiso   1.00
H73    H     0.65288   0.56773   0.71812   0.00000  Uiso   1.00
H74    H     0.66307   0.71716   0.24894   0.00000  Uiso   1.00
H75    H     0.86276   0.23262   0.93857   0.00000  Uiso   1.00
H76    H     0.55949   0.59524   0.53119   0.00000  Uiso   1.00
H77    H     0.48871   0.37820   0.00201   0.00000  Uiso   1.00
H78    H     0.46742   0.47002   0.16736   0.00000  Uiso   1.00
H79    H     0.56213   0.24022   0.02018   0.00000  Uiso   1.00
H80    H     0.41831   0.41219   0.82699   0.00000  Uiso   1.00
H81    H     0.47269   0.59092   0.33730   0.00000  Uiso   1.00
H82    H     0.67238   0.10638   0.02693   0.00000  Uiso   1.00
H83    H     0.36911   0.46900   0.61955   0.00000  Uiso   1.00
O84    O     0.55790   0.71709   0.40005   0.00000  Uiso   1.00
O85    O     0.81988   0.08139   0.99284   0.00000  Uiso   1.00
O86    O     0.42200   0.55714   0.45836   0.00000  Uiso   1.00
N87    N     0.62118   0.67486   0.24703   0.00000  Uiso   1.00
N88    N     0.80788   0.22185   0.95688   0.00000  Uiso   1.00
N89    N     0.52436   0.56085   0.57599   0.00000  Uiso   1.00
N90    N     0.51873   0.60694   0.29458   0.00000  Uiso   1.00
N91    N     0.70543   0.15392   0.00442   0.00000  Uiso   1.00
N92    N     0.42191   0.49292   0.62354   0.00000  Uiso   1.00
C93    C     0.16013   0.00813   0.07754   0.00000  Uiso   1.00
C94    C     0.12436   0.97429   0.97648   0.00000  Uiso   1.00
C95    C     0.15134   0.90800   0.91798   0.00000  Uiso   1.00
C96    C     0.11053   0.88662   0.82793   0.00000  Uiso   1.00
C97    C     0.06496   0.82750   0.67560   0.00000  Uiso   1.00
C98    C     0.17582   0.09914   0.05643   0.00000  Uiso   1.00
C99    C     0.24607   0.13783   0.06517   0.00000  Uiso   1.00
C100   C     0.24857   0.22155   0.04243   0.00000  Uiso   1.00
C101   C     0.28288   0.35629   0.01430   0.00000  Uiso   1.00
C102   C     0.09767   0.00570   0.16139   0.00000  Uiso   1.00
C103   C     0.10223   0.96585   0.25840   0.00000  Uiso   1.00
C104   C     0.03895   0.97091   0.32405   0.00000  Uiso   1.00
C105   C     0.95193   0.96056   0.45888   0.00000  Uiso   1.00
C106   C     0.03966   0.08801   0.02163   0.00000  Uiso   1.00
C107   C     0.05892   0.01768   0.94611   0.00000  Uiso   1.00
C108   C     0.01805   0.99639   0.85612   0.00000  Uiso   1.00
C109   C     0.04498   0.93008   0.79751   0.00000  Uiso   1.00
C110   C     0.11038   0.14253   0.02606   0.00000  Uiso   1.00
C111   C     0.11278   0.22622   0.00331   0.00000  Uiso   1.00
C112   C     0.18302   0.26503   0.01201   0.00000  Uiso   1.00
C113   C     0.03223   0.04909   0.13103   0.00000  Uiso   1.00
C114   C     0.96894   0.05423   0.19654   0.00000  Uiso   1.00
C115   C     0.97340   0.01438   0.29362   0.00000  Uiso   1.00
H116   H     0.21108   0.97435   0.10118   0.00000  Uiso   1.00
H117   H     0.20199   0.87444   0.94151   0.00000  Uiso   1.00
H118   H     0.29670   0.10424   0.08868   0.00000  Uiso   1.00
H119   H     0.15288   0.93227   0.28188   0.00000  Uiso   1.00
H120   H     0.16307   0.78284   0.75106   0.00000  Uiso   1.00
H121   H     0.36276   0.26738   0.06143   0.00000  Uiso   1.00
H122   H     0.05949   0.90476   0.46881   0.00000  Uiso   1.00
H123   H     0.98871   0.12180   0.99799   0.00000  Uiso   1.00
H124   H     0.96742   0.02998   0.83264   0.00000  Uiso   1.00
H125   H     0.06213   0.25978   0.97982   0.00000  Uiso   1.00
H126   H     0.91831   0.08781   0.17301   0.00000  Uiso   1.00
H127   H     0.97269   0.90908   0.66270   0.00000  Uiso   1.00
H128   H     0.17238   0.39362   0.97307   0.00000  Uiso   1.00
H129   H     0.86911   0.03100   0.38045   0.00000  Uiso   1.00
O130   O     0.05790   0.78291   0.59995   0.00000  Uiso   1.00
O131   O     0.31988   0.41861   0.00716   0.00000  Uiso   1.00
O132   O     0.92200   0.94286   0.54164   0.00000  Uiso   1.00
N133   N     0.12118   0.82514   0.75297   0.00000  Uiso   1.00
N134   N     0.30788   0.27815   0.04312   0.00000  Uiso   1.00
N135   N     0.02436   0.93915   0.42401   0.00000  Uiso   1.00
N136   N     0.01873   0.89306   0.70542   0.00000  Uiso   1.00
N137   N     0.20543   0.34608   0.99558   0.00000  Uiso   1.00
N138   N     0.92191   0.00708   0.37646   0.00000  Uiso   1.00
C139   C     0.33987   0.99187   0.57754   0.00000  Uiso   1.00
C140   C     0.37564   0.02571   0.47648   0.00000  Uiso   1.00
C141   C     0.34866   0.09200   0.41798   0.00000  Uiso   1.00
C142   C     0.38947   0.11338   0.32793   0.00000  Uiso   1.00
C143   C     0.43504   0.17250   0.17560   0.00000  Uiso   1.00
C144   C     0.32418   0.90086   0.55643   0.00000  Uiso   1.00
C145   C     0.25393   0.86217   0.56517   0.00000  Uiso   1.00
C146   C     0.25143   0.77845   0.54243   0.00000  Uiso   1.00
C147   C     0.21712   0.64371   0.51430   0.00000  Uiso   1.00
C148   C     0.40233   0.99430   0.66139   0.00000  Uiso   1.00
C149   C     0.39777   0.03415   0.75840   0.00000  Uiso   1.00
C150   C     0.46105   0.02909   0.82405   0.00000  Uiso   1.00
C151   C     0.54807   0.03944   0.95888   0.00000  Uiso   1.00
C152   C     0.46034   0.91199   0.52163   0.00000  Uiso   1.00
C153   C     0.44108   0.98232   0.44611   0.00000  Uiso   1.00
C154   C     0.48195   0.00361   0.35612   0.00000  Uiso   1.00
C155   C     0.45502   0.06992   0.29751   0.00000  Uiso   1.00
C156   C     0.38962   0.85747   0.52606   0.00000  Uiso   1.00
C157   C     0.38722   0.77378   0.50331   0.00000  Uiso   1.00
C158   C     0.31698   0.73497   0.51201   0.00000  Uiso   1.00
C159   C     0.46777   0.95091   0.63103   0.00000  Uiso   1.00
C160   C     0.53106   0.94577   0.69654   0.00000  Uiso   1.00
C161   C     0.52660   0.98562   0.79362   0.00000  Uiso   1.00
H162   H     0.28892   0.02565   0.60118   0.00000  Uiso   1.00
H163   H     0.29801   0.12556   0.44151   0.00000  Uiso   1.00
H164   H     0.20330   0.89576   0.58868   0.00000  Uiso   1.00
H165   H     0.34712   0.06773   0.78188   0.00000  Uiso   1.00
H166   H     0.33693   0.21716   0.25106   0.00000  Uiso   1.00
H167   H     0.13724   0.73262   0.56143   0.00000  Uiso   1.00
H168   H     0.44051   0.09524   0.96881   0.00000  Uiso   1.00
H169   H     0.51129   0.87820   0.49799   0.00000  Uiso   1.00
H170   H     0.53258   0.97002   0.33264   0.00000  Uiso   1.00
H171   H     0.43787   0.74022   0.47982   0.00000  Uiso   1.00
H172   H     0.58169   0.91219   0.67301   0.00000  Uiso   1.00
H173   H     0.52731   0.09092   0.16270   0.00000  Uiso   1.00
H174   H     0.32762   0.60638   0.47307   0.00000  Uiso   1.00
H175   H     0.63089   0.96900   0.88045   0.00000  Uiso   1.00
O176   O     0.44210   0.21709   0.09995   0.00000  Uiso   1.00
O177   O     0.18012   0.58139   0.50716   0.00000  Uiso   1.00
O178   O     0.57800   0.05714   0.04164   0.00000  Uiso   1.00
N179   N     0.37882   0.17486   0.25297   0.00000  Uiso   1.00
N180   N     0.19212   0.72185   0.54312   0.00000  Uiso   1.00
N181   N     0.47564   0.06085   0.92401   0.00000  Uiso   1.00
N182   N     0.48127   0.10694   0.20542   0.00000  Uiso   1.00
N183   N     0.29457   0.65392   0.49558   0.00000  Uiso   1.00
N184   N     0.57809   0.99292   0.87646   0.00000  Uiso   1.00
