data_job_06695
_audit_creation_date              2018-12-19
_audit_creation_method            'Materials Studio'
_symmetry_space_group_name_H-M    'P1'
_symmetry_Int_Tables_number       1
_symmetry_cell_setting            triclinic
loop_
_symmetry_equiv_pos_as_xyz
  x,y,z
_cell_length_a                    21.3110
_cell_length_b                    21.4377
_cell_length_c                    22.8157
_cell_angle_alpha                 110.6390
_cell_angle_beta                  114.9525
_cell_angle_gamma                 98.3135
loop_
_atom_site_label
_atom_site_type_symbol
_atom_site_fract_x
_atom_site_fract_y
_atom_site_fract_z
_atom_site_U_iso_or_equiv
_atom_site_adp_type
_atom_site_occupancy
C1     C     0.27328   0.94265   0.61939   0.00000  Uiso   1.00
C2     C     0.29317   0.88161   0.58098   0.00000  Uiso   1.00
C3     C     0.25668   0.83811   0.50638   0.00000  Uiso   1.00
C4     C     0.28340   0.78525   0.48198   0.00000  Uiso   1.00
C5     C     0.30498   0.69181   0.41497   0.00000  Uiso   1.00
C6     C     0.26093   0.92668   0.67451   0.00000  Uiso   1.00
C7     C     0.19733   0.92108   0.67856   0.00000  Uiso   1.00
C8     C     0.19691   0.90616   0.73290   0.00000  Uiso   1.00
C9     C     0.16845   0.88274   0.81114   0.00000  Uiso   1.00
C10    C     0.34272   0.00833   0.66388   0.00000  Uiso   1.00
C11    C     0.34788   0.07141   0.65900   0.00000  Uiso   1.00
C12    C     0.41632   0.12525   0.70440   0.00000  Uiso   1.00
C13    C     0.51485   0.22861   0.76612   0.00000  Uiso   1.00
C14    C     0.38561   0.92612   0.70871   0.00000  Uiso   1.00
C15    C     0.35419   0.87263   0.62950   0.00000  Uiso   1.00
C16    C     0.38097   0.81982   0.60520   0.00000  Uiso   1.00
C17    C     0.34452   0.77625   0.53058   0.00000  Uiso   1.00
C18    C     0.32194   0.91770   0.72303   0.00000  Uiso   1.00
C19    C     0.32162   0.90279   0.77738   0.00000  Uiso   1.00
C20    C     0.25803   0.89717   0.78151   0.00000  Uiso   1.00
C21    C     0.40373   0.99936   0.71239   0.00000  Uiso   1.00
C22    C     0.47217   0.05311   0.75782   0.00000  Uiso   1.00
C23    C     0.47744   0.11625   0.75301   0.00000  Uiso   1.00
H24    H     0.22578   0.94964   0.58162   0.00000  Uiso   1.00
H25    H     0.20946   0.84507   0.46885   0.00000  Uiso   1.00
H26    H     0.15013   0.92804   0.64101   0.00000  Uiso   1.00
H27    H     0.30066   0.07833   0.62145   0.00000  Uiso   1.00
H28    H     0.21827   0.72516   0.36523   0.00000  Uiso   1.00
H29    H     0.09316   0.90012   0.72825   0.00000  Uiso   1.00
H30    H     0.41058   0.21705   0.68700   0.00000  Uiso   1.00
H31    H     0.43312   0.91913   0.74648   0.00000  Uiso   1.00
H32    H     0.42819   0.81289   0.64276   0.00000  Uiso   1.00
H33    H     0.36885   0.89585   0.81492   0.00000  Uiso   1.00
H34    H     0.51937   0.04615   0.79536   0.00000  Uiso   1.00
H35    H     0.39579   0.69904   0.50638   0.00000  Uiso   1.00
H36    H     0.27068   0.87400   0.86940   0.00000  Uiso   1.00
H37    H     0.58810   0.19093   0.82815   0.00000  Uiso   1.00
O38    O     0.30002   0.64274   0.36460   0.00000  Uiso   1.00
O39    O     0.13590   0.87230   0.84088   0.00000  Uiso   1.00
O40    O     0.55234   0.28810   0.78676   0.00000  Uiso   1.00
N41    N     0.26073   0.73360   0.41268   0.00000  Uiso   1.00
N42    N     0.14376   0.89717   0.75208   0.00000  Uiso   1.00
N43    N     0.44052   0.19348   0.71353   0.00000  Uiso   1.00
N44    N     0.35626   0.71955   0.48863   0.00000  Uiso   1.00
N45    N     0.23929   0.88311   0.82803   0.00000  Uiso   1.00
N46    N     0.53604   0.17942   0.78948   0.00000  Uiso   1.00
C47    C     0.56486   0.35370   0.46183   0.00000  Uiso   1.00
C48    C     0.63581   0.41039   0.48753   0.00000  Uiso   1.00
C49    C     0.64748   0.48238   0.51072   0.00000  Uiso   1.00
C50    C     0.71620   0.52555   0.53205   0.00000  Uiso   1.00
C51    C     0.81799   0.61781   0.57219   0.00000  Uiso   1.00
C52    C     0.54155   0.29842   0.38557   0.00000  Uiso   1.00
C53    C     0.47395   0.27625   0.32305   0.00000  Uiso   1.00
C54    C     0.46332   0.22514   0.25855   0.00000  Uiso   1.00
C55    C     0.41874   0.14352   0.14042   0.00000  Uiso   1.00
C56    C     0.58664   0.31710   0.51006   0.00000  Uiso   1.00
C57    C     0.55695   0.31063   0.55220   0.00000  Uiso   1.00
C58    C     0.58427   0.27524   0.59250   0.00000  Uiso   1.00
C59    C     0.60971   0.22264   0.66767   0.00000  Uiso   1.00
C60    C     0.66617   0.30234   0.45845   0.00000  Uiso   1.00
C61    C     0.69084   0.38249   0.48569   0.00000  Uiso   1.00
C62    C     0.75957   0.42556   0.50698   0.00000  Uiso   1.00
C63    C     0.77133   0.49760   0.53021   0.00000  Uiso   1.00
C64    C     0.59657   0.27052   0.38373   0.00000  Uiso   1.00
C65    C     0.58604   0.21943   0.31931   0.00000  Uiso   1.00
C66    C     0.51845   0.19720   0.25671   0.00000  Uiso   1.00
C67    C     0.64167   0.28921   0.50823   0.00000  Uiso   1.00
C68    C     0.66904   0.25381   0.54846   0.00000  Uiso   1.00
C69    C     0.63940   0.24730   0.59066   0.00000  Uiso   1.00
H70    H     0.52201   0.37542   0.46325   0.00000  Uiso   1.00
H71    H     0.60488   0.50395   0.51213   0.00000  Uiso   1.00
H72    H     0.43138   0.29784   0.32449   0.00000  Uiso   1.00
H73    H     0.51436   0.33223   0.55361   0.00000  Uiso   1.00
H74    H     0.72100   0.63415   0.56548   0.00000  Uiso   1.00
H75    H     0.35516   0.19954   0.16984   0.00000  Uiso   1.00
H76    H     0.53015   0.27204   0.65298   0.00000  Uiso   1.00
H77    H     0.70901   0.28062   0.45701   0.00000  Uiso   1.00
H78    H     0.80214   0.40396   0.50555   0.00000  Uiso   1.00
H79    H     0.62863   0.19785   0.31791   0.00000  Uiso   1.00
H80    H     0.71162   0.23223   0.54703   0.00000  Uiso   1.00
H81    H     0.88111   0.55299   0.56014   0.00000  Uiso   1.00
H82    H     0.51526   0.11838   0.16450   0.00000  Uiso   1.00
H83    H     0.69025   0.19088   0.64764   0.00000  Uiso   1.00
O84    O     0.85893   0.67641   0.59483   0.00000  Uiso   1.00
O85    O     0.37895   0.10621   0.07577   0.00000  Uiso   1.00
O86    O     0.60854   0.20134   0.70964   0.00000  Uiso   1.00
N87    N     0.74591   0.59812   0.55758   0.00000  Uiso   1.00
N88    N     0.40387   0.19180   0.18767   0.00000  Uiso   1.00
N89    N     0.56746   0.25957   0.63936   0.00000  Uiso   1.00
N90    N     0.83206   0.55445   0.55471   0.00000  Uiso   1.00
N91    N     0.49002   0.14813   0.18480   0.00000  Uiso   1.00
N92    N     0.65361   0.21589   0.63648   0.00000  Uiso   1.00
C93    C     0.24169   0.52982   0.02346   0.00000  Uiso   1.00
C94    C     0.29535   0.50254   0.06832   0.00000  Uiso   1.00
C95    C     0.28046   0.46350   0.10112   0.00000  Uiso   1.00
C96    C     0.33690   0.44356   0.13981   0.00000  Uiso   1.00
C97    C     0.40977   0.39841   0.20863   0.00000  Uiso   1.00
C98    C     0.28000   0.60996   0.05961   0.00000  Uiso   1.00
C99    C     0.25218   0.66124   0.08507   0.00000  Uiso   1.00
C100   C     0.29569   0.73172   0.11643   0.00000  Uiso   1.00
C101   C     0.34470   0.85335   0.17167   0.00000  Uiso   1.00
C102   C     0.23655   0.50027   0.94960   0.00000  Uiso   1.00
C103   C     0.17220   0.45935   0.88256   0.00000  Uiso   1.00
C104   C     0.17912   0.43750   0.82128   0.00000  Uiso   1.00
C105   C     0.16067   0.38883   0.70572   0.00000  Uiso   1.00
C106   C     0.36840   0.56381   0.03386   0.00000  Uiso   1.00
C107   C     0.36418   0.52100   0.07396   0.00000  Uiso   1.00
C108   C     0.42065   0.50111   0.11262   0.00000  Uiso   1.00
C109   C     0.40584   0.46205   0.14546   0.00000  Uiso   1.00
C110   C     0.34882   0.62842   0.06525   0.00000  Uiso   1.00
C111   C     0.39237   0.69884   0.09657   0.00000  Uiso   1.00
C112   C     0.36464   0.75022   0.12208   0.00000  Uiso   1.00
C113   C     0.30537   0.51873   0.95524   0.00000  Uiso   1.00
C114   C     0.31239   0.49695   0.89406   0.00000  Uiso   1.00
C115   C     0.24807   0.45600   0.82694   0.00000  Uiso   1.00
H116   H     0.18811   0.51545   0.01907   0.00000  Uiso   1.00
H117   H     0.22719   0.44923   0.09674   0.00000  Uiso   1.00
H118   H     0.19892   0.64694   0.08069   0.00000  Uiso   1.00
H119   H     0.11895   0.44508   0.87821   0.00000  Uiso   1.00
H120   H     0.30089   0.38398   0.18536   0.00000  Uiso   1.00
H121   H     0.24126   0.80085   0.15150   0.00000  Uiso   1.00
H122   H     0.07263   0.37518   0.72453   0.00000  Uiso   1.00
H123   H     0.42198   0.57819   0.03825   0.00000  Uiso   1.00
H124   H     0.47390   0.51540   0.11697   0.00000  Uiso   1.00
H125   H     0.44563   0.71311   0.10093   0.00000  Uiso   1.00
H126   H     0.36566   0.51125   0.89845   0.00000  Uiso   1.00
H127   H     0.50113   0.43768   0.20179   0.00000  Uiso   1.00
H128   H     0.44150   0.85456   0.16792   0.00000  Uiso   1.00
H129   H     0.27287   0.42889   0.74095   0.00000  Uiso   1.00
O130   O     0.43096   0.36842   0.24504   0.00000  Uiso   1.00
O131   O     0.35272   0.91533   0.20059   0.00000  Uiso   1.00
O132   O     0.13148   0.35687   0.64042   0.00000  Uiso   1.00
N133   N     0.34089   0.40522   0.17841   0.00000  Uiso   1.00
N134   N     0.28514   0.79497   0.14676   0.00000  Uiso   1.00
N135   N     0.12748   0.39703   0.74758   0.00000  Uiso   1.00
N136   N     0.44863   0.43412   0.18725   0.00000  Uiso   1.00
N137   N     0.39289   0.82387   0.15560   0.00000  Uiso   1.00
N138   N     0.23523   0.42592   0.75642   0.00000  Uiso   1.00
C139   C     0.93447   0.07623   0.79275   0.00000  Uiso   1.00
C140   C     0.94849   0.10076   0.74285   0.00000  Uiso   1.00
C141   C     0.92352   0.15026   0.72253   0.00000  Uiso   1.00
C142   C     0.94223   0.16551   0.67648   0.00000  Uiso   1.00
C143   C     0.95763   0.20866   0.60281   0.00000  Uiso   1.00
C144   C     0.01026   0.09052   0.85468   0.00000  Uiso   1.00
C145   C     0.03721   0.13139   0.92838   0.00000  Uiso   1.00
C146   C     0.10792   0.13801   0.97646   0.00000  Uiso   1.00
C147   C     0.21918   0.16521   0.07640   0.00000  Uiso   1.00
C148   C     0.89785   0.99566   0.74943   0.00000  Uiso   1.00
C149   C     0.83031   0.95678   0.73466   0.00000  Uiso   1.00
C150   C     0.80638   0.88352   0.69415   0.00000  Uiso   1.00
C151   C     0.74312   0.76345   0.63068   0.00000  Uiso   1.00
C152   C     0.01209   0.01529   0.74709   0.00000  Uiso   1.00
C153   C     0.99065   0.06766   0.71806   0.00000  Uiso   1.00
C154   C     0.00940   0.08284   0.67202   0.00000  Uiso   1.00
C155   C     0.98447   0.13235   0.65164   0.00000  Uiso   1.00
C156   C     0.05242   0.05742   0.82988   0.00000  Uiso   1.00
C157   C     0.12310   0.06397   0.87787   0.00000  Uiso   1.00
C158   C     0.15016   0.10485   0.95162   0.00000  Uiso   1.00
C159   C     0.94001   0.96256   0.72463   0.00000  Uiso   1.00
C160   C     0.91619   0.88935   0.68414   0.00000  Uiso   1.00
C161   C     0.84862   0.85036   0.66931   0.00000  Uiso   1.00
H162   H     0.90164   0.10200   0.81206   0.00000  Uiso   1.00
H163   H     0.89090   0.17587   0.74174   0.00000  Uiso   1.00
H164   H     0.00457   0.15700   0.94755   0.00000  Uiso   1.00
H165   H     0.79770   0.98241   0.75386   0.00000  Uiso   1.00
H166   H     0.89761   0.24319   0.65287   0.00000  Uiso   1.00
H167   H     0.13728   0.20337   0.08683   0.00000  Uiso   1.00
H168   H     0.70104   0.83522   0.67839   0.00000  Uiso   1.00
H169   H     0.04492   0.98952   0.72779   0.00000  Uiso   1.00
H170   H     0.04203   0.05722   0.65284   0.00000  Uiso   1.00
H171   H     0.15571   0.03835   0.85866   0.00000  Uiso   1.00
H172   H     0.94883   0.86376   0.66496   0.00000  Uiso   1.00
H173   H     0.02027   0.14689   0.58072   0.00000  Uiso   1.00
H174   H     0.25995   0.10707   0.01469   0.00000  Uiso   1.00
H175   H     0.82371   0.73891   0.60624   0.00000  Uiso   1.00
O176   O     0.95448   0.24162   0.56903   0.00000  Uiso   1.00
O177   O     0.26891   0.18937   0.13838   0.00000  Uiso   1.00
O178   O     0.69658   0.70636   0.60251   0.00000  Uiso   1.00
N179   N     0.92686   0.21122   0.64616   0.00000  Uiso   1.00
N180   N     0.15094   0.17401   0.05189   0.00000  Uiso   1.00
N181   N     0.74311   0.82981   0.67005   0.00000  Uiso   1.00
N182   N     0.99286   0.15940   0.60734   0.00000  Uiso   1.00
N183   N     0.21695   0.12219   0.01307   0.00000  Uiso   1.00
N184   N     0.80911   0.77799   0.63123   0.00000  Uiso   1.00
C185   C     0.73781   0.48750   0.03436   0.00000  Uiso   1.00
C186   C     0.75841   0.45146   0.97785   0.00000  Uiso   1.00
C187   C     0.73990   0.37876   0.93873   0.00000  Uiso   1.00
C188   C     0.76395   0.35636   0.88957   0.00000  Uiso   1.00
C189   C     0.78966   0.29300   0.80327   0.00000  Uiso   1.00
C190   C     0.69660   0.53386   0.00889   0.00000  Uiso   1.00
C191   C     0.62612   0.53044   0.99589   0.00000  Uiso   1.00
C192   C     0.59814   0.57742   0.97287   0.00000  Uiso   1.00
C193   C     0.52790   0.64202   0.93482   0.00000  Uiso   1.00
C194   C     0.81024   0.53853   0.10416   0.00000  Uiso   1.00
C195   C     0.83531   0.53906   0.17128   0.00000  Uiso   1.00
C196   C     0.90301   0.58998   0.22848   0.00000  Uiso   1.00
C197   C     0.00922   0.66183   0.33835   0.00000  Uiso   1.00
C198   C     0.81344   0.57702   0.01661   0.00000  Uiso   1.00
C199   C     0.79949   0.50008   0.96821   0.00000  Uiso   1.00
C200   C     0.82358   0.47779   0.91910   0.00000  Uiso   1.00
C201   C     0.80511   0.40507   0.87992   0.00000  Uiso   1.00
C202   C     0.73767   0.58248   0.99925   0.00000  Uiso   1.00
C203   C     0.70979   0.62948   0.97626   0.00000  Uiso   1.00
C204   C     0.63929   0.62613   0.96322   0.00000  Uiso   1.00
C205   C     0.85132   0.58715   0.09453   0.00000  Uiso   1.00
C206   C     0.91899   0.63809   0.15164   0.00000  Uiso   1.00
C207   C     0.94416   0.63869   0.21883   0.00000  Uiso   1.00
H208   H     0.70583   0.44965   0.04186   0.00000  Uiso   1.00
H209   H     0.70810   0.34115   0.94620   0.00000  Uiso   1.00
H210   H     0.59435   0.49281   0.00336   0.00000  Uiso   1.00
H211   H     0.80351   0.50142   0.17871   0.00000  Uiso   1.00
H212   H     0.72872   0.24229   0.83588   0.00000  Uiso   1.00
H213   H     0.48887   0.56210   0.95642   0.00000  Uiso   1.00
H214   H     0.92992   0.58026   0.32619   0.00000  Uiso   1.00
H215   H     0.84542   0.61487   0.00911   0.00000  Uiso   1.00
H216   H     0.85536   0.51543   0.91165   0.00000  Uiso   1.00
H217   H     0.74160   0.66710   0.96881   0.00000  Uiso   1.00
H218   H     0.95076   0.67570   0.14417   0.00000  Uiso   1.00
H219   H     0.84824   0.38374   0.80783   0.00000  Uiso   1.00
H220   H     0.60838   0.70356   0.92838   0.00000  Uiso   1.00
H221   H     0.04944   0.72171   0.29815   0.00000  Uiso   1.00
O222   O     0.79248   0.24462   0.75832   0.00000  Uiso   1.00
O223   O     0.47780   0.66421   0.91648   0.00000  Uiso   1.00
O224   O     0.05646   0.68802   0.40161   0.00000  Uiso   1.00
N225   N     0.75550   0.28923   0.84266   0.00000  Uiso   1.00
N226   N     0.53124   0.58823   0.95535   0.00000  Uiso   1.00
N227   N     0.94358   0.60521   0.30106   0.00000  Uiso   1.00
N228   N     0.81981   0.36534   0.82757   0.00000  Uiso   1.00
N229   N     0.59555   0.66434   0.94026   0.00000  Uiso   1.00
N230   N     0.00790   0.68133   0.28598   0.00000  Uiso   1.00
C231   C     0.09698   0.34712   0.46362   0.00000  Uiso   1.00
C232   C     0.16352   0.32281   0.48040   0.00000  Uiso   1.00
C233   C     0.22135   0.34206   0.54941   0.00000  Uiso   1.00
C234   C     0.27701   0.31414   0.55323   0.00000  Uiso   1.00
C235   C     0.38065   0.28329   0.58885   0.00000  Uiso   1.00
C236   C     0.02921   0.27957   0.41596   0.00000  Uiso   1.00
C237   C     0.97410   0.26248   0.43079   0.00000  Uiso   1.00
C238   C     0.91669   0.19817   0.38037   0.00000  Uiso   1.00
C239   C     0.81177   0.10022   0.31592   0.00000  Uiso   1.00
C240   C     0.09548   0.38153   0.41507   0.00000  Uiso   1.00
C241   C     0.09608   0.45016   0.42915   0.00000  Uiso   1.00
C242   C     0.09444   0.47168   0.37796   0.00000  Uiso   1.00
C243   C     0.09242   0.53203   0.31215   0.00000  Uiso   1.00
C244   C     0.09300   0.26330   0.34770   0.00000  Uiso   1.00
C245   C     0.16136   0.27728   0.41743   0.00000  Uiso   1.00
C246   C     0.21695   0.24932   0.42115   0.00000  Uiso   1.00
C247   C     0.27485   0.26853   0.49015   0.00000  Uiso   1.00
C248   C     0.02704   0.23404   0.35299   0.00000  Uiso   1.00
C249   C     0.96969   0.16974   0.30253   0.00000  Uiso   1.00
C250   C     0.91452   0.15256   0.31729   0.00000  Uiso   1.00
C251   C     0.09332   0.33600   0.35210   0.00000  Uiso   1.00
C252   C     0.09167   0.35742   0.30089   0.00000  Uiso   1.00
C253   C     0.09227   0.42607   0.31488   0.00000  Uiso   1.00
H254   H     0.09866   0.38256   0.51264   0.00000  Uiso   1.00
H255   H     0.22301   0.37729   0.59812   0.00000  Uiso   1.00
H256   H     0.97579   0.29773   0.47952   0.00000  Uiso   1.00
H257   H     0.09775   0.48537   0.47788   0.00000  Uiso   1.00
H258   H     0.35989   0.35135   0.66513   0.00000  Uiso   1.00
H259   H     0.83861   0.18360   0.41503   0.00000  Uiso   1.00
H260   H     0.09579   0.57929   0.41157   0.00000  Uiso   1.00
H261   H     0.09131   0.22785   0.29867   0.00000  Uiso   1.00
H262   H     0.21525   0.21409   0.37241   0.00000  Uiso   1.00
H263   H     0.96803   0.13453   0.25381   0.00000  Uiso   1.00
H264   H     0.09000   0.32217   0.25217   0.00000  Uiso   1.00
H265   H     0.35360   0.21889   0.48193   0.00000  Uiso   1.00
H266   H     0.83231   0.05114   0.23184   0.00000  Uiso   1.00
H267   H     0.08949   0.44683   0.22837   0.00000  Uiso   1.00
O268   O     0.43840   0.27884   0.62590   0.00000  Uiso   1.00
O269   O     0.75449   0.05876   0.29778   0.00000  Uiso   1.00
O270   O     0.09191   0.57790   0.29324   0.00000  Uiso   1.00
N271   N     0.34141   0.32207   0.61189   0.00000  Uiso   1.00
N272   N     0.85405   0.16523   0.37808   0.00000  Uiso   1.00
N273   N     0.09447   0.53516   0.37483   0.00000  Uiso   1.00
N274   N     0.33803   0.25080   0.51331   0.00000  Uiso   1.00
N275   N     0.85066   0.09395   0.27950   0.00000  Uiso   1.00
N276   N     0.09108   0.46389   0.27625   0.00000  Uiso   1.00
C277   C     0.64060   0.91452   0.47513   0.00000  Uiso   1.00
C278   C     0.63572   0.95981   0.54066   0.00000  Uiso   1.00
C279   C     0.69408   0.99797   0.61204   0.00000  Uiso   1.00
C280   C     0.67827   0.03610   0.66414   0.00000  Uiso   1.00
C281   C     0.68160   0.10647   0.76872   0.00000  Uiso   1.00
C282   C     0.61029   0.94326   0.42055   0.00000  Uiso   1.00
C283   C     0.64727   0.96750   0.39093   0.00000  Uiso   1.00
C284   C     0.61005   0.99169   0.34192   0.00000  Uiso   1.00
C285   C     0.57388   0.03632   0.25998   0.00000  Uiso   1.00
C286   C     0.58542   0.84038   0.44063   0.00000  Uiso   1.00
C287   C     0.60147   0.77810   0.42788   0.00000  Uiso   1.00
C288   C     0.54330   0.71566   0.39576   0.00000  Uiso   1.00
C289   C     0.46850   0.60055   0.34501   0.00000  Uiso   1.00
C290   C     0.50873   0.91435   0.44074   0.00000  Uiso   1.00
C291   C     0.56410   0.95972   0.52198   0.00000  Uiso   1.00
C292   C     0.54819   0.99780   0.57399   0.00000  Uiso   1.00
C293   C     0.60652   0.03601   0.64543   0.00000  Uiso   1.00
C294   C     0.53867   0.94317   0.40187   0.00000  Uiso   1.00
C295   C     0.50138   0.96732   0.35288   0.00000  Uiso   1.00
C296   C     0.53830   0.99160   0.32321   0.00000  Uiso   1.00
C297   C     0.51379   0.84029   0.42195   0.00000  Uiso   1.00
C298   C     0.45558   0.77793   0.38984   0.00000  Uiso   1.00
C299   C     0.47154   0.71558   0.37705   0.00000  Uiso   1.00
H300   H     0.69636   0.91458   0.48967   0.00000  Uiso   1.00
H301   H     0.74951   0.99803   0.62647   0.00000  Uiso   1.00
H302   H     0.70270   0.96756   0.40539   0.00000  Uiso   1.00
H303   H     0.65690   0.77819   0.44234   0.00000  Uiso   1.00
H304   H     0.77685   0.09053   0.76989   0.00000  Uiso   1.00
H305   H     0.67814   0.02625   0.30372   0.00000  Uiso   1.00
H306   H     0.58158   0.62694   0.38164   0.00000  Uiso   1.00
H307   H     0.45297   0.91429   0.42620   0.00000  Uiso   1.00
H308   H     0.49276   0.99772   0.55952   0.00000  Uiso   1.00
H309   H     0.44595   0.96724   0.33844   0.00000  Uiso   1.00
H310   H     0.40016   0.77788   0.37539   0.00000  Uiso   1.00
H311   H     0.56846   0.09028   0.71555   0.00000  Uiso   1.00
H312   H     0.46976   0.02600   0.24938   0.00000  Uiso   1.00
H313   H     0.37319   0.62669   0.32730   0.00000  Uiso   1.00
O314   O     0.70322   0.14532   0.83156   0.00000  Uiso   1.00
O315   O     0.57372   0.06097   0.21995   0.00000  Uiso   1.00
O316   O     0.44703   0.53708   0.32219   0.00000  Uiso   1.00
N317   N     0.72234   0.07901   0.73881   0.00000  Uiso   1.00
N318   N     0.63006   0.01892   0.30298   0.00000  Uiso   1.00
N319   N     0.53978   0.64560   0.37580   0.00000  Uiso   1.00
N320   N     0.61021   0.07888   0.70957   0.00000  Uiso   1.00
N321   N     0.51793   0.01879   0.27374   0.00000  Uiso   1.00
N322   N     0.42765   0.64546   0.34656   0.00000  Uiso   1.00
C323   C     0.13238   0.60474   0.69269   0.00000  Uiso   1.00
C324   C     0.07190   0.55640   0.69213   0.00000  Uiso   1.00
C325   C     0.04843   0.48276   0.65957   0.00000  Uiso   1.00
C326   C     0.99239   0.44825   0.66512   0.00000  Uiso   1.00
C327   C     0.90329   0.36745   0.65868   0.00000  Uiso   1.00
C328   C     0.18857   0.65547   0.77262   0.00000  Uiso   1.00
C329   C     0.26318   0.66512   0.80774   0.00000  Uiso   1.00
C330   C     0.30535   0.71402   0.88106   0.00000  Uiso   1.00
C331   C     0.39738   0.78706   0.99958   0.00000  Uiso   1.00
C332   C     0.09709   0.65009   0.65976   0.00000  Uiso   1.00
C333   C     0.09480   0.65524   0.59998   0.00000  Uiso   1.00
C334   C     0.05996   0.69963   0.57829   0.00000  Uiso   1.00
C335   C     0.00995   0.76431   0.52156   0.00000  Uiso   1.00
C336   C     0.07461   0.67442   0.76045   0.00000  Uiso   1.00
C337   C     0.04053   0.59425   0.72894   0.00000  Uiso   1.00
C338   C     0.98451   0.55985   0.73454   0.00000  Uiso   1.00
C339   C     0.96095   0.48617   0.70199   0.00000  Uiso   1.00
C340   C     0.15719   0.69332   0.80943   0.00000  Uiso   1.00
C341   C     0.19926   0.74222   0.88271   0.00000  Uiso   1.00
C342   C     0.27392   0.75194   0.91793   0.00000  Uiso   1.00
C343   C     0.06570   0.68794   0.69656   0.00000  Uiso   1.00
C344   C     0.03088   0.73233   0.67496   0.00000  Uiso   1.00
C345   C     0.02853   0.73755   0.61516   0.00000  Uiso   1.00
H346   H     0.15681   0.57527   0.66403   0.00000  Uiso   1.00
H347   H     0.07273   0.45349   0.63109   0.00000  Uiso   1.00
H348   H     0.28745   0.63583   0.77924   0.00000  Uiso   1.00
H349   H     0.11909   0.62594   0.57151   0.00000  Uiso   1.00
H350   H     0.96569   0.33516   0.61082   0.00000  Uiso   1.00
H351   H     0.41844   0.71966   0.92319   0.00000  Uiso   1.00
H352   H     0.06342   0.69881   0.48517   0.00000  Uiso   1.00
H353   H     0.05018   0.70389   0.78911   0.00000  Uiso   1.00
H354   H     0.96024   0.58916   0.76303   0.00000  Uiso   1.00
H355   H     0.17496   0.77150   0.91118   0.00000  Uiso   1.00
H356   H     0.00660   0.76162   0.70346   0.00000  Uiso   1.00
H357   H     0.87439   0.44527   0.71791   0.00000  Uiso   1.00
H358   H     0.32714   0.82978   0.03028   0.00000  Uiso   1.00
H359   H     0.97212   0.80893   0.59226   0.00000  Uiso   1.00
O360   O     0.86281   0.31242   0.64497   0.00000  Uiso   1.00
O361   O     0.45680   0.81688   0.05478   0.00000  Uiso   1.00
O362   O     0.99103   0.78953   0.48010   0.00000  Uiso   1.00
N363   N     0.95653   0.37682   0.63959   0.00000  Uiso   1.00
N364   N     0.37982   0.73629   0.93164   0.00000  Uiso   1.00
N365   N     0.04793   0.71682   0.52214   0.00000  Uiso   1.00
N366   N     0.90740   0.43607   0.69721   0.00000  Uiso   1.00
N367   N     0.33070   0.79555   0.98927   0.00000  Uiso   1.00
N368   N     0.99880   0.77607   0.57976   0.00000  Uiso   1.00
C369   C     0.60488   0.29292   0.01654   0.00000  Uiso   1.00
C370   C     0.54142   0.30306   0.96070   0.00000  Uiso   1.00
C371   C     0.54810   0.34222   0.92514   0.00000  Uiso   1.00
C372   C     0.48342   0.34499   0.87599   0.00000  Uiso   1.00
C373   C     0.39536   0.36604   0.79124   0.00000  Uiso   1.00
C374   C     0.58717   0.21289   0.98749   0.00000  Uiso   1.00
C375   C     0.63232   0.17625   0.97447   0.00000  Uiso   1.00
C376   C     0.60616   0.10312   0.94788   0.00000  Uiso   1.00
C377   C     0.58915   0.98420   0.90478   0.00000  Uiso   1.00
C378   C     0.59920   0.31847   0.08492   0.00000  Uiso   1.00
C379   C     0.65445   0.37059   0.15383   0.00000  Uiso   1.00
C380   C     0.63842   0.38635   0.20927   0.00000  Uiso   1.00
C381   C     0.64007   0.43135   0.31746   0.00000  Uiso   1.00
C382   C     0.47815   0.22822   0.99246   0.00000  Uiso   1.00
C383   C     0.47259   0.26791   0.94762   0.00000  Uiso   1.00
C384   C     0.40789   0.27063   0.89851   0.00000  Uiso   1.00
C385   C     0.41446   0.30979   0.86289   0.00000  Uiso   1.00
C386   C     0.51834   0.17775   0.97441   0.00000  Uiso   1.00
C387   C     0.49211   0.10466   0.94784   0.00000  Uiso   1.00
C388   C     0.53720   0.06791   0.93478   0.00000  Uiso   1.00
C389   C     0.53036   0.28333   0.07185   0.00000  Uiso   1.00
C390   C     0.51424   0.29900   0.12719   0.00000  Uiso   1.00
C391   C     0.56946   0.35114   0.19617   0.00000  Uiso   1.00
H392   H     0.65847   0.32028   0.02672   0.00000  Uiso   1.00
H393   H     0.60138   0.36940   0.93527   0.00000  Uiso   1.00
H394   H     0.68559   0.20346   0.98460   0.00000  Uiso   1.00
H395   H     0.70771   0.39778   0.16393   0.00000  Uiso   1.00
H396   H     0.50772   0.40834   0.82810   0.00000  Uiso   1.00
H397   H     0.68530   0.05845   0.93214   0.00000  Uiso   1.00
H398   H     0.73196   0.46820   0.31029   0.00000  Uiso   1.00
H399   H     0.42456   0.20085   0.98228   0.00000  Uiso   1.00
H400   H     0.35463   0.24342   0.88840   0.00000  Uiso   1.00
H401   H     0.43884   0.07748   0.93773   0.00000  Uiso   1.00
H402   H     0.46097   0.27180   0.11706   0.00000  Uiso   1.00
H403   H     0.30745   0.30609   0.79006   0.00000  Uiso   1.00
H404   H     0.48503   0.95619   0.89410   0.00000  Uiso   1.00
H405   H     0.53169   0.36595   0.27225   0.00000  Uiso   1.00
O406   O     0.36580   0.38735   0.74810   0.00000  Uiso   1.00
O407   O     0.59878   0.92831   0.88461   0.00000  Uiso   1.00
O408   O     0.65999   0.46589   0.38074   0.00000  Uiso   1.00
N409   N     0.47018   0.37845   0.83204   0.00000  Uiso   1.00
N410   N     0.63620   0.05131   0.92930   0.00000  Uiso   1.00
N411   N     0.67983   0.43438   0.28285   0.00000  Uiso   1.00
N412   N     0.36242   0.32343   0.81157   0.00000  Uiso   1.00
N413   N     0.52844   0.99629   0.90883   0.00000  Uiso   1.00
N414   N     0.57207   0.37936   0.26238   0.00000  Uiso   1.00
C415   C     0.02581   0.91646   0.40546   0.00000  Uiso   1.00
C416   C     0.94227   0.89738   0.36675   0.00000  Uiso   1.00
C417   C     0.89327   0.84697   0.36659   0.00000  Uiso   1.00
C418   C     0.81894   0.83733   0.32792   0.00000  Uiso   1.00
C419   C     0.69292   0.80168   0.27344   0.00000  Uiso   1.00
C420   C     0.04628   0.90547   0.34697   0.00000  Uiso   1.00
C421   C     0.08475   0.86188   0.33019   0.00000  Uiso   1.00
C422   C     0.09800   0.85907   0.27488   0.00000  Uiso   1.00
C423   C     0.13350   0.83603   0.18973   0.00000  Uiso   1.00
C424   C     0.05815   0.99623   0.45578   0.00000  Uiso   1.00
C425   C     0.10662   0.02896   0.53048   0.00000  Uiso   1.00
C426   C     0.12987   0.10257   0.56678   0.00000  Uiso   1.00
C427   C     0.18381   0.22045   0.65057   0.00000  Uiso   1.00
C428   C     0.98096   0.98900   0.33708   0.00000  Uiso   1.00
C429   C     0.91790   0.93678   0.32961   0.00000  Uiso   1.00
C430   C     0.84363   0.92722   0.29094   0.00000  Uiso   1.00
C431   C     0.79453   0.87680   0.29072   0.00000  Uiso   1.00
C432   C     0.02192   0.94487   0.30983   0.00000  Uiso   1.00
C433   C     0.03512   0.94213   0.25454   0.00000  Uiso   1.00
C434   C     0.07359   0.89854   0.23767   0.00000  Uiso   1.00
C435   C     0.03379   0.03564   0.41864   0.00000  Uiso   1.00
C436   C     0.05698   0.10921   0.45483   0.00000  Uiso   1.00
C437   C     0.10547   0.14204   0.52957   0.00000  Uiso   1.00
H438   H     0.04479   0.88579   0.43437   0.00000  Uiso   1.00
H439   H     0.91214   0.81648   0.39533   0.00000  Uiso   1.00
H440   H     0.10360   0.83140   0.35895   0.00000  Uiso   1.00
H441   H     0.12546   0.99845   0.55920   0.00000  Uiso   1.00
H442   H     0.75434   0.75700   0.33565   0.00000  Uiso   1.00
H443   H     0.15806   0.78848   0.25895   0.00000  Uiso   1.00
H444   H     0.20416   0.14073   0.68123   0.00000  Uiso   1.00
H445   H     0.96199   0.01967   0.30816   0.00000  Uiso   1.00
H446   H     0.82479   0.95772   0.26220   0.00000  Uiso   1.00
H447   H     0.01626   0.97263   0.22581   0.00000  Uiso   1.00
H448   H     0.03811   0.13968   0.42607   0.00000  Uiso   1.00
H449   H     0.68344   0.87163   0.22760   0.00000  Uiso   1.00
H450   H     0.08717   0.90311   0.15089   0.00000  Uiso   1.00
H451   H     0.13326   0.25536   0.57317   0.00000  Uiso   1.00
O452   O     0.63013   0.77112   0.25365   0.00000  Uiso   1.00
O453   O     0.15981   0.81243   0.15302   0.00000  Uiso   1.00
O454   O     0.22029   0.27458   0.70704   0.00000  Uiso   1.00
N455   N     0.75648   0.79249   0.31654   0.00000  Uiso   1.00
N456   N     0.13393   0.82191   0.24482   0.00000  Uiso   1.00
N457   N     0.17704   0.15124   0.63961   0.00000  Uiso   1.00
N458   N     0.71833   0.85417   0.25840   0.00000  Uiso   1.00
N459   N     0.09578   0.88359   0.18667   0.00000  Uiso   1.00
N460   N     0.13889   0.21292   0.58147   0.00000  Uiso   1.00
C461   C     0.11226   0.33682   0.07458   0.00000  Uiso   1.00
C462   C     0.11160   0.41257   0.09720   0.00000  Uiso   1.00
C463   C     0.15815   0.46999   0.16574   0.00000  Uiso   1.00
C464   C     0.14875   0.53494   0.17551   0.00000  Uiso   1.00
C465   C     0.15592   0.65145   0.21928   0.00000  Uiso   1.00
C466   C     0.03446   0.29002   0.04593   0.00000  Uiso   1.00
C467   C     0.01615   0.24439   0.07136   0.00000  Uiso   1.00
C468   C     0.94182   0.20616   0.03795   0.00000  Uiso   1.00
C469   C     0.82922   0.13237   0.00209   0.00000  Uiso   1.00
C470   C     0.12256   0.31694   0.00897   0.00000  Uiso   1.00
C471   C     0.17832   0.29393   0.00331   0.00000  Uiso   1.00
C472   C     0.17815   0.27835   0.93877   0.00000  Uiso   1.00
C473   C     0.20234   0.24637   0.84552   0.00000  Uiso   1.00
C474   C     0.01279   0.35005   0.97003   0.00000  Uiso   1.00
C475   C     0.05757   0.41975   0.04041   0.00000  Uiso   1.00
C476   C     0.04810   0.48462   0.05008   0.00000  Uiso   1.00
C477   C     0.09463   0.54213   0.11862   0.00000  Uiso   1.00
C478   C     0.98043   0.29720   0.98915   0.00000  Uiso   1.00
C479   C     0.90610   0.25902   0.95569   0.00000  Uiso   1.00
C480   C     0.88769   0.21335   0.98106   0.00000  Uiso   1.00
C481   C     0.06853   0.32412   0.95218   0.00000  Uiso   1.00
C482   C     0.06827   0.30857   0.88764   0.00000  Uiso   1.00
C483   C     0.12402   0.28555   0.88188   0.00000  Uiso   1.00
H484   H     0.15432   0.33123   0.11879   0.00000  Uiso   1.00
H485   H     0.19995   0.46441   0.20968   0.00000  Uiso   1.00
H486   H     0.05798   0.23884   0.11530   0.00000  Uiso   1.00
H487   H     0.22012   0.28838   0.04726   0.00000  Uiso   1.00
H488   H     0.22670   0.61523   0.28541   0.00000  Uiso   1.00
H489   H     0.92734   0.13959   0.08639   0.00000  Uiso   1.00
H490   H     0.26925   0.24405   0.94292   0.00000  Uiso   1.00
H491   H     0.97073   0.35564   0.92582   0.00000  Uiso   1.00
H492   H     0.00628   0.49016   0.00612   0.00000  Uiso   1.00
H493   H     0.86431   0.26459   0.91175   0.00000  Uiso   1.00
H494   H     0.02645   0.31413   0.84371   0.00000  Uiso   1.00
H495   H     0.06950   0.63613   0.12020   0.00000  Uiso   1.00
H496   H     0.77015   0.16048   0.92118   0.00000  Uiso   1.00
H497   H     0.11206   0.26495   0.77771   0.00000  Uiso   1.00
O498   O     0.17479   0.71373   0.25912   0.00000  Uiso   1.00
O499   O     0.78204   0.08969   0.99800   0.00000  Uiso   1.00
O500   O     0.23062   0.22675   0.80977   0.00000  Uiso   1.00
N501   N     0.18483   0.60169   0.23550   0.00000  Uiso   1.00
N502   N     0.90495   0.15700   0.04944   0.00000  Uiso   1.00
N503   N     0.22459   0.25465   0.91530   0.00000  Uiso   1.00
N504   N     0.10025   0.61294   0.14660   0.00000  Uiso   1.00
N505   N     0.82037   0.16824   0.96054   0.00000  Uiso   1.00
N506   N     0.14001   0.26589   0.82640   0.00000  Uiso   1.00
C507   C     0.54950   0.60026   0.61714   0.00000  Uiso   1.00
C508   C     0.48170   0.54308   0.54621   0.00000  Uiso   1.00
C509   C     0.45849   0.53845   0.47763   0.00000  Uiso   1.00
C510   C     0.39507   0.48218   0.41960   0.00000  Uiso   1.00
C511   C     0.29567   0.40099   0.30792   0.00000  Uiso   1.00
C512   C     0.52168   0.63384   0.66789   0.00000  Uiso   1.00
C513   C     0.53209   0.70552   0.70162   0.00000  Uiso   1.00
C514   C     0.50233   0.72564   0.74602   0.00000  Uiso   1.00
C515   C     0.46505   0.78537   0.82328   0.00000  Uiso   1.00
C516   C     0.59621   0.56102   0.65026   0.00000  Uiso   1.00
C517   C     0.66930   0.57148   0.66919   0.00000  Uiso   1.00
C518   C     0.70231   0.53031   0.69877   0.00000  Uiso   1.00
C519   C     0.78075   0.47698   0.74865   0.00000  Uiso   1.00
C520   C     0.47815   0.50857   0.63603   0.00000  Uiso   1.00
C521   C     0.44295   0.49328   0.55648   0.00000  Uiso   1.00
C522   C     0.37955   0.43700   0.49854   0.00000  Uiso   1.00
C523   C     0.35624   0.43228   0.42988   0.00000  Uiso   1.00
C524   C     0.48293   0.58404   0.67815   0.00000  Uiso   1.00
C525   C     0.45315   0.60407   0.72252   0.00000  Uiso   1.00
C526   C     0.46351   0.67575   0.75630   0.00000  Uiso   1.00
C527   C     0.55746   0.51122   0.66052   0.00000  Uiso   1.00
C528   C     0.59036   0.47003   0.69008   0.00000  Uiso   1.00
C529   C     0.66348   0.48042   0.70905   0.00000  Uiso   1.00
H530   H     0.57967   0.63904   0.60915   0.00000  Uiso   1.00
H531   H     0.48849   0.57701   0.46972   0.00000  Uiso   1.00
H532   H     0.56209   0.74405   0.69367   0.00000  Uiso   1.00
H533   H     0.69928   0.61003   0.66124   0.00000  Uiso   1.00
H534   H     0.37029   0.48628   0.31966   0.00000  Uiso   1.00
H535   H     0.52550   0.83850   0.79190   0.00000  Uiso   1.00
H536   H     0.81479   0.55590   0.72351   0.00000  Uiso   1.00
H537   H     0.44798   0.46979   0.64402   0.00000  Uiso   1.00
H538   H     0.34957   0.39847   0.50649   0.00000  Uiso   1.00
H539   H     0.42317   0.56551   0.73045   0.00000  Uiso   1.00
H540   H     0.56035   0.43150   0.69802   0.00000  Uiso   1.00
H541   H     0.25754   0.34138   0.34951   0.00000  Uiso   1.00
H542   H     0.41275   0.69360   0.82175   0.00000  Uiso   1.00
H543   H     0.70204   0.41100   0.75336   0.00000  Uiso   1.00
O544   O     0.25154   0.36998   0.24349   0.00000  Uiso   1.00
O545   O     0.45519   0.83208   0.86306   0.00000  Uiso   1.00
O546   O     0.83472   0.46131   0.77333   0.00000  Uiso   1.00
N547   N     0.35727   0.46196   0.34555   0.00000  Uiso   1.00
N548   N     0.50237   0.79126   0.78706   0.00000  Uiso   1.00
N549   N     0.77284   0.52707   0.72314   0.00000  Uiso   1.00
N550   N     0.29660   0.38399   0.36161   0.00000  Uiso   1.00
N551   N     0.44170   0.71329   0.80312   0.00000  Uiso   1.00
N552   N     0.71217   0.44910   0.73920   0.00000  Uiso   1.00
