data_job_01832
_audit_creation_date              2018-12-19
_audit_creation_method            'Materials Studio'
_symmetry_space_group_name_H-M    'P1'
_symmetry_Int_Tables_number       1
_symmetry_cell_setting            triclinic
loop_
_symmetry_equiv_pos_as_xyz
  x,y,z
_cell_length_a                    20.0491
_cell_length_b                    18.5360
_cell_length_c                    13.2460
_cell_angle_alpha                 90.0000
_cell_angle_beta                  146.9071
_cell_angle_gamma                 90.0000
loop_
_atom_site_label
_atom_site_type_symbol
_atom_site_fract_x
_atom_site_fract_y
_atom_site_fract_z
_atom_site_U_iso_or_equiv
_atom_site_adp_type
_atom_site_occupancy
C1     C     0.63968   0.68093   0.19122   0.00000  Uiso   1.00
C2     C     0.71627   0.74678   0.26082   0.00000  Uiso   1.00
C3     C     0.79328   0.78401   0.42337   0.00000  Uiso   1.00
C4     C     0.85538   0.84286   0.46245   0.00000  Uiso   1.00
C5     C     0.97646   0.94196   0.58863   0.00000  Uiso   1.00
C6     C     0.50800   0.70046   0.99845   0.00000  Uiso   1.00
C7     C     0.40991   0.69873   0.94039   0.00000  Uiso   1.00
C8     C     0.29668   0.71857   0.75859   0.00000  Uiso   1.00
C9     C     0.09441   0.74570   0.47739   0.00000  Uiso   1.00
C10    C     0.67648   0.62180   0.16385   0.00000  Uiso   1.00
C11    C     0.72001   0.55394   0.24483   0.00000  Uiso   1.00
C12    C     0.74861   0.50755   0.20225   0.00000  Uiso   1.00
C13    C     0.80792   0.41256   0.17786   0.00000  Uiso   1.00
C14    C     0.61301   0.71922   0.97157   0.00000  Uiso   1.00
C15    C     0.70178   0.76757   0.14151   0.00000  Uiso   1.00
C16    C     0.76378   0.82637   0.18036   0.00000  Uiso   1.00
C17    C     0.84087   0.86369   0.34294   0.00000  Uiso   1.00
C18    C     0.49351   0.72125   0.87914   0.00000  Uiso   1.00
C19    C     0.38041   0.74109   0.69738   0.00000  Uiso   1.00
C20    C     0.28217   0.73940   0.63907   0.00000  Uiso   1.00
C21    C     0.66200   0.64260   0.04455   0.00000  Uiso   1.00
C22    C     0.69052   0.59630   0.00182   0.00000  Uiso   1.00
C23    C     0.73409   0.52838   0.08273   0.00000  Uiso   1.00
H24    H     0.65095   0.66474   0.28409   0.00000  Uiso   1.00
H25    H     0.80446   0.76791   0.51565   0.00000  Uiso   1.00
H26    H     0.42114   0.68263   0.03274   0.00000  Uiso   1.00
H27    H     0.73121   0.53787   0.33714   0.00000  Uiso   1.00
H28    H     0.96823   0.89147   0.71974   0.00000  Uiso   1.00
H29    H     0.15999   0.71164   0.70148   0.00000  Uiso   1.00
H30    H     0.81382   0.40637   0.34335   0.00000  Uiso   1.00
H31    H     0.60173   0.73541   0.87868   0.00000  Uiso   1.00
H32    H     0.75255   0.84245   0.08801   0.00000  Uiso   1.00
H33    H     0.36923   0.75717   0.60510   0.00000  Uiso   1.00
H34    H     0.67930   0.61241   0.90949   0.00000  Uiso   1.00
H35    H     0.92609   0.95197   0.37265   0.00000  Uiso   1.00
H36    H     0.11785   0.77214   0.35438   0.00000  Uiso   1.00
H37    H     0.77168   0.46687   0.99626   0.00000  Uiso   1.00
O38    O     0.04723   0.99088   0.69118   0.00000  Uiso   1.00
O39    O     0.98685   0.75493   0.35526   0.00000  Uiso   1.00
O40    O     0.84466   0.35443   0.19739   0.00000  Uiso   1.00
N41    N     0.93763   0.89101   0.60934   0.00000  Uiso   1.00
N42    N     0.18198   0.72289   0.65734   0.00000  Uiso   1.00
N43    N     0.79322   0.43748   0.25740   0.00000  Uiso   1.00
N44    N     0.91496   0.92357   0.42258   0.00000  Uiso   1.00
N45    N     0.15931   0.75544   0.47057   0.00000  Uiso   1.00
N46    N     0.77055   0.47004   0.07063   0.00000  Uiso   1.00
C47    C     0.36032   0.18093   0.30878   0.00000  Uiso   1.00
C48    C     0.28373   0.24678   0.23918   0.00000  Uiso   1.00
C49    C     0.20672   0.28401   0.07663   0.00000  Uiso   1.00
C50    C     0.14462   0.34286   0.03755   0.00000  Uiso   1.00
C51    C     0.02354   0.44196   0.91137   0.00000  Uiso   1.00
C52    C     0.49200   0.20046   0.50155   0.00000  Uiso   1.00
C53    C     0.59009   0.19873   0.55961   0.00000  Uiso   1.00
C54    C     0.70332   0.21857   0.74141   0.00000  Uiso   1.00
C55    C     0.90559   0.24570   0.02261   0.00000  Uiso   1.00
C56    C     0.32352   0.12180   0.33615   0.00000  Uiso   1.00
C57    C     0.27999   0.05394   0.25517   0.00000  Uiso   1.00
C58    C     0.25139   0.00755   0.29775   0.00000  Uiso   1.00
C59    C     0.19208   0.91256   0.32214   0.00000  Uiso   1.00
C60    C     0.38699   0.21922   0.52843   0.00000  Uiso   1.00
C61    C     0.29822   0.26757   0.35849   0.00000  Uiso   1.00
C62    C     0.23622   0.32637   0.31964   0.00000  Uiso   1.00
C63    C     0.15913   0.36369   0.15706   0.00000  Uiso   1.00
C64    C     0.50649   0.22125   0.62086   0.00000  Uiso   1.00
C65    C     0.61959   0.24109   0.80262   0.00000  Uiso   1.00
C66    C     0.71783   0.23940   0.86093   0.00000  Uiso   1.00
C67    C     0.33800   0.14260   0.45545   0.00000  Uiso   1.00
C68    C     0.30948   0.09630   0.49818   0.00000  Uiso   1.00
C69    C     0.26591   0.02838   0.41727   0.00000  Uiso   1.00
H70    H     0.34905   0.16474   0.21591   0.00000  Uiso   1.00
H71    H     0.19554   0.26791   0.98435   0.00000  Uiso   1.00
H72    H     0.57886   0.18263   0.46726   0.00000  Uiso   1.00
H73    H     0.26879   0.03787   0.16286   0.00000  Uiso   1.00
H74    H     0.03177   0.39147   0.78026   0.00000  Uiso   1.00
H75    H     0.84001   0.21164   0.79852   0.00000  Uiso   1.00
H76    H     0.18618   0.90637   0.15665   0.00000  Uiso   1.00
H77    H     0.39827   0.23541   0.62132   0.00000  Uiso   1.00
H78    H     0.24745   0.34245   0.41199   0.00000  Uiso   1.00
H79    H     0.63077   0.25717   0.89490   0.00000  Uiso   1.00
H80    H     0.32070   0.11241   0.59051   0.00000  Uiso   1.00
H81    H     0.07391   0.45197   0.12735   0.00000  Uiso   1.00
H82    H     0.88215   0.27214   0.14562   0.00000  Uiso   1.00
H83    H     0.22832   0.96687   0.50374   0.00000  Uiso   1.00
O84    O     0.95277   0.49088   0.80882   0.00000  Uiso   1.00
O85    O     0.01315   0.25493   0.14474   0.00000  Uiso   1.00
O86    O     0.15534   0.85443   0.30261   0.00000  Uiso   1.00
N87    N     0.06237   0.39101   0.89066   0.00000  Uiso   1.00
N88    N     0.81802   0.22289   0.84266   0.00000  Uiso   1.00
N89    N     0.20678   0.93748   0.24260   0.00000  Uiso   1.00
N90    N     0.08504   0.42357   0.07742   0.00000  Uiso   1.00
N91    N     0.84069   0.25544   0.02943   0.00000  Uiso   1.00
N92    N     0.22945   0.97004   0.42937   0.00000  Uiso   1.00
C93    C     0.36032   0.31907   0.80878   0.00000  Uiso   1.00
C94    C     0.28373   0.25322   0.73918   0.00000  Uiso   1.00
C95    C     0.20672   0.21599   0.57663   0.00000  Uiso   1.00
C96    C     0.14462   0.15714   0.53755   0.00000  Uiso   1.00
C97    C     0.02354   0.05804   0.41137   0.00000  Uiso   1.00
C98    C     0.49200   0.29954   0.00155   0.00000  Uiso   1.00
C99    C     0.59009   0.30127   0.05961   0.00000  Uiso   1.00
C100   C     0.70332   0.28143   0.24141   0.00000  Uiso   1.00
C101   C     0.90559   0.25430   0.52261   0.00000  Uiso   1.00
C102   C     0.32352   0.37820   0.83615   0.00000  Uiso   1.00
C103   C     0.27999   0.44606   0.75517   0.00000  Uiso   1.00
C104   C     0.25139   0.49245   0.79775   0.00000  Uiso   1.00
C105   C     0.19208   0.58744   0.82214   0.00000  Uiso   1.00
C106   C     0.38699   0.28078   0.02843   0.00000  Uiso   1.00
C107   C     0.29822   0.23243   0.85849   0.00000  Uiso   1.00
C108   C     0.23622   0.17363   0.81964   0.00000  Uiso   1.00
C109   C     0.15913   0.13631   0.65706   0.00000  Uiso   1.00
C110   C     0.50649   0.27875   0.12086   0.00000  Uiso   1.00
C111   C     0.61959   0.25891   0.30262   0.00000  Uiso   1.00
C112   C     0.71783   0.26060   0.36093   0.00000  Uiso   1.00
C113   C     0.33800   0.35740   0.95545   0.00000  Uiso   1.00
C114   C     0.30948   0.40370   0.99818   0.00000  Uiso   1.00
C115   C     0.26591   0.47162   0.91727   0.00000  Uiso   1.00
H116   H     0.34905   0.33526   0.71591   0.00000  Uiso   1.00
H117   H     0.19554   0.23209   0.48435   0.00000  Uiso   1.00
H118   H     0.57886   0.31737   0.96726   0.00000  Uiso   1.00
H119   H     0.26879   0.46213   0.66286   0.00000  Uiso   1.00
H120   H     0.03177   0.10853   0.28026   0.00000  Uiso   1.00
H121   H     0.84001   0.28836   0.29852   0.00000  Uiso   1.00
H122   H     0.18618   0.59363   0.65665   0.00000  Uiso   1.00
H123   H     0.39827   0.26459   0.12132   0.00000  Uiso   1.00
H124   H     0.24745   0.15755   0.91199   0.00000  Uiso   1.00
H125   H     0.63077   0.24283   0.39490   0.00000  Uiso   1.00
H126   H     0.32070   0.38759   0.09051   0.00000  Uiso   1.00
H127   H     0.07391   0.04803   0.62735   0.00000  Uiso   1.00
H128   H     0.88215   0.22786   0.64562   0.00000  Uiso   1.00
H129   H     0.22832   0.53313   0.00374   0.00000  Uiso   1.00
O130   O     0.95277   0.00912   0.30882   0.00000  Uiso   1.00
O131   O     0.01315   0.24507   0.64474   0.00000  Uiso   1.00
O132   O     0.15534   0.64557   0.80261   0.00000  Uiso   1.00
N133   N     0.06237   0.10899   0.39066   0.00000  Uiso   1.00
N134   N     0.81802   0.27711   0.34266   0.00000  Uiso   1.00
N135   N     0.20678   0.56252   0.74260   0.00000  Uiso   1.00
N136   N     0.08504   0.07643   0.57742   0.00000  Uiso   1.00
N137   N     0.84069   0.24456   0.52943   0.00000  Uiso   1.00
N138   N     0.22945   0.52996   0.92937   0.00000  Uiso   1.00
C139   C     0.63968   0.81907   0.69122   0.00000  Uiso   1.00
C140   C     0.71627   0.75322   0.76082   0.00000  Uiso   1.00
C141   C     0.79328   0.71599   0.92337   0.00000  Uiso   1.00
C142   C     0.85538   0.65714   0.96245   0.00000  Uiso   1.00
C143   C     0.97646   0.55804   0.08863   0.00000  Uiso   1.00
C144   C     0.50800   0.79954   0.49845   0.00000  Uiso   1.00
C145   C     0.40991   0.80127   0.44039   0.00000  Uiso   1.00
C146   C     0.29668   0.78143   0.25859   0.00000  Uiso   1.00
C147   C     0.09441   0.75430   0.97739   0.00000  Uiso   1.00
C148   C     0.67648   0.87820   0.66385   0.00000  Uiso   1.00
C149   C     0.72001   0.94606   0.74483   0.00000  Uiso   1.00
C150   C     0.74861   0.99245   0.70225   0.00000  Uiso   1.00
C151   C     0.80792   0.08744   0.67786   0.00000  Uiso   1.00
C152   C     0.61301   0.78078   0.47157   0.00000  Uiso   1.00
C153   C     0.70178   0.73243   0.64151   0.00000  Uiso   1.00
C154   C     0.76378   0.67363   0.68036   0.00000  Uiso   1.00
C155   C     0.84087   0.63631   0.84294   0.00000  Uiso   1.00
C156   C     0.49351   0.77875   0.37914   0.00000  Uiso   1.00
C157   C     0.38041   0.75891   0.19738   0.00000  Uiso   1.00
C158   C     0.28217   0.76060   0.13907   0.00000  Uiso   1.00
C159   C     0.66200   0.85740   0.54455   0.00000  Uiso   1.00
C160   C     0.69052   0.90370   0.50182   0.00000  Uiso   1.00
C161   C     0.73409   0.97162   0.58273   0.00000  Uiso   1.00
H162   H     0.65095   0.83526   0.78409   0.00000  Uiso   1.00
H163   H     0.80446   0.73209   0.01565   0.00000  Uiso   1.00
H164   H     0.42114   0.81737   0.53274   0.00000  Uiso   1.00
H165   H     0.73121   0.96213   0.83714   0.00000  Uiso   1.00
H166   H     0.96823   0.60853   0.21974   0.00000  Uiso   1.00
H167   H     0.15999   0.78836   0.20148   0.00000  Uiso   1.00
H168   H     0.81382   0.09363   0.84335   0.00000  Uiso   1.00
H169   H     0.60173   0.76459   0.37868   0.00000  Uiso   1.00
H170   H     0.75255   0.65755   0.58801   0.00000  Uiso   1.00
H171   H     0.36923   0.74283   0.10510   0.00000  Uiso   1.00
H172   H     0.67930   0.88759   0.40949   0.00000  Uiso   1.00
H173   H     0.92609   0.54803   0.87265   0.00000  Uiso   1.00
H174   H     0.11785   0.72786   0.85438   0.00000  Uiso   1.00
H175   H     0.77168   0.03313   0.49626   0.00000  Uiso   1.00
O176   O     0.04723   0.50912   0.19118   0.00000  Uiso   1.00
O177   O     0.98685   0.74507   0.85526   0.00000  Uiso   1.00
O178   O     0.84466   0.14557   0.69739   0.00000  Uiso   1.00
N179   N     0.93763   0.60899   0.10934   0.00000  Uiso   1.00
N180   N     0.18198   0.77711   0.15734   0.00000  Uiso   1.00
N181   N     0.79322   0.06252   0.75740   0.00000  Uiso   1.00
N182   N     0.91496   0.57643   0.92258   0.00000  Uiso   1.00
N183   N     0.15931   0.74456   0.97057   0.00000  Uiso   1.00
N184   N     0.77055   0.02996   0.57063   0.00000  Uiso   1.00
