data_job_03716
_audit_creation_date              2018-12-19
_audit_creation_method            'Materials Studio'
_symmetry_space_group_name_H-M    'P1'
_symmetry_Int_Tables_number       1
_symmetry_cell_setting            triclinic
loop_
_symmetry_equiv_pos_as_xyz
  x,y,z
_cell_length_a                    12.7982
_cell_length_b                    20.7083
_cell_length_c                    11.8311
_cell_angle_alpha                 90.0000
_cell_angle_beta                  114.9813
_cell_angle_gamma                 90.0000
loop_
_atom_site_label
_atom_site_type_symbol
_atom_site_fract_x
_atom_site_fract_y
_atom_site_fract_z
_atom_site_U_iso_or_equiv
_atom_site_adp_type
_atom_site_occupancy
C1     C     0.35772   0.93978   0.42036   0.00000  Uiso   1.00
C2     C     0.37166   0.89123   0.33077   0.00000  Uiso   1.00
C3     C     0.47561   0.86986   0.33389   0.00000  Uiso   1.00
C4     C     0.47006   0.82534   0.24379   0.00000  Uiso   1.00
C5     C     0.50780   0.75333   0.11841   0.00000  Uiso   1.00
C6     C     0.28559   0.90600   0.47750   0.00000  Uiso   1.00
C7     C     0.31718   0.89706   0.60399   0.00000  Uiso   1.00
C8     C     0.23917   0.86498   0.63739   0.00000  Uiso   1.00
C9     C     0.14325   0.81594   0.73981   0.00000  Uiso   1.00
C10    C     0.28246   0.99395   0.33934   0.00000  Uiso   1.00
C11    C     0.31139   0.05896   0.34967   0.00000  Uiso   1.00
C12    C     0.23072   0.10092   0.26676   0.00000  Uiso   1.00
C13    C     0.12994   0.18844   0.15466   0.00000  Uiso   1.00
C14    C     0.16299   0.89871   0.25478   0.00000  Uiso   1.00
C15    C     0.26589   0.86893   0.24084   0.00000  Uiso   1.00
C16    C     0.26018   0.82443   0.15070   0.00000  Uiso   1.00
C17    C     0.36411   0.80299   0.15369   0.00000  Uiso   1.00
C18    C     0.17983   0.88370   0.38757   0.00000  Uiso   1.00
C19    C     0.10174   0.85163   0.42080   0.00000  Uiso   1.00
C20    C     0.13321   0.84263   0.54730   0.00000  Uiso   1.00
C21    C     0.17669   0.97165   0.24940   0.00000  Uiso   1.00
C22    C     0.09596   0.01352   0.16647   0.00000  Uiso   1.00
C23    C     0.12477   0.07858   0.17667   0.00000  Uiso   1.00
H24    H     0.44006   0.95714   0.49038   0.00000  Uiso   1.00
H25    H     0.55745   0.88713   0.40352   0.00000  Uiso   1.00
H26    H     0.39903   0.91433   0.67356   0.00000  Uiso   1.00
H27    H     0.39325   0.07620   0.41928   0.00000  Uiso   1.00
H28    H     0.64095   0.79965   0.26758   0.00000  Uiso   1.00
H29    H     0.30691   0.85703   0.83699   0.00000  Uiso   1.00
H30    H     0.29471   0.19836   0.30078   0.00000  Uiso   1.00
H31    H     0.08064   0.88135   0.18476   0.00000  Uiso   1.00
H32    H     0.17832   0.80718   0.08112   0.00000  Uiso   1.00
H33    H     0.01990   0.83438   0.35117   0.00000  Uiso   1.00
H34    H     0.01412   0.99625   0.09689   0.00000  Uiso   1.00
H35    H     0.33324   0.73476   0.00591   0.00000  Uiso   1.00
H36    H     0.99919   0.79214   0.57533   0.00000  Uiso   1.00
H37    H     0.98700   0.13347   0.03912   0.00000  Uiso   1.00
O38    O     0.55783   0.71976   0.07410   0.00000  Uiso   1.00
O39    O     0.11957   0.79505   0.82116   0.00000  Uiso   1.00
O40    O     0.10357   0.24287   0.11766   0.00000  Uiso   1.00
N41    N     0.55513   0.79457   0.22020   0.00000  Uiso   1.00
N42    N     0.24283   0.84820   0.75257   0.00000  Uiso   1.00
N43    N     0.23141   0.16732   0.25128   0.00000  Uiso   1.00
N44    N     0.38955   0.75965   0.07940   0.00000  Uiso   1.00
N45    N     0.07725   0.81328   0.61177   0.00000  Uiso   1.00
N46    N     0.06583   0.13241   0.11048   0.00000  Uiso   1.00
C47    C     0.64228   0.43978   0.07964   0.00000  Uiso   1.00
C48    C     0.62834   0.39123   0.16923   0.00000  Uiso   1.00
C49    C     0.52439   0.36986   0.16611   0.00000  Uiso   1.00
C50    C     0.52994   0.32534   0.25621   0.00000  Uiso   1.00
C51    C     0.49220   0.25333   0.38159   0.00000  Uiso   1.00
C52    C     0.71441   0.40600   0.02250   0.00000  Uiso   1.00
C53    C     0.68282   0.39706   0.89601   0.00000  Uiso   1.00
C54    C     0.76083   0.36498   0.86261   0.00000  Uiso   1.00
C55    C     0.85675   0.31594   0.76019   0.00000  Uiso   1.00
C56    C     0.71754   0.49395   0.16066   0.00000  Uiso   1.00
C57    C     0.68861   0.55896   0.15033   0.00000  Uiso   1.00
C58    C     0.76928   0.60092   0.23324   0.00000  Uiso   1.00
C59    C     0.87006   0.68844   0.34534   0.00000  Uiso   1.00
C60    C     0.83701   0.39871   0.24522   0.00000  Uiso   1.00
C61    C     0.73411   0.36893   0.25916   0.00000  Uiso   1.00
C62    C     0.73982   0.32443   0.34930   0.00000  Uiso   1.00
C63    C     0.63589   0.30299   0.34631   0.00000  Uiso   1.00
C64    C     0.82017   0.38370   0.11243   0.00000  Uiso   1.00
C65    C     0.89826   0.35163   0.07920   0.00000  Uiso   1.00
C66    C     0.86679   0.34263   0.95270   0.00000  Uiso   1.00
C67    C     0.82331   0.47165   0.25060   0.00000  Uiso   1.00
C68    C     0.90404   0.51352   0.33353   0.00000  Uiso   1.00
C69    C     0.87523   0.57858   0.32333   0.00000  Uiso   1.00
H70    H     0.55994   0.45714   0.00962   0.00000  Uiso   1.00
H71    H     0.44255   0.38713   0.09648   0.00000  Uiso   1.00
H72    H     0.60097   0.41433   0.82644   0.00000  Uiso   1.00
H73    H     0.60675   0.57620   0.08072   0.00000  Uiso   1.00
H74    H     0.35905   0.29965   0.23242   0.00000  Uiso   1.00
H75    H     0.69309   0.35703   0.66301   0.00000  Uiso   1.00
H76    H     0.70529   0.69836   0.19922   0.00000  Uiso   1.00
H77    H     0.91936   0.38135   0.31524   0.00000  Uiso   1.00
H78    H     0.82168   0.30718   0.41888   0.00000  Uiso   1.00
H79    H     0.98010   0.33438   0.14883   0.00000  Uiso   1.00
H80    H     0.98588   0.49625   0.40311   0.00000  Uiso   1.00
H81    H     0.66676   0.23476   0.49409   0.00000  Uiso   1.00
H82    H     0.00081   0.29214   0.92467   0.00000  Uiso   1.00
H83    H     0.01300   0.63347   0.46088   0.00000  Uiso   1.00
O84    O     0.44217   0.21976   0.42590   0.00000  Uiso   1.00
O85    O     0.88043   0.29505   0.67884   0.00000  Uiso   1.00
O86    O     0.89643   0.74287   0.38234   0.00000  Uiso   1.00
N87    N     0.44487   0.29457   0.27980   0.00000  Uiso   1.00
N88    N     0.75717   0.34820   0.74743   0.00000  Uiso   1.00
N89    N     0.76859   0.66732   0.24872   0.00000  Uiso   1.00
N90    N     0.61045   0.25965   0.42060   0.00000  Uiso   1.00
N91    N     0.92275   0.31328   0.88823   0.00000  Uiso   1.00
N92    N     0.93417   0.63241   0.38952   0.00000  Uiso   1.00
C93    C     0.64228   0.06022   0.57964   0.00000  Uiso   1.00
C94    C     0.62834   0.10877   0.66923   0.00000  Uiso   1.00
C95    C     0.52439   0.13014   0.66611   0.00000  Uiso   1.00
C96    C     0.52994   0.17466   0.75621   0.00000  Uiso   1.00
C97    C     0.49220   0.24667   0.88159   0.00000  Uiso   1.00
C98    C     0.71441   0.09400   0.52250   0.00000  Uiso   1.00
C99    C     0.68282   0.10294   0.39601   0.00000  Uiso   1.00
C100   C     0.76083   0.13502   0.36261   0.00000  Uiso   1.00
C101   C     0.85675   0.18406   0.26019   0.00000  Uiso   1.00
C102   C     0.71754   0.00605   0.66066   0.00000  Uiso   1.00
C103   C     0.68861   0.94104   0.65033   0.00000  Uiso   1.00
C104   C     0.76928   0.89908   0.73324   0.00000  Uiso   1.00
C105   C     0.87006   0.81156   0.84534   0.00000  Uiso   1.00
C106   C     0.83701   0.10129   0.74522   0.00000  Uiso   1.00
C107   C     0.73411   0.13107   0.75916   0.00000  Uiso   1.00
C108   C     0.73982   0.17557   0.84930   0.00000  Uiso   1.00
C109   C     0.63589   0.19701   0.84631   0.00000  Uiso   1.00
C110   C     0.82017   0.11630   0.61243   0.00000  Uiso   1.00
C111   C     0.89826   0.14837   0.57920   0.00000  Uiso   1.00
C112   C     0.86679   0.15737   0.45270   0.00000  Uiso   1.00
C113   C     0.82331   0.02835   0.75060   0.00000  Uiso   1.00
C114   C     0.90404   0.98648   0.83353   0.00000  Uiso   1.00
C115   C     0.87523   0.92142   0.82333   0.00000  Uiso   1.00
H116   H     0.55994   0.04286   0.50962   0.00000  Uiso   1.00
H117   H     0.44255   0.11287   0.59648   0.00000  Uiso   1.00
H118   H     0.60097   0.08567   0.32644   0.00000  Uiso   1.00
H119   H     0.60675   0.92380   0.58072   0.00000  Uiso   1.00
H120   H     0.35905   0.20035   0.73242   0.00000  Uiso   1.00
H121   H     0.69309   0.14297   0.16301   0.00000  Uiso   1.00
H122   H     0.70529   0.80164   0.69922   0.00000  Uiso   1.00
H123   H     0.91936   0.11865   0.81524   0.00000  Uiso   1.00
H124   H     0.82168   0.19282   0.91888   0.00000  Uiso   1.00
H125   H     0.98010   0.16562   0.64883   0.00000  Uiso   1.00
H126   H     0.98588   0.00375   0.90311   0.00000  Uiso   1.00
H127   H     0.66676   0.26524   0.99409   0.00000  Uiso   1.00
H128   H     0.00081   0.20786   0.42467   0.00000  Uiso   1.00
H129   H     0.01300   0.86653   0.96088   0.00000  Uiso   1.00
O130   O     0.44217   0.28024   0.92590   0.00000  Uiso   1.00
O131   O     0.88043   0.20495   0.17884   0.00000  Uiso   1.00
O132   O     0.89643   0.75713   0.88234   0.00000  Uiso   1.00
N133   N     0.44487   0.20543   0.77980   0.00000  Uiso   1.00
N134   N     0.75717   0.15180   0.24743   0.00000  Uiso   1.00
N135   N     0.76859   0.83268   0.74872   0.00000  Uiso   1.00
N136   N     0.61045   0.24035   0.92060   0.00000  Uiso   1.00
N137   N     0.92275   0.18672   0.38823   0.00000  Uiso   1.00
N138   N     0.93417   0.86759   0.88952   0.00000  Uiso   1.00
C139   C     0.35772   0.56022   0.92036   0.00000  Uiso   1.00
C140   C     0.37166   0.60877   0.83077   0.00000  Uiso   1.00
C141   C     0.47561   0.63014   0.83389   0.00000  Uiso   1.00
C142   C     0.47006   0.67466   0.74379   0.00000  Uiso   1.00
C143   C     0.50780   0.74667   0.61841   0.00000  Uiso   1.00
C144   C     0.28559   0.59400   0.97750   0.00000  Uiso   1.00
C145   C     0.31718   0.60294   0.10399   0.00000  Uiso   1.00
C146   C     0.23917   0.63502   0.13739   0.00000  Uiso   1.00
C147   C     0.14325   0.68406   0.23981   0.00000  Uiso   1.00
C148   C     0.28246   0.50605   0.83934   0.00000  Uiso   1.00
C149   C     0.31139   0.44104   0.84967   0.00000  Uiso   1.00
C150   C     0.23072   0.39908   0.76676   0.00000  Uiso   1.00
C151   C     0.12994   0.31156   0.65466   0.00000  Uiso   1.00
C152   C     0.16299   0.60129   0.75478   0.00000  Uiso   1.00
C153   C     0.26589   0.63107   0.74084   0.00000  Uiso   1.00
C154   C     0.26018   0.67557   0.65070   0.00000  Uiso   1.00
C155   C     0.36411   0.69701   0.65369   0.00000  Uiso   1.00
C156   C     0.17983   0.61630   0.88757   0.00000  Uiso   1.00
C157   C     0.10174   0.64837   0.92080   0.00000  Uiso   1.00
C158   C     0.13321   0.65737   0.04730   0.00000  Uiso   1.00
C159   C     0.17669   0.52835   0.74940   0.00000  Uiso   1.00
C160   C     0.09596   0.48648   0.66647   0.00000  Uiso   1.00
C161   C     0.12477   0.42142   0.67667   0.00000  Uiso   1.00
H162   H     0.44006   0.54286   0.99038   0.00000  Uiso   1.00
H163   H     0.55745   0.61287   0.90352   0.00000  Uiso   1.00
H164   H     0.39903   0.58567   0.17356   0.00000  Uiso   1.00
H165   H     0.39325   0.42380   0.91928   0.00000  Uiso   1.00
H166   H     0.64095   0.70035   0.76758   0.00000  Uiso   1.00
H167   H     0.30691   0.64297   0.33699   0.00000  Uiso   1.00
H168   H     0.29471   0.30164   0.80078   0.00000  Uiso   1.00
H169   H     0.08064   0.61865   0.68476   0.00000  Uiso   1.00
H170   H     0.17832   0.69282   0.58112   0.00000  Uiso   1.00
H171   H     0.01990   0.66562   0.85117   0.00000  Uiso   1.00
H172   H     0.01412   0.50375   0.59689   0.00000  Uiso   1.00
H173   H     0.33324   0.76524   0.50591   0.00000  Uiso   1.00
H174   H     0.99919   0.70786   0.07533   0.00000  Uiso   1.00
H175   H     0.98700   0.36653   0.53912   0.00000  Uiso   1.00
O176   O     0.55783   0.78024   0.57410   0.00000  Uiso   1.00
O177   O     0.11957   0.70495   0.32116   0.00000  Uiso   1.00
O178   O     0.10357   0.25713   0.61766   0.00000  Uiso   1.00
N179   N     0.55513   0.70543   0.72020   0.00000  Uiso   1.00
N180   N     0.24283   0.65180   0.25257   0.00000  Uiso   1.00
N181   N     0.23141   0.33268   0.75128   0.00000  Uiso   1.00
N182   N     0.38955   0.74035   0.57940   0.00000  Uiso   1.00
N183   N     0.07725   0.68672   0.11177   0.00000  Uiso   1.00
N184   N     0.06583   0.36759   0.61048   0.00000  Uiso   1.00
