data_job_01182
_audit_creation_date              2018-12-19
_audit_creation_method            'Materials Studio'
_symmetry_space_group_name_H-M    'P1'
_symmetry_Int_Tables_number       1
_symmetry_cell_setting            triclinic
loop_
_symmetry_equiv_pos_as_xyz
  x,y,z
_cell_length_a                    7.5215
_cell_length_b                    17.9626
_cell_length_c                    18.6037
_cell_angle_alpha                 90.0000
_cell_angle_beta                  106.7631
_cell_angle_gamma                 90.0000
loop_
_atom_site_label
_atom_site_type_symbol
_atom_site_fract_x
_atom_site_fract_y
_atom_site_fract_z
_atom_site_U_iso_or_equiv
_atom_site_adp_type
_atom_site_occupancy
C1     C     0.47204   0.82171   0.22225   0.00000  Uiso   1.00
C2     C     0.56664   0.88118   0.27889   0.00000  Uiso   1.00
C3     C     0.48617   0.91939   0.32637   0.00000  Uiso   1.00
C4     C     0.59580   0.97168   0.37408   0.00000  Uiso   1.00
C5     C     0.71476   0.06199   0.46198   0.00000  Uiso   1.00
C6     C     0.48654   0.84838   0.14633   0.00000  Uiso   1.00
C7     C     0.33872   0.85900   0.08234   0.00000  Uiso   1.00
C8     C     0.38094   0.88367   0.01845   0.00000  Uiso   1.00
C9     C     0.37555   0.92301   0.90052   0.00000  Uiso   1.00
C10    C     0.59441   0.75264   0.24173   0.00000  Uiso   1.00
C11    C     0.53728   0.68276   0.25794   0.00000  Uiso   1.00
C12    C     0.67031   0.62681   0.27435   0.00000  Uiso   1.00
C13    C     0.83240   0.51750   0.30455   0.00000  Uiso   1.00
C14    C     0.80984   0.84662   0.22255   0.00000  Uiso   1.00
C15    C     0.75012   0.89471   0.27905   0.00000  Uiso   1.00
C16    C     0.85991   0.94695   0.32670   0.00000  Uiso   1.00
C17    C     0.77962   0.98523   0.37424   0.00000  Uiso   1.00
C18    C     0.67002   0.86191   0.14649   0.00000  Uiso   1.00
C19    C     0.71246   0.88656   0.08267   0.00000  Uiso   1.00
C20    C     0.56475   0.89723   0.01861   0.00000  Uiso   1.00
C21    C     0.77790   0.76617   0.24189   0.00000  Uiso   1.00
C22    C     0.91103   0.71032   0.25827   0.00000  Uiso   1.00
C23    C     0.85412   0.64037   0.27451   0.00000  Uiso   1.00
H24    H     0.32919   0.81117   0.22212   0.00000  Uiso   1.00
H25    H     0.34417   0.90891   0.32622   0.00000  Uiso   1.00
H26    H     0.19675   0.84852   0.08223   0.00000  Uiso   1.00
H27    H     0.39529   0.67231   0.25781   0.00000  Uiso   1.00
H28    H     0.44167   0.02325   0.44170   0.00000  Uiso   1.00
H29    H     0.13084   0.89590   0.92721   0.00000  Uiso   1.00
H30    H     0.54948   0.52431   0.29745   0.00000  Uiso   1.00
H31    H     0.95269   0.85715   0.22267   0.00000  Uiso   1.00
H32    H     0.00190   0.95741   0.32681   0.00000  Uiso   1.00
H33    H     0.85447   0.89702   0.08282   0.00000  Uiso   1.00
H34    H     0.05300   0.72081   0.25839   0.00000  Uiso   1.00
H35    H     0.97550   0.06262   0.44217   0.00000  Uiso   1.00
H36    H     0.66466   0.93526   0.92769   0.00000  Uiso   1.00
H37    H     0.08331   0.56368   0.29793   0.00000  Uiso   1.00
O38    O     0.72968   0.10807   0.51041   0.00000  Uiso   1.00
O39    O     0.32188   0.94098   0.83543   0.00000  Uiso   1.00
O40    O     0.87113   0.45347   0.32117   0.00000  Uiso   1.00
N41    N     0.56057   0.01874   0.42753   0.00000  Uiso   1.00
N42    N     0.26995   0.89969   0.94652   0.00000  Uiso   1.00
N43    N     0.66134   0.55229   0.29264   0.00000  Uiso   1.00
N44    N     0.84782   0.03993   0.42778   0.00000  Uiso   1.00
N45    N     0.55720   0.92087   0.94678   0.00000  Uiso   1.00
N46    N     0.94859   0.57347   0.29290   0.00000  Uiso   1.00
C47    C     0.52796   0.32171   0.27775   0.00000  Uiso   1.00
C48    C     0.43336   0.38118   0.22111   0.00000  Uiso   1.00
C49    C     0.51383   0.41939   0.17363   0.00000  Uiso   1.00
C50    C     0.40420   0.47168   0.12592   0.00000  Uiso   1.00
C51    C     0.28524   0.56199   0.03802   0.00000  Uiso   1.00
C52    C     0.51346   0.34838   0.35367   0.00000  Uiso   1.00
C53    C     0.66128   0.35900   0.41766   0.00000  Uiso   1.00
C54    C     0.61906   0.38367   0.48155   0.00000  Uiso   1.00
C55    C     0.62445   0.42301   0.59948   0.00000  Uiso   1.00
C56    C     0.40559   0.25264   0.25827   0.00000  Uiso   1.00
C57    C     0.46272   0.18276   0.24206   0.00000  Uiso   1.00
C58    C     0.32969   0.12681   0.22565   0.00000  Uiso   1.00
C59    C     0.16760   0.01750   0.19545   0.00000  Uiso   1.00
C60    C     0.19016   0.34662   0.27745   0.00000  Uiso   1.00
C61    C     0.24988   0.39471   0.22095   0.00000  Uiso   1.00
C62    C     0.14009   0.44695   0.17330   0.00000  Uiso   1.00
C63    C     0.22038   0.48523   0.12576   0.00000  Uiso   1.00
C64    C     0.32998   0.36191   0.35351   0.00000  Uiso   1.00
C65    C     0.28754   0.38656   0.41733   0.00000  Uiso   1.00
C66    C     0.43525   0.39723   0.48139   0.00000  Uiso   1.00
C67    C     0.22210   0.26617   0.25811   0.00000  Uiso   1.00
C68    C     0.08897   0.21032   0.24173   0.00000  Uiso   1.00
C69    C     0.14588   0.14037   0.22549   0.00000  Uiso   1.00
H70    H     0.67081   0.31117   0.27788   0.00000  Uiso   1.00
H71    H     0.65583   0.40891   0.17378   0.00000  Uiso   1.00
H72    H     0.80325   0.34852   0.41777   0.00000  Uiso   1.00
H73    H     0.60471   0.17231   0.24219   0.00000  Uiso   1.00
H74    H     0.55833   0.52325   0.05830   0.00000  Uiso   1.00
H75    H     0.86916   0.39590   0.57279   0.00000  Uiso   1.00
H76    H     0.45052   0.02431   0.20255   0.00000  Uiso   1.00
H77    H     0.04731   0.35715   0.27733   0.00000  Uiso   1.00
H78    H     0.99810   0.45741   0.17319   0.00000  Uiso   1.00
H79    H     0.14553   0.39702   0.41718   0.00000  Uiso   1.00
H80    H     0.94700   0.22081   0.24161   0.00000  Uiso   1.00
H81    H     0.02450   0.56262   0.05783   0.00000  Uiso   1.00
H82    H     0.33534   0.43526   0.57231   0.00000  Uiso   1.00
H83    H     0.91669   0.06368   0.20207   0.00000  Uiso   1.00
O84    O     0.27032   0.60807   0.98959   0.00000  Uiso   1.00
O85    O     0.67812   0.44098   0.66457   0.00000  Uiso   1.00
O86    O     0.12887   0.95347   0.17883   0.00000  Uiso   1.00
N87    N     0.43943   0.51874   0.07247   0.00000  Uiso   1.00
N88    N     0.73005   0.39969   0.55348   0.00000  Uiso   1.00
N89    N     0.33866   0.05229   0.20736   0.00000  Uiso   1.00
N90    N     0.15218   0.53993   0.07222   0.00000  Uiso   1.00
N91    N     0.44280   0.42087   0.55322   0.00000  Uiso   1.00
N92    N     0.05141   0.07347   0.20710   0.00000  Uiso   1.00
C93    C     0.52796   0.17829   0.77775   0.00000  Uiso   1.00
C94    C     0.43336   0.11882   0.72111   0.00000  Uiso   1.00
C95    C     0.51383   0.08061   0.67363   0.00000  Uiso   1.00
C96    C     0.40420   0.02832   0.62592   0.00000  Uiso   1.00
C97    C     0.28524   0.93801   0.53802   0.00000  Uiso   1.00
C98    C     0.51346   0.15162   0.85367   0.00000  Uiso   1.00
C99    C     0.66128   0.14100   0.91766   0.00000  Uiso   1.00
C100   C     0.61906   0.11633   0.98155   0.00000  Uiso   1.00
C101   C     0.62445   0.07699   0.09948   0.00000  Uiso   1.00
C102   C     0.40559   0.24736   0.75827   0.00000  Uiso   1.00
C103   C     0.46272   0.31724   0.74206   0.00000  Uiso   1.00
C104   C     0.32969   0.37319   0.72565   0.00000  Uiso   1.00
C105   C     0.16760   0.48250   0.69545   0.00000  Uiso   1.00
C106   C     0.19016   0.15338   0.77745   0.00000  Uiso   1.00
C107   C     0.24988   0.10529   0.72095   0.00000  Uiso   1.00
C108   C     0.14009   0.05305   0.67330   0.00000  Uiso   1.00
C109   C     0.22038   0.01477   0.62576   0.00000  Uiso   1.00
C110   C     0.32998   0.13809   0.85351   0.00000  Uiso   1.00
C111   C     0.28754   0.11344   0.91733   0.00000  Uiso   1.00
C112   C     0.43525   0.10277   0.98139   0.00000  Uiso   1.00
C113   C     0.22210   0.23383   0.75811   0.00000  Uiso   1.00
C114   C     0.08897   0.28968   0.74173   0.00000  Uiso   1.00
C115   C     0.14588   0.35963   0.72549   0.00000  Uiso   1.00
H116   H     0.67081   0.18883   0.77788   0.00000  Uiso   1.00
H117   H     0.65583   0.09109   0.67378   0.00000  Uiso   1.00
H118   H     0.80325   0.15148   0.91777   0.00000  Uiso   1.00
H119   H     0.60471   0.32769   0.74219   0.00000  Uiso   1.00
H120   H     0.55833   0.97675   0.55830   0.00000  Uiso   1.00
H121   H     0.86916   0.10410   0.07279   0.00000  Uiso   1.00
H122   H     0.45052   0.47569   0.70255   0.00000  Uiso   1.00
H123   H     0.04731   0.14285   0.77733   0.00000  Uiso   1.00
H124   H     0.99810   0.04259   0.67319   0.00000  Uiso   1.00
H125   H     0.14553   0.10298   0.91718   0.00000  Uiso   1.00
H126   H     0.94700   0.27919   0.74161   0.00000  Uiso   1.00
H127   H     0.02450   0.93738   0.55783   0.00000  Uiso   1.00
H128   H     0.33534   0.06474   0.07231   0.00000  Uiso   1.00
H129   H     0.91669   0.43632   0.70207   0.00000  Uiso   1.00
O130   O     0.27032   0.89193   0.48959   0.00000  Uiso   1.00
O131   O     0.67812   0.05902   0.16457   0.00000  Uiso   1.00
O132   O     0.12887   0.54653   0.67883   0.00000  Uiso   1.00
N133   N     0.43943   0.98126   0.57247   0.00000  Uiso   1.00
N134   N     0.73005   0.10031   0.05348   0.00000  Uiso   1.00
N135   N     0.33866   0.44771   0.70736   0.00000  Uiso   1.00
N136   N     0.15218   0.96007   0.57222   0.00000  Uiso   1.00
N137   N     0.44280   0.07913   0.05322   0.00000  Uiso   1.00
N138   N     0.05141   0.42653   0.70710   0.00000  Uiso   1.00
C139   C     0.47204   0.67829   0.72225   0.00000  Uiso   1.00
C140   C     0.56664   0.61882   0.77889   0.00000  Uiso   1.00
C141   C     0.48617   0.58061   0.82637   0.00000  Uiso   1.00
C142   C     0.59580   0.52832   0.87408   0.00000  Uiso   1.00
C143   C     0.71476   0.43801   0.96198   0.00000  Uiso   1.00
C144   C     0.48654   0.65162   0.64633   0.00000  Uiso   1.00
C145   C     0.33872   0.64100   0.58234   0.00000  Uiso   1.00
C146   C     0.38094   0.61633   0.51845   0.00000  Uiso   1.00
C147   C     0.37555   0.57699   0.40052   0.00000  Uiso   1.00
C148   C     0.59441   0.74736   0.74173   0.00000  Uiso   1.00
C149   C     0.53728   0.81724   0.75794   0.00000  Uiso   1.00
C150   C     0.67031   0.87319   0.77435   0.00000  Uiso   1.00
C151   C     0.83240   0.98250   0.80455   0.00000  Uiso   1.00
C152   C     0.80984   0.65338   0.72255   0.00000  Uiso   1.00
C153   C     0.75012   0.60529   0.77905   0.00000  Uiso   1.00
C154   C     0.85991   0.55305   0.82670   0.00000  Uiso   1.00
C155   C     0.77962   0.51477   0.87424   0.00000  Uiso   1.00
C156   C     0.67002   0.63809   0.64649   0.00000  Uiso   1.00
C157   C     0.71246   0.61344   0.58267   0.00000  Uiso   1.00
C158   C     0.56475   0.60277   0.51861   0.00000  Uiso   1.00
C159   C     0.77790   0.73383   0.74189   0.00000  Uiso   1.00
C160   C     0.91103   0.78968   0.75827   0.00000  Uiso   1.00
C161   C     0.85412   0.85963   0.77451   0.00000  Uiso   1.00
H162   H     0.32919   0.68883   0.72212   0.00000  Uiso   1.00
H163   H     0.34417   0.59109   0.82622   0.00000  Uiso   1.00
H164   H     0.19675   0.65148   0.58223   0.00000  Uiso   1.00
H165   H     0.39529   0.82769   0.75781   0.00000  Uiso   1.00
H166   H     0.44167   0.47675   0.94170   0.00000  Uiso   1.00
H167   H     0.13084   0.60410   0.42721   0.00000  Uiso   1.00
H168   H     0.54948   0.97569   0.79745   0.00000  Uiso   1.00
H169   H     0.95269   0.64285   0.72267   0.00000  Uiso   1.00
H170   H     0.00190   0.54259   0.82681   0.00000  Uiso   1.00
H171   H     0.85447   0.60298   0.58282   0.00000  Uiso   1.00
H172   H     0.05300   0.77919   0.75839   0.00000  Uiso   1.00
H173   H     0.97550   0.43738   0.94217   0.00000  Uiso   1.00
H174   H     0.66466   0.56474   0.42769   0.00000  Uiso   1.00
H175   H     0.08331   0.93632   0.79793   0.00000  Uiso   1.00
O176   O     0.72968   0.39193   0.01041   0.00000  Uiso   1.00
O177   O     0.32188   0.55902   0.33543   0.00000  Uiso   1.00
O178   O     0.87113   0.04653   0.82117   0.00000  Uiso   1.00
N179   N     0.56057   0.48126   0.92753   0.00000  Uiso   1.00
N180   N     0.26995   0.60031   0.44652   0.00000  Uiso   1.00
N181   N     0.66134   0.94771   0.79264   0.00000  Uiso   1.00
N182   N     0.84782   0.46007   0.92778   0.00000  Uiso   1.00
N183   N     0.55720   0.57913   0.44678   0.00000  Uiso   1.00
N184   N     0.94859   0.92653   0.79290   0.00000  Uiso   1.00
