data_job_01585
_audit_creation_date              2018-12-19
_audit_creation_method            'Materials Studio'
_symmetry_space_group_name_H-M    'P1'
_symmetry_Int_Tables_number       1
_symmetry_cell_setting            triclinic
loop_
_symmetry_equiv_pos_as_xyz
  x,y,z
_cell_length_a                    19.6085
_cell_length_b                    9.7908
_cell_length_c                    12.4081
_cell_angle_alpha                 90.0000
_cell_angle_beta                  90.0000
_cell_angle_gamma                 90.0000
loop_
_atom_site_label
_atom_site_type_symbol
_atom_site_fract_x
_atom_site_fract_y
_atom_site_fract_z
_atom_site_U_iso_or_equiv
_atom_site_adp_type
_atom_site_occupancy
C1     C     0.50282   0.99508   0.13763   0.00000  Uiso   1.00
C2     C     0.46231   0.88822   0.07522   0.00000  Uiso   1.00
C3     C     0.46940   0.74772   0.08488   0.00000  Uiso   1.00
C4     C     0.42759   0.66725   0.02068   0.00000  Uiso   1.00
C5     C     0.37188   0.49249   0.93457   0.00000  Uiso   1.00
C6     C     0.53637   0.08604   0.05312   0.00000  Uiso   1.00
C7     C     0.60573   0.11188   0.04420   0.00000  Uiso   1.00
C8     C     0.62626   0.19795   0.96140   0.00000  Uiso   1.00
C9     C     0.68553   0.33038   0.84102   0.00000  Uiso   1.00
C10    C     0.45026   0.08427   0.19464   0.00000  Uiso   1.00
C11    C     0.44723   0.10865   0.30472   0.00000  Uiso   1.00
C12    C     0.39526   0.19326   0.34107   0.00000  Uiso   1.00
C13    C     0.32084   0.32294   0.44043   0.00000  Uiso   1.00
C14    C     0.41595   0.10201   0.00645   0.00000  Uiso   1.00
C15    C     0.41512   0.94630   0.00397   0.00000  Uiso   1.00
C16    C     0.37328   0.86603   0.93974   0.00000  Uiso   1.00
C17    C     0.38031   0.72543   0.94930   0.00000  Uiso   1.00
C18    C     0.48919   0.14412   0.98186   0.00000  Uiso   1.00
C19    C     0.50962   0.23018   0.89906   0.00000  Uiso   1.00
C20    C     0.57899   0.25613   0.89001   0.00000  Uiso   1.00
C21    C     0.40307   0.14235   0.12339   0.00000  Uiso   1.00
C22    C     0.35111   0.22695   0.15957   0.00000  Uiso   1.00
C23    C     0.34799   0.25145   0.26968   0.00000  Uiso   1.00
H24    H     0.53956   0.94987   0.19310   0.00000  Uiso   1.00
H25    H     0.50593   0.70282   0.14002   0.00000  Uiso   1.00
H26    H     0.64224   0.06693   0.09936   0.00000  Uiso   1.00
H27    H     0.48375   0.06369   0.35983   0.00000  Uiso   1.00
H28    H     0.44785   0.45452   0.04972   0.00000  Uiso   1.00
H29    H     0.73526   0.22230   0.96400   0.00000  Uiso   1.00
H30    H     0.40107   0.21549   0.51327   0.00000  Uiso   1.00
H31    H     0.37921   0.14723   0.95097   0.00000  Uiso   1.00
H32    H     0.33677   0.91100   0.88460   0.00000  Uiso   1.00
H33    H     0.47308   0.27511   0.84394   0.00000  Uiso   1.00
H34    H     0.31460   0.27187   0.10441   0.00000  Uiso   1.00
H35    H     0.31056   0.62349   0.84241   0.00000  Uiso   1.00
H36    H     0.59797   0.39128   0.75669   0.00000  Uiso   1.00
H37    H     0.26377   0.38446   0.30596   0.00000  Uiso   1.00
O38    O     0.35420   0.38005   0.90675   0.00000  Uiso   1.00
O39    O     0.73127   0.38736   0.79431   0.00000  Uiso   1.00
O40    O     0.29281   0.37841   0.51493   0.00000  Uiso   1.00
N41    N     0.42135   0.52671   0.01006   0.00000  Uiso   1.00
N42    N     0.69006   0.24452   0.92990   0.00000  Uiso   1.00
N43    N     0.37763   0.23818   0.44342   0.00000  Uiso   1.00
N44    N     0.34748   0.61763   0.89851   0.00000  Uiso   1.00
N45    N     0.61619   0.33544   0.81835   0.00000  Uiso   1.00
N46    N     0.30376   0.32910   0.33186   0.00000  Uiso   1.00
C47    C     0.49718   0.00492   0.63763   0.00000  Uiso   1.00
C48    C     0.53769   0.11178   0.57522   0.00000  Uiso   1.00
C49    C     0.53060   0.25228   0.58488   0.00000  Uiso   1.00
C50    C     0.57241   0.33275   0.52068   0.00000  Uiso   1.00
C51    C     0.62812   0.50751   0.43457   0.00000  Uiso   1.00
C52    C     0.46363   0.91396   0.55312   0.00000  Uiso   1.00
C53    C     0.39427   0.88812   0.54420   0.00000  Uiso   1.00
C54    C     0.37374   0.80205   0.46140   0.00000  Uiso   1.00
C55    C     0.31447   0.66962   0.34102   0.00000  Uiso   1.00
C56    C     0.54974   0.91573   0.69464   0.00000  Uiso   1.00
C57    C     0.55277   0.89135   0.80472   0.00000  Uiso   1.00
C58    C     0.60474   0.80674   0.84107   0.00000  Uiso   1.00
C59    C     0.67916   0.67706   0.94043   0.00000  Uiso   1.00
C60    C     0.58405   0.89799   0.50645   0.00000  Uiso   1.00
C61    C     0.58488   0.05370   0.50397   0.00000  Uiso   1.00
C62    C     0.62672   0.13397   0.43974   0.00000  Uiso   1.00
C63    C     0.61969   0.27457   0.44930   0.00000  Uiso   1.00
C64    C     0.51081   0.85588   0.48186   0.00000  Uiso   1.00
C65    C     0.49038   0.76982   0.39906   0.00000  Uiso   1.00
C66    C     0.42101   0.74387   0.39001   0.00000  Uiso   1.00
C67    C     0.59693   0.85765   0.62339   0.00000  Uiso   1.00
C68    C     0.64889   0.77305   0.65957   0.00000  Uiso   1.00
C69    C     0.65201   0.74855   0.76968   0.00000  Uiso   1.00
H70    H     0.46044   0.05013   0.69310   0.00000  Uiso   1.00
H71    H     0.49407   0.29718   0.64002   0.00000  Uiso   1.00
H72    H     0.35776   0.93307   0.59936   0.00000  Uiso   1.00
H73    H     0.51625   0.93631   0.85983   0.00000  Uiso   1.00
H74    H     0.55215   0.54548   0.54972   0.00000  Uiso   1.00
H75    H     0.26474   0.77770   0.46400   0.00000  Uiso   1.00
H76    H     0.59893   0.78451   0.01327   0.00000  Uiso   1.00
H77    H     0.62079   0.85277   0.45097   0.00000  Uiso   1.00
H78    H     0.66323   0.08900   0.38460   0.00000  Uiso   1.00
H79    H     0.52692   0.72489   0.34394   0.00000  Uiso   1.00
H80    H     0.68540   0.72813   0.60441   0.00000  Uiso   1.00
H81    H     0.68944   0.37651   0.34241   0.00000  Uiso   1.00
H82    H     0.40203   0.60872   0.25669   0.00000  Uiso   1.00
H83    H     0.73623   0.61554   0.80596   0.00000  Uiso   1.00
O84    O     0.64580   0.61995   0.40675   0.00000  Uiso   1.00
O85    O     0.26873   0.61264   0.29431   0.00000  Uiso   1.00
O86    O     0.70719   0.62159   0.01493   0.00000  Uiso   1.00
N87    N     0.57865   0.47329   0.51006   0.00000  Uiso   1.00
N88    N     0.30994   0.75548   0.42990   0.00000  Uiso   1.00
N89    N     0.62237   0.76182   0.94342   0.00000  Uiso   1.00
N90    N     0.65252   0.38237   0.39851   0.00000  Uiso   1.00
N91    N     0.38381   0.66456   0.31835   0.00000  Uiso   1.00
N92    N     0.69624   0.67090   0.83186   0.00000  Uiso   1.00
C93    C     0.00282   0.00492   0.13763   0.00000  Uiso   1.00
C94    C     0.96231   0.11178   0.07522   0.00000  Uiso   1.00
C95    C     0.96940   0.25228   0.08488   0.00000  Uiso   1.00
C96    C     0.92759   0.33275   0.02068   0.00000  Uiso   1.00
C97    C     0.87188   0.50751   0.93457   0.00000  Uiso   1.00
C98    C     0.03637   0.91396   0.05312   0.00000  Uiso   1.00
C99    C     0.10573   0.88812   0.04420   0.00000  Uiso   1.00
C100   C     0.12626   0.80205   0.96140   0.00000  Uiso   1.00
C101   C     0.18553   0.66962   0.84102   0.00000  Uiso   1.00
C102   C     0.95026   0.91573   0.19464   0.00000  Uiso   1.00
C103   C     0.94723   0.89135   0.30472   0.00000  Uiso   1.00
C104   C     0.89526   0.80674   0.34107   0.00000  Uiso   1.00
C105   C     0.82084   0.67706   0.44043   0.00000  Uiso   1.00
C106   C     0.91595   0.89799   0.00645   0.00000  Uiso   1.00
C107   C     0.91512   0.05370   0.00397   0.00000  Uiso   1.00
C108   C     0.87328   0.13397   0.93974   0.00000  Uiso   1.00
C109   C     0.88031   0.27457   0.94930   0.00000  Uiso   1.00
C110   C     0.98919   0.85588   0.98186   0.00000  Uiso   1.00
C111   C     0.00962   0.76982   0.89906   0.00000  Uiso   1.00
C112   C     0.07899   0.74387   0.89001   0.00000  Uiso   1.00
C113   C     0.90307   0.85765   0.12339   0.00000  Uiso   1.00
C114   C     0.85111   0.77305   0.15957   0.00000  Uiso   1.00
C115   C     0.84799   0.74855   0.26968   0.00000  Uiso   1.00
H116   H     0.03956   0.05013   0.19310   0.00000  Uiso   1.00
H117   H     0.00593   0.29718   0.14002   0.00000  Uiso   1.00
H118   H     0.14224   0.93307   0.09936   0.00000  Uiso   1.00
H119   H     0.98375   0.93631   0.35983   0.00000  Uiso   1.00
H120   H     0.94785   0.54548   0.04972   0.00000  Uiso   1.00
H121   H     0.23526   0.77770   0.96400   0.00000  Uiso   1.00
H122   H     0.90107   0.78451   0.51327   0.00000  Uiso   1.00
H123   H     0.87921   0.85277   0.95097   0.00000  Uiso   1.00
H124   H     0.83677   0.08900   0.88460   0.00000  Uiso   1.00
H125   H     0.97308   0.72489   0.84394   0.00000  Uiso   1.00
H126   H     0.81460   0.72813   0.10441   0.00000  Uiso   1.00
H127   H     0.81056   0.37651   0.84241   0.00000  Uiso   1.00
H128   H     0.09797   0.60872   0.75669   0.00000  Uiso   1.00
H129   H     0.76377   0.61554   0.30596   0.00000  Uiso   1.00
O130   O     0.85420   0.61995   0.90675   0.00000  Uiso   1.00
O131   O     0.23127   0.61264   0.79431   0.00000  Uiso   1.00
O132   O     0.79281   0.62159   0.51493   0.00000  Uiso   1.00
N133   N     0.92135   0.47329   0.01006   0.00000  Uiso   1.00
N134   N     0.19006   0.75548   0.92990   0.00000  Uiso   1.00
N135   N     0.87763   0.76182   0.44342   0.00000  Uiso   1.00
N136   N     0.84748   0.38237   0.89851   0.00000  Uiso   1.00
N137   N     0.11619   0.66456   0.81835   0.00000  Uiso   1.00
N138   N     0.80376   0.67090   0.33186   0.00000  Uiso   1.00
C139   C     0.99718   0.99508   0.63763   0.00000  Uiso   1.00
C140   C     0.03769   0.88822   0.57522   0.00000  Uiso   1.00
C141   C     0.03060   0.74772   0.58488   0.00000  Uiso   1.00
C142   C     0.07241   0.66725   0.52068   0.00000  Uiso   1.00
C143   C     0.12812   0.49249   0.43457   0.00000  Uiso   1.00
C144   C     0.96363   0.08604   0.55312   0.00000  Uiso   1.00
C145   C     0.89427   0.11188   0.54420   0.00000  Uiso   1.00
C146   C     0.87374   0.19795   0.46140   0.00000  Uiso   1.00
C147   C     0.81447   0.33038   0.34102   0.00000  Uiso   1.00
C148   C     0.04974   0.08427   0.69464   0.00000  Uiso   1.00
C149   C     0.05277   0.10865   0.80472   0.00000  Uiso   1.00
C150   C     0.10474   0.19326   0.84107   0.00000  Uiso   1.00
C151   C     0.17916   0.32294   0.94043   0.00000  Uiso   1.00
C152   C     0.08405   0.10201   0.50645   0.00000  Uiso   1.00
C153   C     0.08488   0.94630   0.50397   0.00000  Uiso   1.00
C154   C     0.12672   0.86603   0.43974   0.00000  Uiso   1.00
C155   C     0.11969   0.72543   0.44930   0.00000  Uiso   1.00
C156   C     0.01081   0.14412   0.48186   0.00000  Uiso   1.00
C157   C     0.99038   0.23018   0.39906   0.00000  Uiso   1.00
C158   C     0.92101   0.25613   0.39001   0.00000  Uiso   1.00
C159   C     0.09693   0.14235   0.62339   0.00000  Uiso   1.00
C160   C     0.14889   0.22695   0.65957   0.00000  Uiso   1.00
C161   C     0.15201   0.25145   0.76968   0.00000  Uiso   1.00
H162   H     0.96044   0.94987   0.69310   0.00000  Uiso   1.00
H163   H     0.99407   0.70282   0.64002   0.00000  Uiso   1.00
H164   H     0.85776   0.06693   0.59936   0.00000  Uiso   1.00
H165   H     0.01625   0.06369   0.85983   0.00000  Uiso   1.00
H166   H     0.05215   0.45452   0.54972   0.00000  Uiso   1.00
H167   H     0.76474   0.22230   0.46400   0.00000  Uiso   1.00
H168   H     0.09893   0.21549   0.01327   0.00000  Uiso   1.00
H169   H     0.12079   0.14723   0.45097   0.00000  Uiso   1.00
H170   H     0.16323   0.91100   0.38460   0.00000  Uiso   1.00
H171   H     0.02692   0.27511   0.34394   0.00000  Uiso   1.00
H172   H     0.18540   0.27187   0.60441   0.00000  Uiso   1.00
H173   H     0.18944   0.62349   0.34241   0.00000  Uiso   1.00
H174   H     0.90203   0.39128   0.25669   0.00000  Uiso   1.00
H175   H     0.23623   0.38446   0.80596   0.00000  Uiso   1.00
O176   O     0.14580   0.38005   0.40675   0.00000  Uiso   1.00
O177   O     0.76873   0.38736   0.29431   0.00000  Uiso   1.00
O178   O     0.20719   0.37841   0.01493   0.00000  Uiso   1.00
N179   N     0.07865   0.52671   0.51006   0.00000  Uiso   1.00
N180   N     0.80994   0.24452   0.42990   0.00000  Uiso   1.00
N181   N     0.12237   0.23818   0.94342   0.00000  Uiso   1.00
N182   N     0.15252   0.61763   0.39851   0.00000  Uiso   1.00
N183   N     0.88381   0.33544   0.31835   0.00000  Uiso   1.00
N184   N     0.19624   0.32910   0.83186   0.00000  Uiso   1.00
