data_job_01672
_audit_creation_date              2018-12-19
_audit_creation_method            'Materials Studio'
_symmetry_space_group_name_H-M    'P1'
_symmetry_Int_Tables_number       1
_symmetry_cell_setting            triclinic
loop_
_symmetry_equiv_pos_as_xyz
  x,y,z
_cell_length_a                    8.5626
_cell_length_b                    18.8372
_cell_length_c                    15.6169
_cell_angle_alpha                 90.0000
_cell_angle_beta                  90.0000
_cell_angle_gamma                 90.0000
loop_
_atom_site_label
_atom_site_type_symbol
_atom_site_fract_x
_atom_site_fract_y
_atom_site_fract_z
_atom_site_U_iso_or_equiv
_atom_site_adp_type
_atom_site_occupancy
C1     C     0.23604   0.44200   0.44152   0.00000  Uiso   1.00
C2     C     0.26004   0.40598   0.35507   0.00000  Uiso   1.00
C3     C     0.39425   0.37080   0.32898   0.00000  Uiso   1.00
C4     C     0.39309   0.34141   0.24745   0.00000  Uiso   1.00
C5     C     0.45026   0.28466   0.12132   0.00000  Uiso   1.00
C6     C     0.19280   0.51881   0.42182   0.00000  Uiso   1.00
C7     C     0.27046   0.57849   0.45186   0.00000  Uiso   1.00
C8     C     0.21268   0.64408   0.42653   0.00000  Uiso   1.00
C9     C     0.16540   0.76250   0.40408   0.00000  Uiso   1.00
C10    C     0.09033   0.40832   0.48026   0.00000  Uiso   1.00
C11    C     0.08182   0.37511   0.55944   0.00000  Uiso   1.00
C12    C     0.93774   0.34768   0.58333   0.00000  Uiso   1.00
C13    C     0.73136   0.29454   0.65161   0.00000  Uiso   1.00
C14    C     0.99532   0.45237   0.34314   0.00000  Uiso   1.00
C15    C     0.12928   0.41162   0.30163   0.00000  Uiso   1.00
C16    C     0.12791   0.38227   0.22012   0.00000  Uiso   1.00
C17    C     0.26210   0.34704   0.19392   0.00000  Uiso   1.00
C18    C     0.06205   0.52445   0.36838   0.00000  Uiso   1.00
C19    C     0.00413   0.58996   0.34301   0.00000  Uiso   1.00
C20    C     0.08169   0.64972   0.37299   0.00000  Uiso   1.00
C21    C     0.95957   0.41395   0.42682   0.00000  Uiso   1.00
C22    C     0.81548   0.38657   0.45059   0.00000  Uiso   1.00
C23    C     0.80676   0.35332   0.52979   0.00000  Uiso   1.00
H24    H     0.33784   0.43762   0.48313   0.00000  Uiso   1.00
H25    H     0.49542   0.36646   0.37035   0.00000  Uiso   1.00
H26    H     0.37164   0.57412   0.49322   0.00000  Uiso   1.00
H27    H     0.18302   0.37076   0.60078   0.00000  Uiso   1.00
H28    H     0.61248   0.29007   0.22173   0.00000  Uiso   1.00
H29    H     0.35145   0.72793   0.48083   0.00000  Uiso   1.00
H30    H     0.95372   0.29911   0.70766   0.00000  Uiso   1.00
H31    H     0.89351   0.45675   0.30153   0.00000  Uiso   1.00
H32    H     0.02671   0.38663   0.17878   0.00000  Uiso   1.00
H33    H     0.90294   0.59430   0.30165   0.00000  Uiso   1.00
H34    H     0.71432   0.39094   0.40922   0.00000  Uiso   1.00
H35    H     0.23207   0.30645   0.06625   0.00000  Uiso   1.00
H36    H     0.97103   0.74431   0.32536   0.00000  Uiso   1.00
H37    H     0.57331   0.31549   0.55217   0.00000  Uiso   1.00
O38    O     0.51793   0.25181   0.06651   0.00000  Uiso   1.00
O39    O     0.17545   0.82626   0.40646   0.00000  Uiso   1.00
O40    O     0.65365   0.26366   0.70404   0.00000  Uiso   1.00
N41    N     0.50466   0.30353   0.20199   0.00000  Uiso   1.00
N42    N     0.26063   0.71291   0.44422   0.00000  Uiso   1.00
N43    N     0.88878   0.31201   0.65629   0.00000  Uiso   1.00
N44    N     0.29996   0.31234   0.11833   0.00000  Uiso   1.00
N45    N     0.05593   0.72172   0.36056   0.00000  Uiso   1.00
N46    N     0.68408   0.32083   0.57263   0.00000  Uiso   1.00
C47    C     0.76396   0.55800   0.94152   0.00000  Uiso   1.00
C48    C     0.73996   0.59402   0.85507   0.00000  Uiso   1.00
C49    C     0.60575   0.62920   0.82898   0.00000  Uiso   1.00
C50    C     0.60691   0.65859   0.74745   0.00000  Uiso   1.00
C51    C     0.54974   0.71534   0.62132   0.00000  Uiso   1.00
C52    C     0.80720   0.48119   0.92182   0.00000  Uiso   1.00
C53    C     0.72954   0.42151   0.95186   0.00000  Uiso   1.00
C54    C     0.78732   0.35592   0.92653   0.00000  Uiso   1.00
C55    C     0.83460   0.23750   0.90408   0.00000  Uiso   1.00
C56    C     0.90967   0.59168   0.98026   0.00000  Uiso   1.00
C57    C     0.91818   0.62489   0.05944   0.00000  Uiso   1.00
C58    C     0.06226   0.65232   0.08333   0.00000  Uiso   1.00
C59    C     0.26864   0.70546   0.15161   0.00000  Uiso   1.00
C60    C     0.00468   0.54763   0.84314   0.00000  Uiso   1.00
C61    C     0.87072   0.58838   0.80163   0.00000  Uiso   1.00
C62    C     0.87209   0.61773   0.72012   0.00000  Uiso   1.00
C63    C     0.73790   0.65296   0.69392   0.00000  Uiso   1.00
C64    C     0.93795   0.47555   0.86838   0.00000  Uiso   1.00
C65    C     0.99587   0.41004   0.84301   0.00000  Uiso   1.00
C66    C     0.91831   0.35028   0.87299   0.00000  Uiso   1.00
C67    C     0.04043   0.58605   0.92682   0.00000  Uiso   1.00
C68    C     0.18452   0.61343   0.95059   0.00000  Uiso   1.00
C69    C     0.19324   0.64668   0.02979   0.00000  Uiso   1.00
H70    H     0.66216   0.56238   0.98313   0.00000  Uiso   1.00
H71    H     0.50458   0.63354   0.87035   0.00000  Uiso   1.00
H72    H     0.62836   0.42588   0.99322   0.00000  Uiso   1.00
H73    H     0.81698   0.62924   0.10078   0.00000  Uiso   1.00
H74    H     0.38752   0.70993   0.72173   0.00000  Uiso   1.00
H75    H     0.64855   0.27207   0.98083   0.00000  Uiso   1.00
H76    H     0.04628   0.70089   0.20766   0.00000  Uiso   1.00
H77    H     0.10649   0.54325   0.80153   0.00000  Uiso   1.00
H78    H     0.97329   0.61337   0.67878   0.00000  Uiso   1.00
H79    H     0.09706   0.40570   0.80165   0.00000  Uiso   1.00
H80    H     0.28568   0.60906   0.90922   0.00000  Uiso   1.00
H81    H     0.76793   0.69355   0.56625   0.00000  Uiso   1.00
H82    H     0.02897   0.25569   0.82536   0.00000  Uiso   1.00
H83    H     0.42669   0.68451   0.05217   0.00000  Uiso   1.00
O84    O     0.48207   0.74819   0.56651   0.00000  Uiso   1.00
O85    O     0.82455   0.17374   0.90646   0.00000  Uiso   1.00
O86    O     0.34635   0.73634   0.20404   0.00000  Uiso   1.00
N87    N     0.49534   0.69647   0.70199   0.00000  Uiso   1.00
N88    N     0.73937   0.28709   0.94422   0.00000  Uiso   1.00
N89    N     0.11122   0.68799   0.15629   0.00000  Uiso   1.00
N90    N     0.70004   0.68766   0.61833   0.00000  Uiso   1.00
N91    N     0.94407   0.27828   0.86056   0.00000  Uiso   1.00
N92    N     0.31592   0.67917   0.07263   0.00000  Uiso   1.00
C93    C     0.73604   0.05800   0.44152   0.00000  Uiso   1.00
C94    C     0.76004   0.09402   0.35507   0.00000  Uiso   1.00
C95    C     0.89425   0.12920   0.32898   0.00000  Uiso   1.00
C96    C     0.89309   0.15859   0.24745   0.00000  Uiso   1.00
C97    C     0.95026   0.21534   0.12132   0.00000  Uiso   1.00
C98    C     0.69280   0.98119   0.42182   0.00000  Uiso   1.00
C99    C     0.77046   0.92151   0.45186   0.00000  Uiso   1.00
C100   C     0.71268   0.85592   0.42653   0.00000  Uiso   1.00
C101   C     0.66540   0.73750   0.40408   0.00000  Uiso   1.00
C102   C     0.59033   0.09168   0.48026   0.00000  Uiso   1.00
C103   C     0.58182   0.12489   0.55944   0.00000  Uiso   1.00
C104   C     0.43774   0.15232   0.58333   0.00000  Uiso   1.00
C105   C     0.23136   0.20546   0.65161   0.00000  Uiso   1.00
C106   C     0.49532   0.04763   0.34314   0.00000  Uiso   1.00
C107   C     0.62928   0.08838   0.30163   0.00000  Uiso   1.00
C108   C     0.62791   0.11773   0.22012   0.00000  Uiso   1.00
C109   C     0.76210   0.15296   0.19392   0.00000  Uiso   1.00
C110   C     0.56205   0.97555   0.36838   0.00000  Uiso   1.00
C111   C     0.50413   0.91004   0.34301   0.00000  Uiso   1.00
C112   C     0.58169   0.85028   0.37299   0.00000  Uiso   1.00
C113   C     0.45957   0.08605   0.42682   0.00000  Uiso   1.00
C114   C     0.31548   0.11343   0.45059   0.00000  Uiso   1.00
C115   C     0.30676   0.14668   0.52979   0.00000  Uiso   1.00
H116   H     0.83784   0.06238   0.48313   0.00000  Uiso   1.00
H117   H     0.99542   0.13354   0.37035   0.00000  Uiso   1.00
H118   H     0.87164   0.92588   0.49322   0.00000  Uiso   1.00
H119   H     0.68302   0.12924   0.60078   0.00000  Uiso   1.00
H120   H     0.11248   0.20993   0.22173   0.00000  Uiso   1.00
H121   H     0.85145   0.77207   0.48083   0.00000  Uiso   1.00
H122   H     0.45372   0.20089   0.70766   0.00000  Uiso   1.00
H123   H     0.39351   0.04325   0.30153   0.00000  Uiso   1.00
H124   H     0.52671   0.11337   0.17878   0.00000  Uiso   1.00
H125   H     0.40294   0.90570   0.30165   0.00000  Uiso   1.00
H126   H     0.21432   0.10906   0.40922   0.00000  Uiso   1.00
H127   H     0.73207   0.19355   0.06625   0.00000  Uiso   1.00
H128   H     0.47103   0.75569   0.32536   0.00000  Uiso   1.00
H129   H     0.07331   0.18451   0.55217   0.00000  Uiso   1.00
O130   O     0.01793   0.24819   0.06651   0.00000  Uiso   1.00
O131   O     0.67545   0.67374   0.40646   0.00000  Uiso   1.00
O132   O     0.15365   0.23634   0.70404   0.00000  Uiso   1.00
N133   N     0.00466   0.19647   0.20199   0.00000  Uiso   1.00
N134   N     0.76063   0.78709   0.44422   0.00000  Uiso   1.00
N135   N     0.38878   0.18799   0.65629   0.00000  Uiso   1.00
N136   N     0.79996   0.18766   0.11833   0.00000  Uiso   1.00
N137   N     0.55593   0.77828   0.36056   0.00000  Uiso   1.00
N138   N     0.18408   0.17917   0.57263   0.00000  Uiso   1.00
C139   C     0.26396   0.94200   0.94152   0.00000  Uiso   1.00
C140   C     0.23996   0.90598   0.85507   0.00000  Uiso   1.00
C141   C     0.10575   0.87080   0.82898   0.00000  Uiso   1.00
C142   C     0.10691   0.84141   0.74745   0.00000  Uiso   1.00
C143   C     0.04974   0.78466   0.62132   0.00000  Uiso   1.00
C144   C     0.30720   0.01881   0.92182   0.00000  Uiso   1.00
C145   C     0.22954   0.07849   0.95186   0.00000  Uiso   1.00
C146   C     0.28732   0.14408   0.92653   0.00000  Uiso   1.00
C147   C     0.33460   0.26250   0.90408   0.00000  Uiso   1.00
C148   C     0.40967   0.90832   0.98026   0.00000  Uiso   1.00
C149   C     0.41818   0.87511   0.05944   0.00000  Uiso   1.00
C150   C     0.56226   0.84768   0.08333   0.00000  Uiso   1.00
C151   C     0.76864   0.79454   0.15161   0.00000  Uiso   1.00
C152   C     0.50468   0.95237   0.84314   0.00000  Uiso   1.00
C153   C     0.37072   0.91162   0.80163   0.00000  Uiso   1.00
C154   C     0.37209   0.88227   0.72012   0.00000  Uiso   1.00
C155   C     0.23790   0.84704   0.69392   0.00000  Uiso   1.00
C156   C     0.43795   0.02445   0.86838   0.00000  Uiso   1.00
C157   C     0.49587   0.08996   0.84301   0.00000  Uiso   1.00
C158   C     0.41831   0.14972   0.87299   0.00000  Uiso   1.00
C159   C     0.54043   0.91395   0.92682   0.00000  Uiso   1.00
C160   C     0.68452   0.88657   0.95059   0.00000  Uiso   1.00
C161   C     0.69324   0.85332   0.02979   0.00000  Uiso   1.00
H162   H     0.16216   0.93762   0.98313   0.00000  Uiso   1.00
H163   H     0.00458   0.86646   0.87035   0.00000  Uiso   1.00
H164   H     0.12836   0.07412   0.99322   0.00000  Uiso   1.00
H165   H     0.31698   0.87076   0.10078   0.00000  Uiso   1.00
H166   H     0.88752   0.79007   0.72173   0.00000  Uiso   1.00
H167   H     0.14855   0.22793   0.98083   0.00000  Uiso   1.00
H168   H     0.54628   0.79911   0.20766   0.00000  Uiso   1.00
H169   H     0.60649   0.95675   0.80153   0.00000  Uiso   1.00
H170   H     0.47329   0.88663   0.67878   0.00000  Uiso   1.00
H171   H     0.59706   0.09430   0.80165   0.00000  Uiso   1.00
H172   H     0.78568   0.89094   0.90922   0.00000  Uiso   1.00
H173   H     0.26793   0.80645   0.56625   0.00000  Uiso   1.00
H174   H     0.52897   0.24431   0.82536   0.00000  Uiso   1.00
H175   H     0.92669   0.81549   0.05217   0.00000  Uiso   1.00
O176   O     0.98207   0.75181   0.56651   0.00000  Uiso   1.00
O177   O     0.32455   0.32626   0.90646   0.00000  Uiso   1.00
O178   O     0.84635   0.76366   0.20404   0.00000  Uiso   1.00
N179   N     0.99534   0.80353   0.70199   0.00000  Uiso   1.00
N180   N     0.23937   0.21291   0.94422   0.00000  Uiso   1.00
N181   N     0.61122   0.81201   0.15629   0.00000  Uiso   1.00
N182   N     0.20004   0.81234   0.61833   0.00000  Uiso   1.00
N183   N     0.44407   0.22172   0.86056   0.00000  Uiso   1.00
N184   N     0.81592   0.82083   0.07263   0.00000  Uiso   1.00
