data_job_01069
_audit_creation_date              2018-12-19
_audit_creation_method            'Materials Studio'
_symmetry_space_group_name_H-M    'P1'
_symmetry_Int_Tables_number       1
_symmetry_cell_setting            triclinic
loop_
_symmetry_equiv_pos_as_xyz
  x,y,z
_cell_length_a                    25.9450
_cell_length_b                    25.9450
_cell_length_c                    7.1305
_cell_angle_alpha                 90.0000
_cell_angle_beta                  90.0000
_cell_angle_gamma                 120.0000
loop_
_atom_site_label
_atom_site_type_symbol
_atom_site_fract_x
_atom_site_fract_y
_atom_site_fract_z
_atom_site_U_iso_or_equiv
_atom_site_adp_type
_atom_site_occupancy
C1     C     0.27189   0.88674   0.37714   0.00000  Uiso   1.00
C2     C     0.26721   0.94150   0.32877   0.00000  Uiso   1.00
C3     C     0.25789   0.97655   0.45582   0.00000  Uiso   1.00
C4     C     0.25494   0.02471   0.38365   0.00000  Uiso   1.00
C5     C     0.24671   0.10782   0.33778   0.00000  Uiso   1.00
C6     C     0.22454   0.83594   0.25993   0.00000  Uiso   1.00
C7     C     0.17935   0.78223   0.32912   0.00000  Uiso   1.00
C8     C     0.14049   0.74153   0.19899   0.00000  Uiso   1.00
C9     C     0.06604   0.66073   0.04625   0.00000  Uiso   1.00
C10    C     0.33170   0.89867   0.30006   0.00000  Uiso   1.00
C11    C     0.37660   0.89768   0.40296   0.00000  Uiso   1.00
C12    C     0.42796   0.90978   0.30660   0.00000  Uiso   1.00
C13    C     0.51988   0.92637   0.21616   0.00000  Uiso   1.00
C14    C     0.28324   0.90995   0.02304   0.00000  Uiso   1.00
C15    C     0.27337   0.95411   0.13643   0.00000  Uiso   1.00
C16    C     0.27045   0.00224   0.06404   0.00000  Uiso   1.00
C17    C     0.26112   0.03735   0.19097   0.00000  Uiso   1.00
C18    C     0.23071   0.84855   0.06761   0.00000  Uiso   1.00
C19    C     0.19191   0.80792   0.93734   0.00000  Uiso   1.00
C20    C     0.14667   0.75416   0.00631   0.00000  Uiso   1.00
C21    C     0.33786   0.91128   0.10772   0.00000  Uiso   1.00
C22    C     0.38916   0.92338   0.01118   0.00000  Uiso   1.00
C23    C     0.43413   0.92241   0.11392   0.00000  Uiso   1.00
H24    H     0.26709   0.87691   0.52688   0.00000  Uiso   1.00
H25    H     0.25311   0.96677   0.60465   0.00000  Uiso   1.00
H26    H     0.17459   0.77248   0.47796   0.00000  Uiso   1.00
H27    H     0.37181   0.88792   0.55180   0.00000  Uiso   1.00
H28    H     0.24031   0.07194   0.60605   0.00000  Uiso   1.00
H29    H     0.07476   0.66227   0.33892   0.00000  Uiso   1.00
H30    H     0.49064   0.90569   0.49461   0.00000  Uiso   1.00
H31    H     0.28805   0.91977   0.87329   0.00000  Uiso   1.00
H32    H     0.27522   0.01199   0.91520   0.00000  Uiso   1.00
H33    H     0.19670   0.81770   0.78851   0.00000  Uiso   1.00
H34    H     0.39392   0.93313   0.86234   0.00000  Uiso   1.00
H35    H     0.25826   0.10864   0.04646   0.00000  Uiso   1.00
H36    H     0.09271   0.69896   0.77933   0.00000  Uiso   1.00
H37    H     0.50858   0.94238   0.93502   0.00000  Uiso   1.00
O38    O     0.24045   0.15017   0.36561   0.00000  Uiso   1.00
O39    O     0.02326   0.61269   0.01515   0.00000  Uiso   1.00
O40    O     0.56888   0.93205   0.21941   0.00000  Uiso   1.00
N41    N     0.24631   0.06793   0.46860   0.00000  Uiso   1.00
N42    N     0.09152   0.68491   0.21886   0.00000  Uiso   1.00
N43    N     0.48032   0.91248   0.36440   0.00000  Uiso   1.00
N44    N     0.25596   0.08768   0.16749   0.00000  Uiso   1.00
N45    N     0.10118   0.70466   0.91775   0.00000  Uiso   1.00
N46    N     0.48998   0.93222   0.06329   0.00000  Uiso   1.00
C47    C     0.11326   0.38515   0.71048   0.00000  Uiso   1.00
C48    C     0.05850   0.32570   0.66210   0.00000  Uiso   1.00
C49    C     0.02345   0.28134   0.78915   0.00000  Uiso   1.00
C50    C     0.97529   0.23023   0.71698   0.00000  Uiso   1.00
C51    C     0.89218   0.13889   0.67111   0.00000  Uiso   1.00
C52    C     0.16406   0.38860   0.59327   0.00000  Uiso   1.00
C53    C     0.21777   0.39712   0.66245   0.00000  Uiso   1.00
C54    C     0.25847   0.39896   0.53233   0.00000  Uiso   1.00
C55    C     0.33927   0.40531   0.37958   0.00000  Uiso   1.00
C56    C     0.10133   0.43303   0.63339   0.00000  Uiso   1.00
C57    C     0.10232   0.47892   0.73629   0.00000  Uiso   1.00
C58    C     0.09022   0.51818   0.63994   0.00000  Uiso   1.00
C59    C     0.07363   0.59350   0.54949   0.00000  Uiso   1.00
C60    C     0.09005   0.37329   0.35637   0.00000  Uiso   1.00
C61    C     0.04589   0.31926   0.46976   0.00000  Uiso   1.00
C62    C     0.99776   0.26821   0.39738   0.00000  Uiso   1.00
C63    C     0.96265   0.22377   0.52430   0.00000  Uiso   1.00
C64    C     0.15145   0.38215   0.40094   0.00000  Uiso   1.00
C65    C     0.19208   0.38399   0.27068   0.00000  Uiso   1.00
C66    C     0.24584   0.39251   0.33964   0.00000  Uiso   1.00
C67    C     0.08872   0.42658   0.44105   0.00000  Uiso   1.00
C68    C     0.07662   0.46578   0.34452   0.00000  Uiso   1.00
C69    C     0.07759   0.51172   0.44725   0.00000  Uiso   1.00
H70    H     0.12309   0.39017   0.86021   0.00000  Uiso   1.00
H71    H     0.03323   0.28634   0.93799   0.00000  Uiso   1.00
H72    H     0.22752   0.40211   0.81130   0.00000  Uiso   1.00
H73    H     0.11208   0.48389   0.88513   0.00000  Uiso   1.00
H74    H     0.92806   0.16837   0.93938   0.00000  Uiso   1.00
H75    H     0.33773   0.41249   0.67225   0.00000  Uiso   1.00
H76    H     0.09431   0.58495   0.82794   0.00000  Uiso   1.00
H77    H     0.08023   0.36827   0.20662   0.00000  Uiso   1.00
H78    H     0.98801   0.26324   0.24853   0.00000  Uiso   1.00
H79    H     0.18230   0.37900   0.12185   0.00000  Uiso   1.00
H80    H     0.06687   0.46078   0.19568   0.00000  Uiso   1.00
H81    H     0.89136   0.14962   0.37980   0.00000  Uiso   1.00
H82    H     0.30104   0.39374   0.11266   0.00000  Uiso   1.00
H83    H     0.05762   0.56620   0.26835   0.00000  Uiso   1.00
O84    O     0.84983   0.09028   0.69894   0.00000  Uiso   1.00
O85    O     0.38731   0.41058   0.34848   0.00000  Uiso   1.00
O86    O     0.06795   0.63683   0.55274   0.00000  Uiso   1.00
N87    N     0.93207   0.17838   0.80194   0.00000  Uiso   1.00
N88    N     0.31509   0.40661   0.55219   0.00000  Uiso   1.00
N89    N     0.08752   0.56785   0.69774   0.00000  Uiso   1.00
N90    N     0.91232   0.16829   0.50083   0.00000  Uiso   1.00
N91    N     0.29534   0.39652   0.25108   0.00000  Uiso   1.00
N92    N     0.06778   0.55776   0.39663   0.00000  Uiso   1.00
C93    C     0.61485   0.72811   0.04381   0.00000  Uiso   1.00
C94    C     0.67430   0.73279   0.99544   0.00000  Uiso   1.00
C95    C     0.71866   0.74211   0.12249   0.00000  Uiso   1.00
C96    C     0.76977   0.74506   0.05031   0.00000  Uiso   1.00
C97    C     0.86111   0.75329   0.00445   0.00000  Uiso   1.00
C98    C     0.61140   0.77546   0.92660   0.00000  Uiso   1.00
C99    C     0.60288   0.82065   0.99579   0.00000  Uiso   1.00
C100   C     0.60104   0.85951   0.86566   0.00000  Uiso   1.00
C101   C     0.59469   0.93396   0.71292   0.00000  Uiso   1.00
C102   C     0.56697   0.66830   0.96673   0.00000  Uiso   1.00
C103   C     0.52108   0.62340   0.06963   0.00000  Uiso   1.00
C104   C     0.48182   0.57204   0.97327   0.00000  Uiso   1.00
C105   C     0.40650   0.48012   0.88283   0.00000  Uiso   1.00
C106   C     0.62671   0.71676   0.68970   0.00000  Uiso   1.00
C107   C     0.68074   0.72663   0.80310   0.00000  Uiso   1.00
C108   C     0.73179   0.72955   0.73071   0.00000  Uiso   1.00
C109   C     0.77623   0.73888   0.85763   0.00000  Uiso   1.00
C110   C     0.61785   0.76929   0.73427   0.00000  Uiso   1.00
C111   C     0.61601   0.80809   0.60401   0.00000  Uiso   1.00
C112   C     0.60749   0.85333   0.67298   0.00000  Uiso   1.00
C113   C     0.57342   0.66214   0.77439   0.00000  Uiso   1.00
C114   C     0.53422   0.61084   0.67785   0.00000  Uiso   1.00
C115   C     0.48828   0.56587   0.78059   0.00000  Uiso   1.00
H116   H     0.60983   0.73291   0.19355   0.00000  Uiso   1.00
H117   H     0.71366   0.74689   0.27132   0.00000  Uiso   1.00
H118   H     0.59789   0.82541   0.14463   0.00000  Uiso   1.00
H119   H     0.51611   0.62819   0.21846   0.00000  Uiso   1.00
H120   H     0.83163   0.75969   0.27272   0.00000  Uiso   1.00
H121   H     0.58751   0.92524   0.00559   0.00000  Uiso   1.00
H122   H     0.41505   0.50936   0.16127   0.00000  Uiso   1.00
H123   H     0.63173   0.71195   0.53995   0.00000  Uiso   1.00
H124   H     0.73676   0.72478   0.58186   0.00000  Uiso   1.00
H125   H     0.62100   0.80330   0.45518   0.00000  Uiso   1.00
H126   H     0.53922   0.60608   0.52901   0.00000  Uiso   1.00
H127   H     0.85038   0.74174   0.71313   0.00000  Uiso   1.00
H128   H     0.60626   0.90729   0.44600   0.00000  Uiso   1.00
H129   H     0.43380   0.49142   0.60169   0.00000  Uiso   1.00
O130   O     0.90972   0.75955   0.03228   0.00000  Uiso   1.00
O131   O     0.58942   0.97674   0.68181   0.00000  Uiso   1.00
O132   O     0.36317   0.43112   0.88607   0.00000  Uiso   1.00
N133   N     0.82162   0.75369   0.13527   0.00000  Uiso   1.00
N134   N     0.59339   0.90848   0.88552   0.00000  Uiso   1.00
N135   N     0.43215   0.51968   0.03107   0.00000  Uiso   1.00
N136   N     0.83171   0.74404   0.83416   0.00000  Uiso   1.00
N137   N     0.60348   0.89882   0.58441   0.00000  Uiso   1.00
N138   N     0.44224   0.51002   0.72996   0.00000  Uiso   1.00
C139   C     0.72811   0.11326   0.37714   0.00000  Uiso   1.00
C140   C     0.73279   0.05850   0.32877   0.00000  Uiso   1.00
C141   C     0.74211   0.02345   0.45582   0.00000  Uiso   1.00
C142   C     0.74506   0.97529   0.38365   0.00000  Uiso   1.00
C143   C     0.75329   0.89218   0.33778   0.00000  Uiso   1.00
C144   C     0.77546   0.16406   0.25993   0.00000  Uiso   1.00
C145   C     0.82065   0.21777   0.32912   0.00000  Uiso   1.00
C146   C     0.85951   0.25847   0.19899   0.00000  Uiso   1.00
C147   C     0.93396   0.33927   0.04625   0.00000  Uiso   1.00
C148   C     0.66830   0.10133   0.30006   0.00000  Uiso   1.00
C149   C     0.62340   0.10232   0.40296   0.00000  Uiso   1.00
C150   C     0.57204   0.09022   0.30660   0.00000  Uiso   1.00
C151   C     0.48012   0.07363   0.21616   0.00000  Uiso   1.00
C152   C     0.71676   0.09005   0.02304   0.00000  Uiso   1.00
C153   C     0.72663   0.04589   0.13643   0.00000  Uiso   1.00
C154   C     0.72955   0.99776   0.06404   0.00000  Uiso   1.00
C155   C     0.73888   0.96265   0.19097   0.00000  Uiso   1.00
C156   C     0.76929   0.15145   0.06761   0.00000  Uiso   1.00
C157   C     0.80809   0.19208   0.93734   0.00000  Uiso   1.00
C158   C     0.85333   0.24584   0.00631   0.00000  Uiso   1.00
C159   C     0.66214   0.08872   0.10772   0.00000  Uiso   1.00
C160   C     0.61084   0.07662   0.01118   0.00000  Uiso   1.00
C161   C     0.56587   0.07759   0.11392   0.00000  Uiso   1.00
H162   H     0.73291   0.12309   0.52688   0.00000  Uiso   1.00
H163   H     0.74689   0.03323   0.60465   0.00000  Uiso   1.00
H164   H     0.82541   0.22752   0.47796   0.00000  Uiso   1.00
H165   H     0.62819   0.11208   0.55180   0.00000  Uiso   1.00
H166   H     0.75969   0.92806   0.60605   0.00000  Uiso   1.00
H167   H     0.92524   0.33773   0.33892   0.00000  Uiso   1.00
H168   H     0.50936   0.09431   0.49461   0.00000  Uiso   1.00
H169   H     0.71195   0.08023   0.87329   0.00000  Uiso   1.00
H170   H     0.72478   0.98801   0.91520   0.00000  Uiso   1.00
H171   H     0.80330   0.18230   0.78851   0.00000  Uiso   1.00
H172   H     0.60608   0.06687   0.86234   0.00000  Uiso   1.00
H173   H     0.74174   0.89136   0.04646   0.00000  Uiso   1.00
H174   H     0.90729   0.30104   0.77933   0.00000  Uiso   1.00
H175   H     0.49142   0.05762   0.93502   0.00000  Uiso   1.00
O176   O     0.75955   0.84983   0.36561   0.00000  Uiso   1.00
O177   O     0.97674   0.38731   0.01515   0.00000  Uiso   1.00
O178   O     0.43112   0.06795   0.21941   0.00000  Uiso   1.00
N179   N     0.75369   0.93207   0.46860   0.00000  Uiso   1.00
N180   N     0.90848   0.31509   0.21886   0.00000  Uiso   1.00
N181   N     0.51968   0.08752   0.36440   0.00000  Uiso   1.00
N182   N     0.74404   0.91232   0.16749   0.00000  Uiso   1.00
N183   N     0.89882   0.29534   0.91775   0.00000  Uiso   1.00
N184   N     0.51002   0.06778   0.06329   0.00000  Uiso   1.00
C185   C     0.88674   0.61485   0.71048   0.00000  Uiso   1.00
C186   C     0.94150   0.67430   0.66210   0.00000  Uiso   1.00
C187   C     0.97655   0.71866   0.78915   0.00000  Uiso   1.00
C188   C     0.02471   0.76977   0.71698   0.00000  Uiso   1.00
C189   C     0.10782   0.86111   0.67111   0.00000  Uiso   1.00
C190   C     0.83594   0.61140   0.59327   0.00000  Uiso   1.00
C191   C     0.78223   0.60288   0.66245   0.00000  Uiso   1.00
C192   C     0.74153   0.60104   0.53233   0.00000  Uiso   1.00
C193   C     0.66073   0.59469   0.37958   0.00000  Uiso   1.00
C194   C     0.89867   0.56697   0.63339   0.00000  Uiso   1.00
C195   C     0.89768   0.52108   0.73629   0.00000  Uiso   1.00
C196   C     0.90978   0.48182   0.63994   0.00000  Uiso   1.00
C197   C     0.92637   0.40650   0.54949   0.00000  Uiso   1.00
C198   C     0.90995   0.62671   0.35637   0.00000  Uiso   1.00
C199   C     0.95411   0.68074   0.46976   0.00000  Uiso   1.00
C200   C     0.00224   0.73179   0.39738   0.00000  Uiso   1.00
C201   C     0.03735   0.77623   0.52430   0.00000  Uiso   1.00
C202   C     0.84855   0.61785   0.40094   0.00000  Uiso   1.00
C203   C     0.80792   0.61601   0.27068   0.00000  Uiso   1.00
C204   C     0.75416   0.60749   0.33964   0.00000  Uiso   1.00
C205   C     0.91128   0.57342   0.44105   0.00000  Uiso   1.00
C206   C     0.92338   0.53422   0.34452   0.00000  Uiso   1.00
C207   C     0.92241   0.48828   0.44725   0.00000  Uiso   1.00
H208   H     0.87691   0.60983   0.86021   0.00000  Uiso   1.00
H209   H     0.96677   0.71366   0.93799   0.00000  Uiso   1.00
H210   H     0.77248   0.59789   0.81130   0.00000  Uiso   1.00
H211   H     0.88792   0.51611   0.88513   0.00000  Uiso   1.00
H212   H     0.07194   0.83163   0.93938   0.00000  Uiso   1.00
H213   H     0.66227   0.58751   0.67225   0.00000  Uiso   1.00
H214   H     0.90569   0.41505   0.82794   0.00000  Uiso   1.00
H215   H     0.91977   0.63173   0.20662   0.00000  Uiso   1.00
H216   H     0.01199   0.73676   0.24853   0.00000  Uiso   1.00
H217   H     0.81770   0.62100   0.12185   0.00000  Uiso   1.00
H218   H     0.93313   0.53922   0.19568   0.00000  Uiso   1.00
H219   H     0.10864   0.85038   0.37980   0.00000  Uiso   1.00
H220   H     0.69896   0.60626   0.11266   0.00000  Uiso   1.00
H221   H     0.94238   0.43380   0.26835   0.00000  Uiso   1.00
O222   O     0.15017   0.90972   0.69894   0.00000  Uiso   1.00
O223   O     0.61269   0.58942   0.34848   0.00000  Uiso   1.00
O224   O     0.93205   0.36317   0.55274   0.00000  Uiso   1.00
N225   N     0.06793   0.82162   0.80194   0.00000  Uiso   1.00
N226   N     0.68491   0.59339   0.55219   0.00000  Uiso   1.00
N227   N     0.91248   0.43215   0.69774   0.00000  Uiso   1.00
N228   N     0.08768   0.83171   0.50083   0.00000  Uiso   1.00
N229   N     0.70466   0.60348   0.25108   0.00000  Uiso   1.00
N230   N     0.93222   0.44224   0.39663   0.00000  Uiso   1.00
C231   C     0.38515   0.27189   0.04381   0.00000  Uiso   1.00
C232   C     0.32570   0.26721   0.99544   0.00000  Uiso   1.00
C233   C     0.28134   0.25789   0.12249   0.00000  Uiso   1.00
C234   C     0.23023   0.25494   0.05031   0.00000  Uiso   1.00
C235   C     0.13889   0.24671   0.00445   0.00000  Uiso   1.00
C236   C     0.38860   0.22454   0.92660   0.00000  Uiso   1.00
C237   C     0.39712   0.17935   0.99579   0.00000  Uiso   1.00
C238   C     0.39896   0.14049   0.86566   0.00000  Uiso   1.00
C239   C     0.40531   0.06604   0.71292   0.00000  Uiso   1.00
C240   C     0.43303   0.33170   0.96673   0.00000  Uiso   1.00
C241   C     0.47892   0.37660   0.06963   0.00000  Uiso   1.00
C242   C     0.51818   0.42796   0.97327   0.00000  Uiso   1.00
C243   C     0.59350   0.51988   0.88283   0.00000  Uiso   1.00
C244   C     0.37329   0.28324   0.68970   0.00000  Uiso   1.00
C245   C     0.31926   0.27337   0.80310   0.00000  Uiso   1.00
C246   C     0.26821   0.27045   0.73071   0.00000  Uiso   1.00
C247   C     0.22377   0.26112   0.85763   0.00000  Uiso   1.00
C248   C     0.38215   0.23071   0.73427   0.00000  Uiso   1.00
C249   C     0.38399   0.19191   0.60401   0.00000  Uiso   1.00
C250   C     0.39251   0.14667   0.67298   0.00000  Uiso   1.00
C251   C     0.42658   0.33786   0.77439   0.00000  Uiso   1.00
C252   C     0.46578   0.38916   0.67785   0.00000  Uiso   1.00
C253   C     0.51172   0.43413   0.78059   0.00000  Uiso   1.00
H254   H     0.39017   0.26709   0.19355   0.00000  Uiso   1.00
H255   H     0.28634   0.25311   0.27132   0.00000  Uiso   1.00
H256   H     0.40211   0.17459   0.14463   0.00000  Uiso   1.00
H257   H     0.48389   0.37181   0.21846   0.00000  Uiso   1.00
H258   H     0.16837   0.24031   0.27272   0.00000  Uiso   1.00
H259   H     0.41249   0.07476   0.00559   0.00000  Uiso   1.00
H260   H     0.58495   0.49064   0.16127   0.00000  Uiso   1.00
H261   H     0.36827   0.28805   0.53995   0.00000  Uiso   1.00
H262   H     0.26324   0.27522   0.58186   0.00000  Uiso   1.00
H263   H     0.37900   0.19670   0.45518   0.00000  Uiso   1.00
H264   H     0.46078   0.39392   0.52901   0.00000  Uiso   1.00
H265   H     0.14962   0.25826   0.71313   0.00000  Uiso   1.00
H266   H     0.39374   0.09271   0.44600   0.00000  Uiso   1.00
H267   H     0.56620   0.50858   0.60169   0.00000  Uiso   1.00
O268   O     0.09028   0.24045   0.03228   0.00000  Uiso   1.00
O269   O     0.41058   0.02326   0.68181   0.00000  Uiso   1.00
O270   O     0.63683   0.56888   0.88607   0.00000  Uiso   1.00
N271   N     0.17838   0.24631   0.13527   0.00000  Uiso   1.00
N272   N     0.40661   0.09152   0.88552   0.00000  Uiso   1.00
N273   N     0.56785   0.48032   0.03107   0.00000  Uiso   1.00
N274   N     0.16829   0.25596   0.83416   0.00000  Uiso   1.00
N275   N     0.39652   0.10118   0.58441   0.00000  Uiso   1.00
N276   N     0.55776   0.48998   0.72996   0.00000  Uiso   1.00
