data_job_02254
_audit_creation_date              2018-12-19
_audit_creation_method            'Materials Studio'
_symmetry_space_group_name_H-M    'P1'
_symmetry_Int_Tables_number       1
_symmetry_cell_setting            triclinic
loop_
_symmetry_equiv_pos_as_xyz
  x,y,z
_cell_length_a                    12.1077
_cell_length_b                    16.5171
_cell_length_c                    24.4709
_cell_angle_alpha                 90.0000
_cell_angle_beta                  121.4740
_cell_angle_gamma                 90.0000
loop_
_atom_site_label
_atom_site_type_symbol
_atom_site_fract_x
_atom_site_fract_y
_atom_site_fract_z
_atom_site_U_iso_or_equiv
_atom_site_adp_type
_atom_site_occupancy
C1     C     0.81973   0.16432   0.18348   0.00000  Uiso   1.00
C2     C     0.88077   0.10730   0.15755   0.00000  Uiso   1.00
C3     C     0.96325   0.12992   0.13677   0.00000  Uiso   1.00
C4     C     0.00878   0.06869   0.11473   0.00000  Uiso   1.00
C5     C     0.10895   0.99247   0.07462   0.00000  Uiso   1.00
C6     C     0.67388   0.15123   0.14166   0.00000  Uiso   1.00
C7     C     0.58241   0.21079   0.10752   0.00000  Uiso   1.00
C8     C     0.45378   0.18654   0.07212   0.00000  Uiso   1.00
C9     C     0.23273   0.17853   0.00737   0.00000  Uiso   1.00
C10    C     0.85943   0.13234   0.24974   0.00000  Uiso   1.00
C11    C     0.92394   0.17602   0.30648   0.00000  Uiso   1.00
C12    C     0.95150   0.13587   0.36207   0.00000  Uiso   1.00
C13    C     0.01855   0.09854   0.46514   0.00000  Uiso   1.00
C14    C     0.75392   0.01535   0.18131   0.00000  Uiso   1.00
C15    C     0.84502   0.02639   0.15637   0.00000  Uiso   1.00
C16    C     0.89044   0.96511   0.13437   0.00000  Uiso   1.00
C17    C     0.97298   0.98763   0.11356   0.00000  Uiso   1.00
C18    C     0.63813   0.07032   0.14048   0.00000  Uiso   1.00
C19    C     0.50960   0.04597   0.10512   0.00000  Uiso   1.00
C20    C     0.41796   0.10548   0.07094   0.00000  Uiso   1.00
C21    C     0.82369   0.05142   0.24856   0.00000  Uiso   1.00
C22    C     0.85114   0.01120   0.30408   0.00000  Uiso   1.00
C23    C     0.91569   0.05481   0.36089   0.00000  Uiso   1.00
H24    H     0.84755   0.22731   0.18439   0.00000  Uiso   1.00
H25    H     0.99088   0.19255   0.13768   0.00000  Uiso   1.00
H26    H     0.61010   0.27340   0.10844   0.00000  Uiso   1.00
H27    H     0.95159   0.23863   0.30737   0.00000  Uiso   1.00
H28    H     0.13399   0.11832   0.08535   0.00000  Uiso   1.00
H29    H     0.33109   0.28881   0.02372   0.00000  Uiso   1.00
H30    H     0.05117   0.21551   0.44319   0.00000  Uiso   1.00
H31    H     0.72609   0.95235   0.18040   0.00000  Uiso   1.00
H32    H     0.86277   0.90250   0.13346   0.00000  Uiso   1.00
H33    H     0.48198   0.98335   0.10423   0.00000  Uiso   1.00
H34    H     0.82347   0.94859   0.30315   0.00000  Uiso   1.00
H35    H     0.03000   0.88291   0.08192   0.00000  Uiso   1.00
H36    H     0.22710   0.05340   0.02030   0.00000  Uiso   1.00
H37    H     0.94718   0.98009   0.43977   0.00000  Uiso   1.00
O38    O     0.17406   0.97279   0.05281   0.00000  Uiso   1.00
O39    O     0.12069   0.19647   0.97197   0.00000  Uiso   1.00
O40    O     0.06542   0.10029   0.52231   0.00000  Uiso   1.00
N41    N     0.09078   0.06976   0.09099   0.00000  Uiso   1.00
N42    N     0.34012   0.22915   0.03337   0.00000  Uiso   1.00
N43    N     0.01331   0.16063   0.42554   0.00000  Uiso   1.00
N44    N     0.03483   0.94308   0.08915   0.00000  Uiso   1.00
N45    N     0.28416   0.10248   0.03153   0.00000  Uiso   1.00
N46    N     0.95735   0.03395   0.42370   0.00000  Uiso   1.00
C47    C     0.18027   0.66432   0.31652   0.00000  Uiso   1.00
C48    C     0.11923   0.60730   0.34245   0.00000  Uiso   1.00
C49    C     0.03675   0.62992   0.36323   0.00000  Uiso   1.00
C50    C     0.99122   0.56869   0.38527   0.00000  Uiso   1.00
C51    C     0.89105   0.49247   0.42538   0.00000  Uiso   1.00
C52    C     0.32612   0.65123   0.35834   0.00000  Uiso   1.00
C53    C     0.41759   0.71079   0.39248   0.00000  Uiso   1.00
C54    C     0.54622   0.68654   0.42788   0.00000  Uiso   1.00
C55    C     0.76727   0.67853   0.49263   0.00000  Uiso   1.00
C56    C     0.14057   0.63234   0.25026   0.00000  Uiso   1.00
C57    C     0.07606   0.67602   0.19352   0.00000  Uiso   1.00
C58    C     0.04850   0.63587   0.13793   0.00000  Uiso   1.00
C59    C     0.98145   0.59854   0.03486   0.00000  Uiso   1.00
C60    C     0.24608   0.51535   0.31869   0.00000  Uiso   1.00
C61    C     0.15498   0.52639   0.34363   0.00000  Uiso   1.00
C62    C     0.10956   0.46511   0.36563   0.00000  Uiso   1.00
C63    C     0.02702   0.48763   0.38644   0.00000  Uiso   1.00
C64    C     0.36187   0.57032   0.35952   0.00000  Uiso   1.00
C65    C     0.49040   0.54597   0.39488   0.00000  Uiso   1.00
C66    C     0.58204   0.60548   0.42906   0.00000  Uiso   1.00
C67    C     0.17631   0.55142   0.25144   0.00000  Uiso   1.00
C68    C     0.14886   0.51120   0.19592   0.00000  Uiso   1.00
C69    C     0.08431   0.55481   0.13911   0.00000  Uiso   1.00
H70    H     0.15245   0.72731   0.31561   0.00000  Uiso   1.00
H71    H     0.00912   0.69255   0.36232   0.00000  Uiso   1.00
H72    H     0.38990   0.77340   0.39156   0.00000  Uiso   1.00
H73    H     0.04841   0.73863   0.19263   0.00000  Uiso   1.00
H74    H     0.86601   0.61832   0.41465   0.00000  Uiso   1.00
H75    H     0.66891   0.78881   0.47628   0.00000  Uiso   1.00
H76    H     0.94883   0.71551   0.05681   0.00000  Uiso   1.00
H77    H     0.27391   0.45235   0.31960   0.00000  Uiso   1.00
H78    H     0.13723   0.40250   0.36654   0.00000  Uiso   1.00
H79    H     0.51802   0.48335   0.39577   0.00000  Uiso   1.00
H80    H     0.17653   0.44859   0.19685   0.00000  Uiso   1.00
H81    H     0.97000   0.38291   0.41808   0.00000  Uiso   1.00
H82    H     0.77290   0.55340   0.47970   0.00000  Uiso   1.00
H83    H     0.05282   0.48009   0.06023   0.00000  Uiso   1.00
O84    O     0.82594   0.47279   0.44719   0.00000  Uiso   1.00
O85    O     0.87931   0.69647   0.52803   0.00000  Uiso   1.00
O86    O     0.93458   0.60029   0.97769   0.00000  Uiso   1.00
N87    N     0.90922   0.56976   0.40901   0.00000  Uiso   1.00
N88    N     0.65988   0.72915   0.46663   0.00000  Uiso   1.00
N89    N     0.98669   0.66063   0.07446   0.00000  Uiso   1.00
N90    N     0.96517   0.44308   0.41085   0.00000  Uiso   1.00
N91    N     0.71584   0.60248   0.46847   0.00000  Uiso   1.00
N92    N     0.04265   0.53395   0.07630   0.00000  Uiso   1.00
C93    C     0.18027   0.83568   0.81652   0.00000  Uiso   1.00
C94    C     0.11923   0.89270   0.84245   0.00000  Uiso   1.00
C95    C     0.03675   0.87008   0.86323   0.00000  Uiso   1.00
C96    C     0.99122   0.93131   0.88527   0.00000  Uiso   1.00
C97    C     0.89105   0.00753   0.92538   0.00000  Uiso   1.00
C98    C     0.32612   0.84877   0.85834   0.00000  Uiso   1.00
C99    C     0.41759   0.78921   0.89248   0.00000  Uiso   1.00
C100   C     0.54622   0.81346   0.92788   0.00000  Uiso   1.00
C101   C     0.76727   0.82147   0.99263   0.00000  Uiso   1.00
C102   C     0.14057   0.86766   0.75026   0.00000  Uiso   1.00
C103   C     0.07606   0.82398   0.69352   0.00000  Uiso   1.00
C104   C     0.04850   0.86413   0.63793   0.00000  Uiso   1.00
C105   C     0.98145   0.90146   0.53486   0.00000  Uiso   1.00
C106   C     0.24608   0.98465   0.81869   0.00000  Uiso   1.00
C107   C     0.15498   0.97361   0.84363   0.00000  Uiso   1.00
C108   C     0.10956   0.03489   0.86563   0.00000  Uiso   1.00
C109   C     0.02702   0.01237   0.88644   0.00000  Uiso   1.00
C110   C     0.36187   0.92968   0.85952   0.00000  Uiso   1.00
C111   C     0.49040   0.95403   0.89488   0.00000  Uiso   1.00
C112   C     0.58204   0.89452   0.92906   0.00000  Uiso   1.00
C113   C     0.17631   0.94858   0.75144   0.00000  Uiso   1.00
C114   C     0.14886   0.98880   0.69592   0.00000  Uiso   1.00
C115   C     0.08431   0.94519   0.63911   0.00000  Uiso   1.00
H116   H     0.15245   0.77269   0.81561   0.00000  Uiso   1.00
H117   H     0.00912   0.80745   0.86232   0.00000  Uiso   1.00
H118   H     0.38990   0.72660   0.89156   0.00000  Uiso   1.00
H119   H     0.04841   0.76137   0.69263   0.00000  Uiso   1.00
H120   H     0.86601   0.88168   0.91465   0.00000  Uiso   1.00
H121   H     0.66891   0.71119   0.97628   0.00000  Uiso   1.00
H122   H     0.94883   0.78449   0.55681   0.00000  Uiso   1.00
H123   H     0.27391   0.04765   0.81960   0.00000  Uiso   1.00
H124   H     0.13723   0.09750   0.86654   0.00000  Uiso   1.00
H125   H     0.51802   0.01665   0.89577   0.00000  Uiso   1.00
H126   H     0.17653   0.05141   0.69685   0.00000  Uiso   1.00
H127   H     0.97000   0.11709   0.91808   0.00000  Uiso   1.00
H128   H     0.77290   0.94660   0.97970   0.00000  Uiso   1.00
H129   H     0.05282   0.01991   0.56023   0.00000  Uiso   1.00
O130   O     0.82594   0.02721   0.94719   0.00000  Uiso   1.00
O131   O     0.87931   0.80353   0.02803   0.00000  Uiso   1.00
O132   O     0.93458   0.89971   0.47769   0.00000  Uiso   1.00
N133   N     0.90922   0.93024   0.90901   0.00000  Uiso   1.00
N134   N     0.65988   0.77085   0.96663   0.00000  Uiso   1.00
N135   N     0.98669   0.83937   0.57446   0.00000  Uiso   1.00
N136   N     0.96517   0.05692   0.91085   0.00000  Uiso   1.00
N137   N     0.71584   0.89752   0.96847   0.00000  Uiso   1.00
N138   N     0.04265   0.96605   0.57630   0.00000  Uiso   1.00
C139   C     0.81973   0.33568   0.68348   0.00000  Uiso   1.00
C140   C     0.88077   0.39270   0.65755   0.00000  Uiso   1.00
C141   C     0.96325   0.37008   0.63677   0.00000  Uiso   1.00
C142   C     0.00878   0.43131   0.61473   0.00000  Uiso   1.00
C143   C     0.10895   0.50753   0.57462   0.00000  Uiso   1.00
C144   C     0.67388   0.34877   0.64166   0.00000  Uiso   1.00
C145   C     0.58241   0.28921   0.60752   0.00000  Uiso   1.00
C146   C     0.45378   0.31346   0.57212   0.00000  Uiso   1.00
C147   C     0.23273   0.32147   0.50737   0.00000  Uiso   1.00
C148   C     0.85943   0.36766   0.74974   0.00000  Uiso   1.00
C149   C     0.92394   0.32398   0.80648   0.00000  Uiso   1.00
C150   C     0.95150   0.36413   0.86207   0.00000  Uiso   1.00
C151   C     0.01855   0.40146   0.96514   0.00000  Uiso   1.00
C152   C     0.75392   0.48465   0.68131   0.00000  Uiso   1.00
C153   C     0.84502   0.47361   0.65637   0.00000  Uiso   1.00
C154   C     0.89044   0.53489   0.63437   0.00000  Uiso   1.00
C155   C     0.97298   0.51237   0.61356   0.00000  Uiso   1.00
C156   C     0.63813   0.42968   0.64048   0.00000  Uiso   1.00
C157   C     0.50960   0.45403   0.60512   0.00000  Uiso   1.00
C158   C     0.41796   0.39452   0.57094   0.00000  Uiso   1.00
C159   C     0.82369   0.44858   0.74856   0.00000  Uiso   1.00
C160   C     0.85114   0.48880   0.80408   0.00000  Uiso   1.00
C161   C     0.91569   0.44519   0.86089   0.00000  Uiso   1.00
H162   H     0.84755   0.27269   0.68439   0.00000  Uiso   1.00
H163   H     0.99088   0.30745   0.63768   0.00000  Uiso   1.00
H164   H     0.61010   0.22660   0.60844   0.00000  Uiso   1.00
H165   H     0.95159   0.26137   0.80737   0.00000  Uiso   1.00
H166   H     0.13399   0.38168   0.58535   0.00000  Uiso   1.00
H167   H     0.33109   0.21119   0.52372   0.00000  Uiso   1.00
H168   H     0.05117   0.28449   0.94319   0.00000  Uiso   1.00
H169   H     0.72609   0.54765   0.68040   0.00000  Uiso   1.00
H170   H     0.86277   0.59750   0.63346   0.00000  Uiso   1.00
H171   H     0.48198   0.51665   0.60423   0.00000  Uiso   1.00
H172   H     0.82347   0.55141   0.80315   0.00000  Uiso   1.00
H173   H     0.03000   0.61709   0.58192   0.00000  Uiso   1.00
H174   H     0.22710   0.44660   0.52030   0.00000  Uiso   1.00
H175   H     0.94718   0.51991   0.93977   0.00000  Uiso   1.00
O176   O     0.17406   0.52721   0.55281   0.00000  Uiso   1.00
O177   O     0.12069   0.30353   0.47197   0.00000  Uiso   1.00
O178   O     0.06542   0.39971   0.02231   0.00000  Uiso   1.00
N179   N     0.09078   0.43024   0.59099   0.00000  Uiso   1.00
N180   N     0.34012   0.27085   0.53337   0.00000  Uiso   1.00
N181   N     0.01331   0.33937   0.92554   0.00000  Uiso   1.00
N182   N     0.03483   0.55692   0.58915   0.00000  Uiso   1.00
N183   N     0.28416   0.39752   0.53153   0.00000  Uiso   1.00
N184   N     0.95735   0.46605   0.92370   0.00000  Uiso   1.00
