data_job_02636
_audit_creation_date              2018-12-19
_audit_creation_method            'Materials Studio'
_symmetry_space_group_name_H-M    'P1'
_symmetry_Int_Tables_number       1
_symmetry_cell_setting            triclinic
loop_
_symmetry_equiv_pos_as_xyz
  x,y,z
_cell_length_a                    26.1134
_cell_length_b                    38.8764
_cell_length_c                    9.6727
_cell_angle_alpha                 90.0000
_cell_angle_beta                  89.6332
_cell_angle_gamma                 90.0000
loop_
_atom_site_label
_atom_site_type_symbol
_atom_site_fract_x
_atom_site_fract_y
_atom_site_fract_z
_atom_site_U_iso_or_equiv
_atom_site_adp_type
_atom_site_occupancy
C1     C     0.74041   0.56508   0.17556   0.00000  Uiso   1.00
C2     C     0.74114   0.60313   0.13719   0.00000  Uiso   1.00
C3     C     0.70718   0.61937   0.04880   0.00000  Uiso   1.00
C4     C     0.71429   0.65434   0.02700   0.00000  Uiso   1.00
C5     C     0.70942   0.71067   0.95758   0.00000  Uiso   1.00
C6     C     0.79326   0.55115   0.13777   0.00000  Uiso   1.00
C7     C     0.80311   0.52368   0.04989   0.00000  Uiso   1.00
C8     C     0.85409   0.51490   0.02860   0.00000  Uiso   1.00
C9     C     0.93012   0.49051   0.96016   0.00000  Uiso   1.00
C10    C     0.73686   0.56375   0.33289   0.00000  Uiso   1.00
C11    C     0.69930   0.54688   0.40906   0.00000  Uiso   1.00
C12    C     0.70281   0.54871   0.55205   0.00000  Uiso   1.00
C13    C     0.69129   0.54389   0.78655   0.00000  Uiso   1.00
C14    C     0.81343   0.59833   0.29402   0.00000  Uiso   1.00
C15    C     0.78081   0.62118   0.20153   0.00000  Uiso   1.00
C16    C     0.78797   0.65615   0.17987   0.00000  Uiso   1.00
C17    C     0.75402   0.67243   0.09146   0.00000  Uiso   1.00
C18    C     0.83292   0.56920   0.20211   0.00000  Uiso   1.00
C19    C     0.88390   0.56046   0.18095   0.00000  Uiso   1.00
C20    C     0.89383   0.53299   0.09306   0.00000  Uiso   1.00
C21    C     0.77653   0.58181   0.39723   0.00000  Uiso   1.00
C22    C     0.78010   0.58366   0.54013   0.00000  Uiso   1.00
C23    C     0.74255   0.56680   0.61651   0.00000  Uiso   1.00
H24    H     0.70953   0.55102   0.12546   0.00000  Uiso   1.00
H25    H     0.67649   0.60538   0.99902   0.00000  Uiso   1.00
H26    H     0.77241   0.50971   0.00012   0.00000  Uiso   1.00
H27    H     0.66862   0.53291   0.35924   0.00000  Uiso   1.00
H28    H     0.65737   0.67361   0.88716   0.00000  Uiso   1.00
H29    H     0.85961   0.47188   0.88953   0.00000  Uiso   1.00
H30    H     0.64075   0.52079   0.64679   0.00000  Uiso   1.00
H31    H     0.84432   0.61238   0.34412   0.00000  Uiso   1.00
H32    H     0.81867   0.67011   0.22968   0.00000  Uiso   1.00
H33    H     0.91459   0.57444   0.23077   0.00000  Uiso   1.00
H34    H     0.81080   0.59764   0.58989   0.00000  Uiso   1.00
H35    H     0.77277   0.72615   0.07437   0.00000  Uiso   1.00
H36    H     0.97501   0.52441   0.07673   0.00000  Uiso   1.00
H37    H     0.75615   0.57332   0.83400   0.00000  Uiso   1.00
O38    O     0.69578   0.73674   0.90150   0.00000  Uiso   1.00
O39    O     0.96111   0.47207   0.90462   0.00000  Uiso   1.00
O40    O     0.67397   0.53625   0.89813   0.00000  Uiso   1.00
N41    N     0.68804   0.67805   0.94695   0.00000  Uiso   1.00
N42    N     0.87712   0.48945   0.94914   0.00000  Uiso   1.00
N43    N     0.67251   0.53517   0.65712   0.00000  Uiso   1.00
N44    N     0.75013   0.70632   0.04769   0.00000  Uiso   1.00
N45    N     0.93922   0.51772   0.04988   0.00000  Uiso   1.00
N46    N     0.73461   0.56344   0.75786   0.00000  Uiso   1.00
C47    C     0.24041   0.06508   0.17556   0.00000  Uiso   1.00
C48    C     0.24114   0.10313   0.13719   0.00000  Uiso   1.00
C49    C     0.20718   0.11937   0.04880   0.00000  Uiso   1.00
C50    C     0.21429   0.15434   0.02700   0.00000  Uiso   1.00
C51    C     0.20942   0.21067   0.95758   0.00000  Uiso   1.00
C52    C     0.29326   0.05115   0.13777   0.00000  Uiso   1.00
C53    C     0.30311   0.02368   0.04989   0.00000  Uiso   1.00
C54    C     0.35409   0.01490   0.02860   0.00000  Uiso   1.00
C55    C     0.43012   0.99051   0.96016   0.00000  Uiso   1.00
C56    C     0.23686   0.06375   0.33289   0.00000  Uiso   1.00
C57    C     0.19930   0.04688   0.40906   0.00000  Uiso   1.00
C58    C     0.20281   0.04871   0.55205   0.00000  Uiso   1.00
C59    C     0.19129   0.04389   0.78655   0.00000  Uiso   1.00
C60    C     0.31343   0.09833   0.29402   0.00000  Uiso   1.00
C61    C     0.28081   0.12118   0.20153   0.00000  Uiso   1.00
C62    C     0.28797   0.15615   0.17987   0.00000  Uiso   1.00
C63    C     0.25402   0.17243   0.09146   0.00000  Uiso   1.00
C64    C     0.33292   0.06920   0.20211   0.00000  Uiso   1.00
C65    C     0.38390   0.06046   0.18095   0.00000  Uiso   1.00
C66    C     0.39383   0.03299   0.09306   0.00000  Uiso   1.00
C67    C     0.27653   0.08181   0.39723   0.00000  Uiso   1.00
C68    C     0.28010   0.08366   0.54013   0.00000  Uiso   1.00
C69    C     0.24255   0.06680   0.61651   0.00000  Uiso   1.00
H70    H     0.20953   0.05102   0.12546   0.00000  Uiso   1.00
H71    H     0.17649   0.10538   0.99902   0.00000  Uiso   1.00
H72    H     0.27241   0.00971   0.00012   0.00000  Uiso   1.00
H73    H     0.16862   0.03291   0.35924   0.00000  Uiso   1.00
H74    H     0.15737   0.17361   0.88716   0.00000  Uiso   1.00
H75    H     0.35961   0.97188   0.88953   0.00000  Uiso   1.00
H76    H     0.14075   0.02079   0.64679   0.00000  Uiso   1.00
H77    H     0.34432   0.11238   0.34412   0.00000  Uiso   1.00
H78    H     0.31867   0.17011   0.22968   0.00000  Uiso   1.00
H79    H     0.41459   0.07444   0.23077   0.00000  Uiso   1.00
H80    H     0.31080   0.09764   0.58989   0.00000  Uiso   1.00
H81    H     0.27277   0.22615   0.07437   0.00000  Uiso   1.00
H82    H     0.47501   0.02441   0.07673   0.00000  Uiso   1.00
H83    H     0.25615   0.07332   0.83400   0.00000  Uiso   1.00
O84    O     0.19578   0.23674   0.90150   0.00000  Uiso   1.00
O85    O     0.46111   0.97207   0.90462   0.00000  Uiso   1.00
O86    O     0.17397   0.03625   0.89813   0.00000  Uiso   1.00
N87    N     0.18804   0.17805   0.94695   0.00000  Uiso   1.00
N88    N     0.37712   0.98945   0.94914   0.00000  Uiso   1.00
N89    N     0.17251   0.03517   0.65712   0.00000  Uiso   1.00
N90    N     0.25013   0.20632   0.04769   0.00000  Uiso   1.00
N91    N     0.43922   0.01772   0.04988   0.00000  Uiso   1.00
N92    N     0.23461   0.06344   0.75786   0.00000  Uiso   1.00
C93    C     0.25959   0.56508   0.32444   0.00000  Uiso   1.00
C94    C     0.25886   0.60313   0.36281   0.00000  Uiso   1.00
C95    C     0.29282   0.61937   0.45120   0.00000  Uiso   1.00
C96    C     0.28571   0.65434   0.47300   0.00000  Uiso   1.00
C97    C     0.29058   0.71067   0.54242   0.00000  Uiso   1.00
C98    C     0.20674   0.55115   0.36223   0.00000  Uiso   1.00
C99    C     0.19689   0.52368   0.45011   0.00000  Uiso   1.00
C100   C     0.14591   0.51490   0.47140   0.00000  Uiso   1.00
C101   C     0.06988   0.49051   0.53984   0.00000  Uiso   1.00
C102   C     0.26314   0.56375   0.16711   0.00000  Uiso   1.00
C103   C     0.30070   0.54688   0.09094   0.00000  Uiso   1.00
C104   C     0.29719   0.54871   0.94795   0.00000  Uiso   1.00
C105   C     0.30871   0.54389   0.71345   0.00000  Uiso   1.00
C106   C     0.18657   0.59833   0.20598   0.00000  Uiso   1.00
C107   C     0.21919   0.62118   0.29847   0.00000  Uiso   1.00
C108   C     0.21203   0.65615   0.32013   0.00000  Uiso   1.00
C109   C     0.24598   0.67243   0.40854   0.00000  Uiso   1.00
C110   C     0.16708   0.56920   0.29789   0.00000  Uiso   1.00
C111   C     0.11610   0.56046   0.31905   0.00000  Uiso   1.00
C112   C     0.10617   0.53299   0.40694   0.00000  Uiso   1.00
C113   C     0.22347   0.58181   0.10277   0.00000  Uiso   1.00
C114   C     0.21990   0.58366   0.95987   0.00000  Uiso   1.00
C115   C     0.25745   0.56680   0.88349   0.00000  Uiso   1.00
H116   H     0.29047   0.55102   0.37454   0.00000  Uiso   1.00
H117   H     0.32351   0.60538   0.50098   0.00000  Uiso   1.00
H118   H     0.22759   0.50971   0.49988   0.00000  Uiso   1.00
H119   H     0.33138   0.53291   0.14076   0.00000  Uiso   1.00
H120   H     0.34263   0.67361   0.61284   0.00000  Uiso   1.00
H121   H     0.14039   0.47188   0.61047   0.00000  Uiso   1.00
H122   H     0.35925   0.52079   0.85321   0.00000  Uiso   1.00
H123   H     0.15568   0.61238   0.15588   0.00000  Uiso   1.00
H124   H     0.18133   0.67011   0.27032   0.00000  Uiso   1.00
H125   H     0.08541   0.57444   0.26923   0.00000  Uiso   1.00
H126   H     0.18920   0.59764   0.91011   0.00000  Uiso   1.00
H127   H     0.22723   0.72615   0.42563   0.00000  Uiso   1.00
H128   H     0.02499   0.52441   0.42327   0.00000  Uiso   1.00
H129   H     0.24385   0.57332   0.66600   0.00000  Uiso   1.00
O130   O     0.30422   0.73674   0.59850   0.00000  Uiso   1.00
O131   O     0.03889   0.47207   0.59538   0.00000  Uiso   1.00
O132   O     0.32603   0.53625   0.60187   0.00000  Uiso   1.00
N133   N     0.31196   0.67805   0.55305   0.00000  Uiso   1.00
N134   N     0.12288   0.48945   0.55086   0.00000  Uiso   1.00
N135   N     0.32749   0.53517   0.84288   0.00000  Uiso   1.00
N136   N     0.24987   0.70632   0.45231   0.00000  Uiso   1.00
N137   N     0.06078   0.51772   0.45012   0.00000  Uiso   1.00
N138   N     0.26539   0.56344   0.74214   0.00000  Uiso   1.00
C139   C     0.75959   0.06508   0.32444   0.00000  Uiso   1.00
C140   C     0.75886   0.10313   0.36281   0.00000  Uiso   1.00
C141   C     0.79282   0.11937   0.45120   0.00000  Uiso   1.00
C142   C     0.78571   0.15434   0.47300   0.00000  Uiso   1.00
C143   C     0.79058   0.21067   0.54242   0.00000  Uiso   1.00
C144   C     0.70674   0.05115   0.36223   0.00000  Uiso   1.00
C145   C     0.69689   0.02368   0.45011   0.00000  Uiso   1.00
C146   C     0.64591   0.01490   0.47140   0.00000  Uiso   1.00
C147   C     0.56988   0.99051   0.53984   0.00000  Uiso   1.00
C148   C     0.76314   0.06375   0.16711   0.00000  Uiso   1.00
C149   C     0.80070   0.04688   0.09094   0.00000  Uiso   1.00
C150   C     0.79719   0.04871   0.94795   0.00000  Uiso   1.00
C151   C     0.80871   0.04389   0.71345   0.00000  Uiso   1.00
C152   C     0.68657   0.09833   0.20598   0.00000  Uiso   1.00
C153   C     0.71919   0.12118   0.29847   0.00000  Uiso   1.00
C154   C     0.71203   0.15615   0.32013   0.00000  Uiso   1.00
C155   C     0.74598   0.17243   0.40854   0.00000  Uiso   1.00
C156   C     0.66708   0.06920   0.29789   0.00000  Uiso   1.00
C157   C     0.61610   0.06046   0.31905   0.00000  Uiso   1.00
C158   C     0.60617   0.03299   0.40694   0.00000  Uiso   1.00
C159   C     0.72347   0.08181   0.10277   0.00000  Uiso   1.00
C160   C     0.71990   0.08366   0.95987   0.00000  Uiso   1.00
C161   C     0.75745   0.06680   0.88349   0.00000  Uiso   1.00
H162   H     0.79047   0.05102   0.37454   0.00000  Uiso   1.00
H163   H     0.82351   0.10538   0.50098   0.00000  Uiso   1.00
H164   H     0.72759   0.00971   0.49988   0.00000  Uiso   1.00
H165   H     0.83138   0.03291   0.14076   0.00000  Uiso   1.00
H166   H     0.84263   0.17361   0.61284   0.00000  Uiso   1.00
H167   H     0.64039   0.97188   0.61047   0.00000  Uiso   1.00
H168   H     0.85925   0.02079   0.85321   0.00000  Uiso   1.00
H169   H     0.65568   0.11238   0.15588   0.00000  Uiso   1.00
H170   H     0.68133   0.17011   0.27032   0.00000  Uiso   1.00
H171   H     0.58541   0.07444   0.26923   0.00000  Uiso   1.00
H172   H     0.68920   0.09764   0.91011   0.00000  Uiso   1.00
H173   H     0.72723   0.22615   0.42563   0.00000  Uiso   1.00
H174   H     0.52499   0.02441   0.42327   0.00000  Uiso   1.00
H175   H     0.74385   0.07332   0.66600   0.00000  Uiso   1.00
O176   O     0.80422   0.23674   0.59850   0.00000  Uiso   1.00
O177   O     0.53889   0.97207   0.59538   0.00000  Uiso   1.00
O178   O     0.82603   0.03625   0.60187   0.00000  Uiso   1.00
N179   N     0.81196   0.17805   0.55305   0.00000  Uiso   1.00
N180   N     0.62288   0.98945   0.55086   0.00000  Uiso   1.00
N181   N     0.82749   0.03517   0.84288   0.00000  Uiso   1.00
N182   N     0.74987   0.20632   0.45231   0.00000  Uiso   1.00
N183   N     0.56078   0.01772   0.45012   0.00000  Uiso   1.00
N184   N     0.76539   0.06344   0.74214   0.00000  Uiso   1.00
C185   C     0.25959   0.43492   0.82444   0.00000  Uiso   1.00
C186   C     0.25886   0.39687   0.86281   0.00000  Uiso   1.00
C187   C     0.29282   0.38063   0.95120   0.00000  Uiso   1.00
C188   C     0.28571   0.34566   0.97300   0.00000  Uiso   1.00
C189   C     0.29058   0.28933   0.04242   0.00000  Uiso   1.00
C190   C     0.20674   0.44885   0.86223   0.00000  Uiso   1.00
C191   C     0.19689   0.47632   0.95011   0.00000  Uiso   1.00
C192   C     0.14591   0.48510   0.97140   0.00000  Uiso   1.00
C193   C     0.06988   0.50949   0.03984   0.00000  Uiso   1.00
C194   C     0.26314   0.43625   0.66711   0.00000  Uiso   1.00
C195   C     0.30070   0.45312   0.59094   0.00000  Uiso   1.00
C196   C     0.29719   0.45129   0.44795   0.00000  Uiso   1.00
C197   C     0.30871   0.45611   0.21345   0.00000  Uiso   1.00
C198   C     0.18657   0.40167   0.70598   0.00000  Uiso   1.00
C199   C     0.21919   0.37882   0.79847   0.00000  Uiso   1.00
C200   C     0.21203   0.34385   0.82013   0.00000  Uiso   1.00
C201   C     0.24598   0.32757   0.90854   0.00000  Uiso   1.00
C202   C     0.16708   0.43080   0.79789   0.00000  Uiso   1.00
C203   C     0.11610   0.43954   0.81905   0.00000  Uiso   1.00
C204   C     0.10617   0.46701   0.90694   0.00000  Uiso   1.00
C205   C     0.22347   0.41819   0.60277   0.00000  Uiso   1.00
C206   C     0.21990   0.41634   0.45987   0.00000  Uiso   1.00
C207   C     0.25745   0.43320   0.38349   0.00000  Uiso   1.00
H208   H     0.29047   0.44898   0.87454   0.00000  Uiso   1.00
H209   H     0.32351   0.39462   0.00098   0.00000  Uiso   1.00
H210   H     0.22759   0.49029   0.99988   0.00000  Uiso   1.00
H211   H     0.33138   0.46709   0.64076   0.00000  Uiso   1.00
H212   H     0.34263   0.32639   0.11284   0.00000  Uiso   1.00
H213   H     0.14039   0.52812   0.11047   0.00000  Uiso   1.00
H214   H     0.35925   0.47921   0.35321   0.00000  Uiso   1.00
H215   H     0.15568   0.38762   0.65588   0.00000  Uiso   1.00
H216   H     0.18133   0.32989   0.77032   0.00000  Uiso   1.00
H217   H     0.08541   0.42556   0.76923   0.00000  Uiso   1.00
H218   H     0.18920   0.40236   0.41011   0.00000  Uiso   1.00
H219   H     0.22723   0.27385   0.92563   0.00000  Uiso   1.00
H220   H     0.02499   0.47559   0.92327   0.00000  Uiso   1.00
H221   H     0.24385   0.42668   0.16600   0.00000  Uiso   1.00
O222   O     0.30422   0.26326   0.09850   0.00000  Uiso   1.00
O223   O     0.03889   0.52793   0.09538   0.00000  Uiso   1.00
O224   O     0.32603   0.46375   0.10187   0.00000  Uiso   1.00
N225   N     0.31196   0.32195   0.05305   0.00000  Uiso   1.00
N226   N     0.12288   0.51055   0.05086   0.00000  Uiso   1.00
N227   N     0.32749   0.46483   0.34288   0.00000  Uiso   1.00
N228   N     0.24987   0.29368   0.95231   0.00000  Uiso   1.00
N229   N     0.06078   0.48228   0.95012   0.00000  Uiso   1.00
N230   N     0.26539   0.43656   0.24214   0.00000  Uiso   1.00
C231   C     0.75959   0.93492   0.82444   0.00000  Uiso   1.00
C232   C     0.75886   0.89687   0.86281   0.00000  Uiso   1.00
C233   C     0.79282   0.88063   0.95120   0.00000  Uiso   1.00
C234   C     0.78571   0.84566   0.97300   0.00000  Uiso   1.00
C235   C     0.79058   0.78933   0.04242   0.00000  Uiso   1.00
C236   C     0.70674   0.94885   0.86223   0.00000  Uiso   1.00
C237   C     0.69689   0.97632   0.95011   0.00000  Uiso   1.00
C238   C     0.64591   0.98510   0.97140   0.00000  Uiso   1.00
C239   C     0.56988   0.00949   0.03984   0.00000  Uiso   1.00
C240   C     0.76314   0.93625   0.66711   0.00000  Uiso   1.00
C241   C     0.80070   0.95312   0.59094   0.00000  Uiso   1.00
C242   C     0.79719   0.95129   0.44795   0.00000  Uiso   1.00
C243   C     0.80871   0.95611   0.21345   0.00000  Uiso   1.00
C244   C     0.68657   0.90167   0.70598   0.00000  Uiso   1.00
C245   C     0.71919   0.87882   0.79847   0.00000  Uiso   1.00
C246   C     0.71203   0.84385   0.82013   0.00000  Uiso   1.00
C247   C     0.74598   0.82757   0.90854   0.00000  Uiso   1.00
C248   C     0.66708   0.93080   0.79789   0.00000  Uiso   1.00
C249   C     0.61610   0.93954   0.81905   0.00000  Uiso   1.00
C250   C     0.60617   0.96701   0.90694   0.00000  Uiso   1.00
C251   C     0.72347   0.91819   0.60277   0.00000  Uiso   1.00
C252   C     0.71990   0.91634   0.45987   0.00000  Uiso   1.00
C253   C     0.75745   0.93320   0.38349   0.00000  Uiso   1.00
H254   H     0.79047   0.94898   0.87454   0.00000  Uiso   1.00
H255   H     0.82351   0.89462   0.00098   0.00000  Uiso   1.00
H256   H     0.72759   0.99029   0.99988   0.00000  Uiso   1.00
H257   H     0.83138   0.96709   0.64076   0.00000  Uiso   1.00
H258   H     0.84263   0.82639   0.11284   0.00000  Uiso   1.00
H259   H     0.64039   0.02812   0.11047   0.00000  Uiso   1.00
H260   H     0.85925   0.97921   0.35321   0.00000  Uiso   1.00
H261   H     0.65568   0.88762   0.65588   0.00000  Uiso   1.00
H262   H     0.68133   0.82989   0.77032   0.00000  Uiso   1.00
H263   H     0.58541   0.92556   0.76923   0.00000  Uiso   1.00
H264   H     0.68920   0.90236   0.41011   0.00000  Uiso   1.00
H265   H     0.72723   0.77385   0.92563   0.00000  Uiso   1.00
H266   H     0.52499   0.97559   0.92327   0.00000  Uiso   1.00
H267   H     0.74385   0.92668   0.16600   0.00000  Uiso   1.00
O268   O     0.80422   0.76326   0.09850   0.00000  Uiso   1.00
O269   O     0.53889   0.02793   0.09538   0.00000  Uiso   1.00
O270   O     0.82603   0.96375   0.10187   0.00000  Uiso   1.00
N271   N     0.81196   0.82195   0.05305   0.00000  Uiso   1.00
N272   N     0.62288   0.01055   0.05086   0.00000  Uiso   1.00
N273   N     0.82749   0.96483   0.34288   0.00000  Uiso   1.00
N274   N     0.74987   0.79368   0.95231   0.00000  Uiso   1.00
N275   N     0.56078   0.98228   0.95012   0.00000  Uiso   1.00
N276   N     0.76539   0.93656   0.24214   0.00000  Uiso   1.00
C277   C     0.74041   0.43492   0.67556   0.00000  Uiso   1.00
C278   C     0.74114   0.39687   0.63719   0.00000  Uiso   1.00
C279   C     0.70718   0.38063   0.54880   0.00000  Uiso   1.00
C280   C     0.71429   0.34566   0.52700   0.00000  Uiso   1.00
C281   C     0.70942   0.28933   0.45758   0.00000  Uiso   1.00
C282   C     0.79326   0.44885   0.63777   0.00000  Uiso   1.00
C283   C     0.80311   0.47632   0.54989   0.00000  Uiso   1.00
C284   C     0.85409   0.48510   0.52860   0.00000  Uiso   1.00
C285   C     0.93012   0.50949   0.46016   0.00000  Uiso   1.00
C286   C     0.73686   0.43625   0.83289   0.00000  Uiso   1.00
C287   C     0.69930   0.45312   0.90906   0.00000  Uiso   1.00
C288   C     0.70281   0.45129   0.05205   0.00000  Uiso   1.00
C289   C     0.69129   0.45611   0.28655   0.00000  Uiso   1.00
C290   C     0.81343   0.40167   0.79402   0.00000  Uiso   1.00
C291   C     0.78081   0.37882   0.70153   0.00000  Uiso   1.00
C292   C     0.78797   0.34385   0.67987   0.00000  Uiso   1.00
C293   C     0.75402   0.32757   0.59146   0.00000  Uiso   1.00
C294   C     0.83292   0.43080   0.70211   0.00000  Uiso   1.00
C295   C     0.88390   0.43954   0.68095   0.00000  Uiso   1.00
C296   C     0.89383   0.46701   0.59306   0.00000  Uiso   1.00
C297   C     0.77653   0.41819   0.89723   0.00000  Uiso   1.00
C298   C     0.78010   0.41634   0.04013   0.00000  Uiso   1.00
C299   C     0.74255   0.43320   0.11651   0.00000  Uiso   1.00
H300   H     0.70953   0.44898   0.62546   0.00000  Uiso   1.00
H301   H     0.67649   0.39462   0.49902   0.00000  Uiso   1.00
H302   H     0.77241   0.49029   0.50012   0.00000  Uiso   1.00
H303   H     0.66862   0.46709   0.85924   0.00000  Uiso   1.00
H304   H     0.65737   0.32639   0.38716   0.00000  Uiso   1.00
H305   H     0.85961   0.52812   0.38953   0.00000  Uiso   1.00
H306   H     0.64075   0.47921   0.14679   0.00000  Uiso   1.00
H307   H     0.84432   0.38762   0.84412   0.00000  Uiso   1.00
H308   H     0.81867   0.32989   0.72968   0.00000  Uiso   1.00
H309   H     0.91459   0.42556   0.73077   0.00000  Uiso   1.00
H310   H     0.81080   0.40236   0.08989   0.00000  Uiso   1.00
H311   H     0.77277   0.27385   0.57437   0.00000  Uiso   1.00
H312   H     0.97501   0.47559   0.57673   0.00000  Uiso   1.00
H313   H     0.75615   0.42668   0.33400   0.00000  Uiso   1.00
O314   O     0.69578   0.26326   0.40150   0.00000  Uiso   1.00
O315   O     0.96111   0.52793   0.40462   0.00000  Uiso   1.00
O316   O     0.67397   0.46375   0.39813   0.00000  Uiso   1.00
N317   N     0.68804   0.32195   0.44695   0.00000  Uiso   1.00
N318   N     0.87712   0.51055   0.44914   0.00000  Uiso   1.00
N319   N     0.67251   0.46483   0.15712   0.00000  Uiso   1.00
N320   N     0.75013   0.29368   0.54769   0.00000  Uiso   1.00
N321   N     0.93922   0.48228   0.54988   0.00000  Uiso   1.00
N322   N     0.73461   0.43656   0.25786   0.00000  Uiso   1.00
C323   C     0.24041   0.93492   0.67556   0.00000  Uiso   1.00
C324   C     0.24114   0.89687   0.63719   0.00000  Uiso   1.00
C325   C     0.20718   0.88063   0.54880   0.00000  Uiso   1.00
C326   C     0.21429   0.84566   0.52700   0.00000  Uiso   1.00
C327   C     0.20942   0.78933   0.45758   0.00000  Uiso   1.00
C328   C     0.29326   0.94885   0.63777   0.00000  Uiso   1.00
C329   C     0.30311   0.97632   0.54989   0.00000  Uiso   1.00
C330   C     0.35409   0.98510   0.52860   0.00000  Uiso   1.00
C331   C     0.43012   0.00949   0.46016   0.00000  Uiso   1.00
C332   C     0.23686   0.93625   0.83289   0.00000  Uiso   1.00
C333   C     0.19930   0.95312   0.90906   0.00000  Uiso   1.00
C334   C     0.20281   0.95129   0.05205   0.00000  Uiso   1.00
C335   C     0.19129   0.95611   0.28655   0.00000  Uiso   1.00
C336   C     0.31343   0.90167   0.79402   0.00000  Uiso   1.00
C337   C     0.28081   0.87882   0.70153   0.00000  Uiso   1.00
C338   C     0.28797   0.84385   0.67987   0.00000  Uiso   1.00
C339   C     0.25402   0.82757   0.59146   0.00000  Uiso   1.00
C340   C     0.33292   0.93080   0.70211   0.00000  Uiso   1.00
C341   C     0.38390   0.93954   0.68095   0.00000  Uiso   1.00
C342   C     0.39383   0.96701   0.59306   0.00000  Uiso   1.00
C343   C     0.27653   0.91819   0.89723   0.00000  Uiso   1.00
C344   C     0.28010   0.91634   0.04013   0.00000  Uiso   1.00
C345   C     0.24255   0.93320   0.11651   0.00000  Uiso   1.00
H346   H     0.20953   0.94898   0.62546   0.00000  Uiso   1.00
H347   H     0.17649   0.89462   0.49902   0.00000  Uiso   1.00
H348   H     0.27241   0.99029   0.50012   0.00000  Uiso   1.00
H349   H     0.16862   0.96709   0.85924   0.00000  Uiso   1.00
H350   H     0.15737   0.82639   0.38716   0.00000  Uiso   1.00
H351   H     0.35961   0.02812   0.38953   0.00000  Uiso   1.00
H352   H     0.14075   0.97921   0.14679   0.00000  Uiso   1.00
H353   H     0.34432   0.88762   0.84412   0.00000  Uiso   1.00
H354   H     0.31867   0.82989   0.72968   0.00000  Uiso   1.00
H355   H     0.41459   0.92556   0.73077   0.00000  Uiso   1.00
H356   H     0.31080   0.90236   0.08989   0.00000  Uiso   1.00
H357   H     0.27277   0.77385   0.57437   0.00000  Uiso   1.00
H358   H     0.47501   0.97559   0.57673   0.00000  Uiso   1.00
H359   H     0.25615   0.92668   0.33400   0.00000  Uiso   1.00
O360   O     0.19578   0.76326   0.40150   0.00000  Uiso   1.00
O361   O     0.46111   0.02793   0.40462   0.00000  Uiso   1.00
O362   O     0.17397   0.96375   0.39813   0.00000  Uiso   1.00
N363   N     0.18804   0.82195   0.44695   0.00000  Uiso   1.00
N364   N     0.37712   0.01055   0.44914   0.00000  Uiso   1.00
N365   N     0.17251   0.96483   0.15712   0.00000  Uiso   1.00
N366   N     0.25013   0.79368   0.54769   0.00000  Uiso   1.00
N367   N     0.43922   0.98228   0.54988   0.00000  Uiso   1.00
N368   N     0.23461   0.93656   0.25786   0.00000  Uiso   1.00
