data_job_03284
_audit_creation_date              2018-12-19
_audit_creation_method            'Materials Studio'
_symmetry_space_group_name_H-M    'P1'
_symmetry_Int_Tables_number       1
_symmetry_cell_setting            triclinic
loop_
_symmetry_equiv_pos_as_xyz
  x,y,z
_cell_length_a                    9.8989
_cell_length_b                    13.3848
_cell_length_c                    21.4469
_cell_angle_alpha                 90.0000
_cell_angle_beta                  118.5010
_cell_angle_gamma                 90.0000
loop_
_atom_site_label
_atom_site_type_symbol
_atom_site_fract_x
_atom_site_fract_y
_atom_site_fract_z
_atom_site_U_iso_or_equiv
_atom_site_adp_type
_atom_site_occupancy
C1     C     0.36053   0.68022   0.06404   0.00000  Uiso   1.00
C2     C     0.47260   0.74012   0.12862   0.00000  Uiso   1.00
C3     C     0.61295   0.70620   0.18185   0.00000  Uiso   1.00
C4     C     0.69863   0.77242   0.23643   0.00000  Uiso   1.00
C5     C     0.88065   0.85071   0.33653   0.00000  Uiso   1.00
C6     C     0.20820   0.68059   0.06567   0.00000  Uiso   1.00
C7     C     0.12623   0.59663   0.06596   0.00000  Uiso   1.00
C8     C     0.98934   0.61275   0.06753   0.00000  Uiso   1.00
C9     C     0.76082   0.59863   0.06985   0.00000  Uiso   1.00
C10    C     0.33405   0.74186   0.99939   0.00000  Uiso   1.00
C11    C     0.35786   0.70940   0.94394   0.00000  Uiso   1.00
C12    C     0.32688   0.77710   0.88969   0.00000  Uiso   1.00
C13    C     0.29376   0.85811   0.78910   0.00000  Uiso   1.00
C14    C     0.26313   0.85813   0.06630   0.00000  Uiso   1.00
C15    C     0.41969   0.83675   0.12985   0.00000  Uiso   1.00
C16    C     0.50519   0.90305   0.18435   0.00000  Uiso   1.00
C17    C     0.64564   0.86923   0.23766   0.00000  Uiso   1.00
C18    C     0.15529   0.77723   0.06690   0.00000  Uiso   1.00
C19    C     0.01848   0.79348   0.06846   0.00000  Uiso   1.00
C20    C     0.93633   0.70956   0.06876   0.00000  Uiso   1.00
C21    C     0.28115   0.83850   0.00061   0.00000  Uiso   1.00
C22    C     0.25011   0.90625   0.94644   0.00000  Uiso   1.00
C23    C     0.27387   0.87391   0.89093   0.00000  Uiso   1.00
H24    H     0.40171   0.60498   0.06308   0.00000  Uiso   1.00
H25    H     0.65384   0.63140   0.18088   0.00000  Uiso   1.00
H26    H     0.16720   0.52186   0.06500   0.00000  Uiso   1.00
H27    H     0.39879   0.63462   0.94300   0.00000  Uiso   1.00
H28    H     0.91002   0.70331   0.31204   0.00000  Uiso   1.00
H29    H     0.88388   0.47232   0.06768   0.00000  Uiso   1.00
H30    H     0.37224   0.71009   0.81041   0.00000  Uiso   1.00
H31    H     0.22194   0.93337   0.06726   0.00000  Uiso   1.00
H32    H     0.46422   0.97782   0.18529   0.00000  Uiso   1.00
H33    H     0.97757   0.86827   0.06941   0.00000  Uiso   1.00
H34    H     0.20917   0.98103   0.94741   0.00000  Uiso   1.00
H35    H     0.75611   0.98447   0.31562   0.00000  Uiso   1.00
H36    H     0.72996   0.75348   0.07125   0.00000  Uiso   1.00
H37    H     0.21833   0.99126   0.81400   0.00000  Uiso   1.00
O38    O     0.99566   0.86719   0.39142   0.00000  Uiso   1.00
O39    O     0.64939   0.56415   0.07080   0.00000  Uiso   1.00
O40    O     0.29012   0.87610   0.73329   0.00000  Uiso   1.00
N41    N     0.84056   0.76339   0.29668   0.00000  Uiso   1.00
N42    N     0.88119   0.54743   0.06822   0.00000  Uiso   1.00
N43    N     0.33773   0.76971   0.82770   0.00000  Uiso   1.00
N44    N     0.75774   0.91468   0.29861   0.00000  Uiso   1.00
N45    N     0.79838   0.69872   0.07015   0.00000  Uiso   1.00
N46    N     0.25492   0.92101   0.82962   0.00000  Uiso   1.00
C47    C     0.63947   0.18022   0.43596   0.00000  Uiso   1.00
C48    C     0.52740   0.24012   0.37138   0.00000  Uiso   1.00
C49    C     0.38705   0.20620   0.31815   0.00000  Uiso   1.00
C50    C     0.30137   0.27242   0.26357   0.00000  Uiso   1.00
C51    C     0.11935   0.35071   0.16347   0.00000  Uiso   1.00
C52    C     0.79180   0.18059   0.43433   0.00000  Uiso   1.00
C53    C     0.87377   0.09663   0.43404   0.00000  Uiso   1.00
C54    C     0.01066   0.11275   0.43247   0.00000  Uiso   1.00
C55    C     0.23918   0.09863   0.43015   0.00000  Uiso   1.00
C56    C     0.66595   0.24186   0.50061   0.00000  Uiso   1.00
C57    C     0.64214   0.20940   0.55606   0.00000  Uiso   1.00
C58    C     0.67312   0.27710   0.61031   0.00000  Uiso   1.00
C59    C     0.70624   0.35811   0.71090   0.00000  Uiso   1.00
C60    C     0.73687   0.35813   0.43370   0.00000  Uiso   1.00
C61    C     0.58031   0.33675   0.37015   0.00000  Uiso   1.00
C62    C     0.49481   0.40305   0.31565   0.00000  Uiso   1.00
C63    C     0.35436   0.36923   0.26234   0.00000  Uiso   1.00
C64    C     0.84471   0.27723   0.43310   0.00000  Uiso   1.00
C65    C     0.98152   0.29348   0.43154   0.00000  Uiso   1.00
C66    C     0.06367   0.20956   0.43124   0.00000  Uiso   1.00
C67    C     0.71885   0.33850   0.49939   0.00000  Uiso   1.00
C68    C     0.74989   0.40625   0.55356   0.00000  Uiso   1.00
C69    C     0.72613   0.37391   0.60907   0.00000  Uiso   1.00
H70    H     0.59829   0.10498   0.43692   0.00000  Uiso   1.00
H71    H     0.34616   0.13140   0.31912   0.00000  Uiso   1.00
H72    H     0.83280   0.02186   0.43500   0.00000  Uiso   1.00
H73    H     0.60121   0.13462   0.55700   0.00000  Uiso   1.00
H74    H     0.08998   0.20331   0.18796   0.00000  Uiso   1.00
H75    H     0.11612   0.97232   0.43232   0.00000  Uiso   1.00
H76    H     0.62776   0.21009   0.68959   0.00000  Uiso   1.00
H77    H     0.77806   0.43337   0.43274   0.00000  Uiso   1.00
H78    H     0.53578   0.47782   0.31471   0.00000  Uiso   1.00
H79    H     0.02243   0.36827   0.43059   0.00000  Uiso   1.00
H80    H     0.79083   0.48103   0.55259   0.00000  Uiso   1.00
H81    H     0.24389   0.48447   0.18438   0.00000  Uiso   1.00
H82    H     0.27004   0.25348   0.42875   0.00000  Uiso   1.00
H83    H     0.78167   0.49126   0.68600   0.00000  Uiso   1.00
O84    O     0.00434   0.36719   0.10858   0.00000  Uiso   1.00
O85    O     0.35061   0.06415   0.42920   0.00000  Uiso   1.00
O86    O     0.70988   0.37610   0.76671   0.00000  Uiso   1.00
N87    N     0.15944   0.26339   0.20332   0.00000  Uiso   1.00
N88    N     0.11881   0.04743   0.43178   0.00000  Uiso   1.00
N89    N     0.66227   0.26971   0.67230   0.00000  Uiso   1.00
N90    N     0.24226   0.41468   0.20139   0.00000  Uiso   1.00
N91    N     0.20162   0.19872   0.42985   0.00000  Uiso   1.00
N92    N     0.74508   0.42101   0.67038   0.00000  Uiso   1.00
C93    C     0.63947   0.31978   0.93596   0.00000  Uiso   1.00
C94    C     0.52740   0.25988   0.87138   0.00000  Uiso   1.00
C95    C     0.38705   0.29380   0.81815   0.00000  Uiso   1.00
C96    C     0.30137   0.22758   0.76357   0.00000  Uiso   1.00
C97    C     0.11935   0.14929   0.66347   0.00000  Uiso   1.00
C98    C     0.79180   0.31941   0.93433   0.00000  Uiso   1.00
C99    C     0.87377   0.40337   0.93404   0.00000  Uiso   1.00
C100   C     0.01066   0.38725   0.93247   0.00000  Uiso   1.00
C101   C     0.23918   0.40137   0.93015   0.00000  Uiso   1.00
C102   C     0.66595   0.25814   0.00061   0.00000  Uiso   1.00
C103   C     0.64214   0.29060   0.05606   0.00000  Uiso   1.00
C104   C     0.67312   0.22290   0.11031   0.00000  Uiso   1.00
C105   C     0.70624   0.14189   0.21090   0.00000  Uiso   1.00
C106   C     0.73687   0.14187   0.93370   0.00000  Uiso   1.00
C107   C     0.58031   0.16325   0.87015   0.00000  Uiso   1.00
C108   C     0.49481   0.09695   0.81565   0.00000  Uiso   1.00
C109   C     0.35436   0.13077   0.76234   0.00000  Uiso   1.00
C110   C     0.84471   0.22277   0.93310   0.00000  Uiso   1.00
C111   C     0.98152   0.20652   0.93154   0.00000  Uiso   1.00
C112   C     0.06367   0.29044   0.93124   0.00000  Uiso   1.00
C113   C     0.71885   0.16150   0.99939   0.00000  Uiso   1.00
C114   C     0.74989   0.09375   0.05356   0.00000  Uiso   1.00
C115   C     0.72613   0.12609   0.10907   0.00000  Uiso   1.00
H116   H     0.59829   0.39502   0.93692   0.00000  Uiso   1.00
H117   H     0.34616   0.36860   0.81912   0.00000  Uiso   1.00
H118   H     0.83280   0.47814   0.93500   0.00000  Uiso   1.00
H119   H     0.60121   0.36538   0.05700   0.00000  Uiso   1.00
H120   H     0.08998   0.29669   0.68796   0.00000  Uiso   1.00
H121   H     0.11612   0.52768   0.93232   0.00000  Uiso   1.00
H122   H     0.62776   0.28991   0.18959   0.00000  Uiso   1.00
H123   H     0.77806   0.06663   0.93274   0.00000  Uiso   1.00
H124   H     0.53578   0.02218   0.81471   0.00000  Uiso   1.00
H125   H     0.02243   0.13173   0.93059   0.00000  Uiso   1.00
H126   H     0.79083   0.01897   0.05259   0.00000  Uiso   1.00
H127   H     0.24389   0.01553   0.68438   0.00000  Uiso   1.00
H128   H     0.27004   0.24652   0.92875   0.00000  Uiso   1.00
H129   H     0.78167   0.00874   0.18600   0.00000  Uiso   1.00
O130   O     0.00434   0.13281   0.60858   0.00000  Uiso   1.00
O131   O     0.35061   0.43585   0.92920   0.00000  Uiso   1.00
O132   O     0.70988   0.12390   0.26671   0.00000  Uiso   1.00
N133   N     0.15944   0.23661   0.70332   0.00000  Uiso   1.00
N134   N     0.11881   0.45257   0.93178   0.00000  Uiso   1.00
N135   N     0.66227   0.23029   0.17230   0.00000  Uiso   1.00
N136   N     0.24226   0.08532   0.70139   0.00000  Uiso   1.00
N137   N     0.20162   0.30128   0.92985   0.00000  Uiso   1.00
N138   N     0.74508   0.07899   0.17038   0.00000  Uiso   1.00
C139   C     0.36053   0.81978   0.56404   0.00000  Uiso   1.00
C140   C     0.47260   0.75988   0.62862   0.00000  Uiso   1.00
C141   C     0.61295   0.79380   0.68185   0.00000  Uiso   1.00
C142   C     0.69863   0.72758   0.73643   0.00000  Uiso   1.00
C143   C     0.88065   0.64929   0.83653   0.00000  Uiso   1.00
C144   C     0.20820   0.81941   0.56567   0.00000  Uiso   1.00
C145   C     0.12623   0.90337   0.56596   0.00000  Uiso   1.00
C146   C     0.98934   0.88725   0.56753   0.00000  Uiso   1.00
C147   C     0.76082   0.90137   0.56985   0.00000  Uiso   1.00
C148   C     0.33405   0.75814   0.49939   0.00000  Uiso   1.00
C149   C     0.35786   0.79060   0.44394   0.00000  Uiso   1.00
C150   C     0.32688   0.72290   0.38969   0.00000  Uiso   1.00
C151   C     0.29376   0.64189   0.28910   0.00000  Uiso   1.00
C152   C     0.26313   0.64187   0.56630   0.00000  Uiso   1.00
C153   C     0.41969   0.66325   0.62985   0.00000  Uiso   1.00
C154   C     0.50519   0.59695   0.68435   0.00000  Uiso   1.00
C155   C     0.64564   0.63077   0.73766   0.00000  Uiso   1.00
C156   C     0.15529   0.72277   0.56690   0.00000  Uiso   1.00
C157   C     0.01848   0.70652   0.56846   0.00000  Uiso   1.00
C158   C     0.93633   0.79044   0.56876   0.00000  Uiso   1.00
C159   C     0.28115   0.66150   0.50061   0.00000  Uiso   1.00
C160   C     0.25011   0.59375   0.44644   0.00000  Uiso   1.00
C161   C     0.27387   0.62609   0.39093   0.00000  Uiso   1.00
H162   H     0.40171   0.89502   0.56308   0.00000  Uiso   1.00
H163   H     0.65384   0.86860   0.68088   0.00000  Uiso   1.00
H164   H     0.16720   0.97814   0.56500   0.00000  Uiso   1.00
H165   H     0.39879   0.86538   0.44300   0.00000  Uiso   1.00
H166   H     0.91002   0.79669   0.81204   0.00000  Uiso   1.00
H167   H     0.88388   0.02768   0.56768   0.00000  Uiso   1.00
H168   H     0.37224   0.78991   0.31041   0.00000  Uiso   1.00
H169   H     0.22194   0.56663   0.56726   0.00000  Uiso   1.00
H170   H     0.46422   0.52218   0.68529   0.00000  Uiso   1.00
H171   H     0.97757   0.63173   0.56941   0.00000  Uiso   1.00
H172   H     0.20917   0.51897   0.44741   0.00000  Uiso   1.00
H173   H     0.75611   0.51553   0.81562   0.00000  Uiso   1.00
H174   H     0.72996   0.74652   0.57125   0.00000  Uiso   1.00
H175   H     0.21833   0.50874   0.31400   0.00000  Uiso   1.00
O176   O     0.99566   0.63281   0.89142   0.00000  Uiso   1.00
O177   O     0.64939   0.93585   0.57080   0.00000  Uiso   1.00
O178   O     0.29012   0.62390   0.23329   0.00000  Uiso   1.00
N179   N     0.84056   0.73661   0.79668   0.00000  Uiso   1.00
N180   N     0.88119   0.95257   0.56822   0.00000  Uiso   1.00
N181   N     0.33773   0.73029   0.32770   0.00000  Uiso   1.00
N182   N     0.75774   0.58532   0.79861   0.00000  Uiso   1.00
N183   N     0.79838   0.80128   0.57015   0.00000  Uiso   1.00
N184   N     0.25492   0.57899   0.32962   0.00000  Uiso   1.00
