data_job_06501
_audit_creation_date              2018-12-19
_audit_creation_method            'Materials Studio'
_symmetry_space_group_name_H-M    'P1'
_symmetry_Int_Tables_number       1
_symmetry_cell_setting            triclinic
loop_
_symmetry_equiv_pos_as_xyz
  x,y,z
_cell_length_a                    18.3961
_cell_length_b                    20.0693
_cell_length_c                    20.9974
_cell_angle_alpha                 67.8910
_cell_angle_beta                  99.0072
_cell_angle_gamma                 79.7381
loop_
_atom_site_label
_atom_site_type_symbol
_atom_site_fract_x
_atom_site_fract_y
_atom_site_fract_z
_atom_site_U_iso_or_equiv
_atom_site_adp_type
_atom_site_occupancy
C1     C     0.57922   0.39655   0.55139   0.00000  Uiso   1.00
C2     C     0.62557   0.32039   0.56238   0.00000  Uiso   1.00
C3     C     0.66484   0.30591   0.51575   0.00000  Uiso   1.00
C4     C     0.70379   0.23249   0.53546   0.00000  Uiso   1.00
C5     C     0.77578   0.12286   0.54277   0.00000  Uiso   1.00
C6     C     0.49928   0.38839   0.55670   0.00000  Uiso   1.00
C7     C     0.43238   0.43111   0.50530   0.00000  Uiso   1.00
C8     C     0.36501   0.41494   0.52025   0.00000  Uiso   1.00
C9     C     0.24093   0.41094   0.51876   0.00000  Uiso   1.00
C10    C     0.61235   0.40917   0.61590   0.00000  Uiso   1.00
C11    C     0.64050   0.46936   0.61428   0.00000  Uiso   1.00
C12    C     0.66832   0.47069   0.67908   0.00000  Uiso   1.00
C13    C     0.71980   0.49894   0.76951   0.00000  Uiso   1.00
C14    C     0.57855   0.29191   0.66933   0.00000  Uiso   1.00
C15    C     0.62520   0.26355   0.62644   0.00000  Uiso   1.00
C16    C     0.66410   0.19013   0.64623   0.00000  Uiso   1.00
C17    C     0.70343   0.17555   0.59964   0.00000  Uiso   1.00
C18    C     0.49891   0.33156   0.62076   0.00000  Uiso   1.00
C19    C     0.43163   0.31533   0.63579   0.00000  Uiso   1.00
C20    C     0.36465   0.35800   0.58443   0.00000  Uiso   1.00
C21    C     0.61199   0.35233   0.67997   0.00000  Uiso   1.00
C22    C     0.63976   0.35357   0.74477   0.00000  Uiso   1.00
C23    C     0.66795   0.41375   0.74325   0.00000  Uiso   1.00
H24    H     0.57950   0.44081   0.50151   0.00000  Uiso   1.00
H25    H     0.66511   0.34991   0.46617   0.00000  Uiso   1.00
H26    H     0.43268   0.47510   0.45574   0.00000  Uiso   1.00
H27    H     0.64077   0.51333   0.56470   0.00000  Uiso   1.00
H28    H     0.75983   0.22407   0.45523   0.00000  Uiso   1.00
H29    H     0.26974   0.48804   0.43323   0.00000  Uiso   1.00
H30    H     0.70855   0.56868   0.66301   0.00000  Uiso   1.00
H31    H     0.57826   0.24765   0.71920   0.00000  Uiso   1.00
H32    H     0.66381   0.14616   0.69581   0.00000  Uiso   1.00
H33    H     0.43137   0.27134   0.68537   0.00000  Uiso   1.00
H34    H     0.63947   0.30958   0.79434   0.00000  Uiso   1.00
H35    H     0.75877   0.05869   0.64161   0.00000  Uiso   1.00
H36    H     0.26868   0.32267   0.61962   0.00000  Uiso   1.00
H37    H     0.70749   0.40330   0.84939   0.00000  Uiso   1.00
O38    O     0.81557   0.07809   0.52909   0.00000  Uiso   1.00
O39    O     0.17259   0.42442   0.50024   0.00000  Uiso   1.00
O40    O     0.74830   0.53022   0.80170   0.00000  Uiso   1.00
N41    N     0.74785   0.19908   0.50231   0.00000  Uiso   1.00
N42    N     0.28965   0.44587   0.48174   0.00000  Uiso   1.00
N43    N     0.69988   0.52127   0.69656   0.00000  Uiso   1.00
N44    N     0.74729   0.11009   0.60260   0.00000  Uiso   1.00
N45    N     0.28908   0.35688   0.58203   0.00000  Uiso   1.00
N46    N     0.69931   0.43228   0.79685   0.00000  Uiso   1.00
C47    C     0.82816   0.96630   0.44088   0.00000  Uiso   1.00
C48    C     0.83373   0.03281   0.37729   0.00000  Uiso   1.00
C49    C     0.85772   0.09371   0.37987   0.00000  Uiso   1.00
C50    C     0.85879   0.14878   0.31583   0.00000  Uiso   1.00
C51    C     0.87078   0.25295   0.22686   0.00000  Uiso   1.00
C52    C     0.74597   0.96131   0.42553   0.00000  Uiso   1.00
C53    C     0.69617   0.96208   0.46869   0.00000  Uiso   1.00
C54    C     0.62335   0.95696   0.44525   0.00000  Uiso   1.00
C55    C     0.49910   0.95006   0.43121   0.00000  Uiso   1.00
C56    C     0.87682   0.89759   0.43871   0.00000  Uiso   1.00
C57    C     0.93704   0.84476   0.49297   0.00000  Uiso   1.00
C58    C     0.97439   0.78597   0.48064   0.00000  Uiso   1.00
C59    C     0.05331   0.68013   0.48707   0.00000  Uiso   1.00
C60    C     0.78739   0.95581   0.32253   0.00000  Uiso   1.00
C61    C     0.81159   0.02712   0.31301   0.00000  Uiso   1.00
C62    C     0.81262   0.08211   0.24894   0.00000  Uiso   1.00
C63    C     0.83661   0.14308   0.25143   0.00000  Uiso   1.00
C64    C     0.72382   0.95562   0.36125   0.00000  Uiso   1.00
C65    C     0.65107   0.95049   0.33775   0.00000  Uiso   1.00
C66    C     0.60117   0.95125   0.38086   0.00000  Uiso   1.00
C67    C     0.85469   0.89189   0.37443   0.00000  Uiso   1.00
C68    C     0.89194   0.83317   0.36203   0.00000  Uiso   1.00
C69    C     0.95220   0.78026   0.41624   0.00000  Uiso   1.00
H70    H     0.84539   0.97073   0.49092   0.00000  Uiso   1.00
H71    H     0.87484   0.09810   0.42963   0.00000  Uiso   1.00
H72    H     0.71332   0.96648   0.51843   0.00000  Uiso   1.00
H73    H     0.95416   0.84918   0.54270   0.00000  Uiso   1.00
H74    H     0.89771   0.23681   0.33333   0.00000  Uiso   1.00
H75    H     0.55713   0.95927   0.52058   0.00000  Uiso   1.00
H76    H     0.06498   0.71191   0.57176   0.00000  Uiso   1.00
H77    H     0.77015   0.95138   0.27248   0.00000  Uiso   1.00
H78    H     0.79549   0.07769   0.19920   0.00000  Uiso   1.00
H79    H     0.63396   0.94608   0.28801   0.00000  Uiso   1.00
H80    H     0.87479   0.82878   0.31228   0.00000  Uiso   1.00
H81    H     0.83330   0.22025   0.14630   0.00000  Uiso   1.00
H82    H     0.49272   0.94271   0.33356   0.00000  Uiso   1.00
H83    H     0.00057   0.69535   0.38474   0.00000  Uiso   1.00
O84    O     0.88350   0.31198   0.19555   0.00000  Uiso   1.00
O85    O     0.43668   0.94784   0.44122   0.00000  Uiso   1.00
O86    O     0.10297   0.62332   0.50837   0.00000  Uiso   1.00
N87    N     0.87909   0.21557   0.29937   0.00000  Uiso   1.00
N88    N     0.56067   0.95610   0.47443   0.00000  Uiso   1.00
N89    N     0.03545   0.72483   0.52229   0.00000  Uiso   1.00
N90    N     0.84443   0.20666   0.19873   0.00000  Uiso   1.00
N91    N     0.52601   0.94719   0.37380   0.00000  Uiso   1.00
N92    N     0.00079   0.71592   0.42166   0.00000  Uiso   1.00
C93    C     0.74248   0.62611   0.98636   0.00000  Uiso   1.00
C94    C     0.80690   0.59208   0.05358   0.00000  Uiso   1.00
C95    C     0.83074   0.51748   0.10055   0.00000  Uiso   1.00
C96    C     0.89064   0.49745   0.15894   0.00000  Uiso   1.00
C97    C     0.98536   0.43660   0.26168   0.00000  Uiso   1.00
C98    C     0.68700   0.68764   0.99345   0.00000  Uiso   1.00
C99    C     0.61002   0.69337   0.98984   0.00000  Uiso   1.00
C100   C     0.56899   0.75379   0.99760   0.00000  Uiso   1.00
C101   C     0.47753   0.84131   0.00691   0.00000  Uiso   1.00
C102   C     0.77741   0.66517   0.92589   0.00000  Uiso   1.00
C103   C     0.77643   0.65203   0.86546   0.00000  Uiso   1.00
C104   C     0.81151   0.69355   0.81633   0.00000  Uiso   1.00
C105   C     0.86043   0.74619   0.72075   0.00000  Uiso   1.00
C106   C     0.80649   0.72322   0.00655   0.00000  Uiso   1.00
C107   C     0.84166   0.64483   0.06455   0.00000  Uiso   1.00
C108   C     0.90156   0.62491   0.12289   0.00000  Uiso   1.00
C109   C     0.92548   0.55029   0.16993   0.00000  Uiso   1.00
C110   C     0.72176   0.74038   0.00441   0.00000  Uiso   1.00
C111   C     0.68083   0.80081   0.01217   0.00000  Uiso   1.00
C112   C     0.60382   0.80663   0.00858   0.00000  Uiso   1.00
C113   C     0.81218   0.71791   0.93685   0.00000  Uiso   1.00
C114   C     0.84725   0.75947   0.88780   0.00000  Uiso   1.00
C115   C     0.84634   0.74639   0.82731   0.00000  Uiso   1.00
H116   H     0.71541   0.58505   0.97782   0.00000  Uiso   1.00
H117   H     0.80381   0.47668   0.09205   0.00000  Uiso   1.00
H118   H     0.58313   0.65255   0.98134   0.00000  Uiso   1.00
H119   H     0.74952   0.61121   0.85699   0.00000  Uiso   1.00
H120   H     0.91714   0.37979   0.22354   0.00000  Uiso   1.00
H121   H     0.45180   0.75064   0.99009   0.00000  Uiso   1.00
H122   H     0.80268   0.66347   0.72787   0.00000  Uiso   1.00
H123   H     0.83356   0.76429   0.01508   0.00000  Uiso   1.00
H124   H     0.92845   0.66575   0.13136   0.00000  Uiso   1.00
H125   H     0.70776   0.84162   0.02066   0.00000  Uiso   1.00
H126   H     0.87415   0.80028   0.89630   0.00000  Uiso   1.00
H127   H     0.01829   0.53324   0.25545   0.00000  Uiso   1.00
H128   H     0.55295   0.90410   0.02199   0.00000  Uiso   1.00
H129   H     0.90383   0.81693   0.75977   0.00000  Uiso   1.00
O130   O     0.02799   0.38846   0.31532   0.00000  Uiso   1.00
O131   O     0.41748   0.87501   0.00903   0.00000  Uiso   1.00
O132   O     0.87783   0.76064   0.66500   0.00000  Uiso   1.00
N133   N     0.92793   0.42942   0.21508   0.00000  Uiso   1.00
N134   N     0.49287   0.77614   0.99683   0.00000  Uiso   1.00
N135   N     0.82089   0.69466   0.75167   0.00000  Uiso   1.00
N136   N     0.98236   0.51200   0.23225   0.00000  Uiso   1.00
N137   N     0.54730   0.85871   0.01400   0.00000  Uiso   1.00
N138   N     0.87533   0.77723   0.76884   0.00000  Uiso   1.00
C139   C     0.24061   0.96463   0.38956   0.00000  Uiso   1.00
C140   C     0.30621   0.89576   0.41208   0.00000  Uiso   1.00
C141   C     0.33808   0.84247   0.48096   0.00000  Uiso   1.00
C142   C     0.39767   0.78362   0.49056   0.00000  Uiso   1.00
C143   C     0.49545   0.67747   0.53425   0.00000  Uiso   1.00
C144   C     0.17925   0.96036   0.33433   0.00000  Uiso   1.00
C145   C     0.10436   0.96141   0.33783   0.00000  Uiso   1.00
C146   C     0.05707   0.95695   0.28197   0.00000  Uiso   1.00
C147   C     0.95772   0.95116   0.20492   0.00000  Uiso   1.00
C148   C     0.27005   0.03106   0.35000   0.00000  Uiso   1.00
C149   C     0.27149   0.09156   0.36667   0.00000  Uiso   1.00
C150   C     0.30062   0.14664   0.32399   0.00000  Uiso   1.00
C151   C     0.34225   0.25062   0.27127   0.00000  Uiso   1.00
C152   C     0.28977   0.95486   0.28412   0.00000  Uiso   1.00
C153   C     0.33291   0.89045   0.35481   0.00000  Uiso   1.00
C154   C     0.39247   0.83167   0.36431   0.00000  Uiso   1.00
C155   C     0.42442   0.77831   0.43319   0.00000  Uiso   1.00
C156   C     0.20595   0.95506   0.27706   0.00000  Uiso   1.00
C157   C     0.15875   0.95060   0.22118   0.00000  Uiso   1.00
C158   C     0.08382   0.95163   0.22460   0.00000  Uiso   1.00
C159   C     0.29675   0.02575   0.29273   0.00000  Uiso   1.00
C160   C     0.32588   0.08075   0.25002   0.00000  Uiso   1.00
C161   C     0.32737   0.14132   0.26662   0.00000  Uiso   1.00
H162   H     0.21982   0.96876   0.43414   0.00000  Uiso   1.00
H163   H     0.31740   0.84660   0.52526   0.00000  Uiso   1.00
H164   H     0.08372   0.96552   0.38215   0.00000  Uiso   1.00
H165   H     0.25082   0.09565   0.41099   0.00000  Uiso   1.00
H166   H     0.43734   0.70881   0.60104   0.00000  Uiso   1.00
H167   H     0.94461   0.95959   0.29927   0.00000  Uiso   1.00
H168   H     0.29697   0.23400   0.36007   0.00000  Uiso   1.00
H169   H     0.31055   0.95073   0.23953   0.00000  Uiso   1.00
H170   H     0.41312   0.82758   0.31999   0.00000  Uiso   1.00
H171   H     0.17943   0.94650   0.17687   0.00000  Uiso   1.00
H172   H     0.34654   0.07663   0.20571   0.00000  Uiso   1.00
H173   H     0.51503   0.69336   0.43443   0.00000  Uiso   1.00
H174   H     0.02229   0.94415   0.13265   0.00000  Uiso   1.00
H175   H     0.37466   0.21856   0.19346   0.00000  Uiso   1.00
O176   O     0.54200   0.62038   0.57416   0.00000  Uiso   1.00
O177   O     0.89555   0.94942   0.17825   0.00000  Uiso   1.00
O178   O     0.35784   0.30943   0.25802   0.00000  Uiso   1.00
N179   N     0.44156   0.72208   0.55079   0.00000  Uiso   1.00
N180   N     0.98088   0.95654   0.26865   0.00000  Uiso   1.00
N181   N     0.31029   0.21309   0.32549   0.00000  Uiso   1.00
N182   N     0.48336   0.71377   0.46113   0.00000  Uiso   1.00
N183   N     0.02269   0.94823   0.17900   0.00000  Uiso   1.00
N184   N     0.35210   0.20479   0.23584   0.00000  Uiso   1.00
C185   C     0.03568   0.34213   0.64792   0.00000  Uiso   1.00
C186   C     0.09770   0.34513   0.70345   0.00000  Uiso   1.00
C187   C     0.10888   0.40917   0.70977   0.00000  Uiso   1.00
C188   C     0.16877   0.40016   0.76410   0.00000  Uiso   1.00
C189   C     0.25790   0.41554   0.84330   0.00000  Uiso   1.00
C190   C     0.99176   0.29022   0.68906   0.00000  Uiso   1.00
C191   C     0.91387   0.30808   0.68327   0.00000  Uiso   1.00
C192   C     0.88458   0.25284   0.72547   0.00000  Uiso   1.00
C193   C     0.80924   0.18294   0.78229   0.00000  Uiso   1.00
C194   C     0.07683   0.30205   0.60967   0.00000  Uiso   1.00
C195   C     0.07045   0.32985   0.53713   0.00000  Uiso   1.00
C196   C     0.11276   0.28456   0.51249   0.00000  Uiso   1.00
C197   C     0.16949   0.23304   0.44604   0.00000  Uiso   1.00
C198   C     0.12215   0.21225   0.73315   0.00000  Uiso   1.00
C199   C     0.14467   0.27458   0.74974   0.00000  Uiso   1.00
C200   C     0.20455   0.26547   0.80407   0.00000  Uiso   1.00
C201   C     0.21582   0.32948   0.81047   0.00000  Uiso   1.00
C202   C     0.03873   0.21967   0.73535   0.00000  Uiso   1.00
C203   C     0.00954   0.16438   0.77756   0.00000  Uiso   1.00
C204   C     0.93163   0.18216   0.77185   0.00000  Uiso   1.00
C205   C     0.12380   0.23150   0.65596   0.00000  Uiso   1.00
C206   C     0.16612   0.18615   0.63142   0.00000  Uiso   1.00
C207   C     0.15981   0.21389   0.55886   0.00000  Uiso   1.00
H208   H     0.99911   0.39706   0.61188   0.00000  Uiso   1.00
H209   H     0.07252   0.46376   0.67394   0.00000  Uiso   1.00
H210   H     0.87754   0.36268   0.64744   0.00000  Uiso   1.00
H211   H     0.03409   0.38445   0.50132   0.00000  Uiso   1.00
H212   H     0.17460   0.50659   0.76318   0.00000  Uiso   1.00
H213   H     0.76347   0.29346   0.70727   0.00000  Uiso   1.00
H214   H     0.09359   0.33937   0.39915   0.00000  Uiso   1.00
H215   H     0.15872   0.15732   0.76919   0.00000  Uiso   1.00
H216   H     0.24089   0.21087   0.83988   0.00000  Uiso   1.00
H217   H     0.04591   0.10979   0.81338   0.00000  Uiso   1.00
H218   H     0.20246   0.13156   0.66726   0.00000  Uiso   1.00
H219   H     0.31125   0.30133   0.89786   0.00000  Uiso   1.00
H220   H     0.90012   0.08820   0.84195   0.00000  Uiso   1.00
H221   H     0.23025   0.13411   0.53384   0.00000  Uiso   1.00
O222   O     0.29409   0.44351   0.87420   0.00000  Uiso   1.00
O223   O     0.75470   0.16389   0.80084   0.00000  Uiso   1.00
O224   O     0.18781   0.22412   0.39660   0.00000  Uiso   1.00
N225   N     0.19550   0.45093   0.78517   0.00000  Uiso   1.00
N226   N     0.81112   0.25168   0.73291   0.00000  Uiso   1.00
N227   N     0.11974   0.29459   0.44484   0.00000  Uiso   1.00
N228   N     0.26903   0.34049   0.85764   0.00000  Uiso   1.00
N229   N     0.88465   0.14123   0.80538   0.00000  Uiso   1.00
N230   N     0.19327   0.18414   0.51731   0.00000  Uiso   1.00
C231   C     0.27646   0.60649   0.99986   0.00000  Uiso   1.00
C232   C     0.30442   0.64397   0.93389   0.00000  Uiso   1.00
C233   C     0.30758   0.62032   0.87997   0.00000  Uiso   1.00
C234   C     0.33491   0.66223   0.82414   0.00000  Uiso   1.00
C235   C     0.37474   0.71083   0.72197   0.00000  Uiso   1.00
C236   C     0.21270   0.66618   0.00042   0.00000  Uiso   1.00
C237   C     0.13874   0.66119   0.00244   0.00000  Uiso   1.00
C238   C     0.08888   0.72179   0.00262   0.00000  Uiso   1.00
C239   C     0.98632   0.80485   0.00378   0.00000  Uiso   1.00
C240   C     0.34168   0.58913   0.06302   0.00000  Uiso   1.00
C241   C     0.37617   0.51938   0.11770   0.00000  Uiso   1.00
C242   C     0.43489   0.51511   0.17060   0.00000  Uiso   1.00
C243   C     0.53260   0.47855   0.26896   0.00000  Uiso   1.00
C244   C     0.31940   0.72296   0.99660   0.00000  Uiso   1.00
C245   C     0.32774   0.70724   0.93213   0.00000  Uiso   1.00
C246   C     0.35509   0.74919   0.87637   0.00000  Uiso   1.00
C247   C     0.35829   0.72560   0.82237   0.00000  Uiso   1.00
C248   C     0.23602   0.72944   0.99865   0.00000  Uiso   1.00
C249   C     0.18625   0.79006   0.99884   0.00000  Uiso   1.00
C250   C     0.11224   0.78517   0.00085   0.00000  Uiso   1.00
C251   C     0.36501   0.65240   0.06126   0.00000  Uiso   1.00
C252   C     0.42368   0.64824   0.11409   0.00000  Uiso   1.00
C253   C     0.45825   0.57849   0.16883   0.00000  Uiso   1.00
H254   H     0.25830   0.55723   0.00123   0.00000  Uiso   1.00
H255   H     0.28951   0.57136   0.88135   0.00000  Uiso   1.00
H256   H     0.12071   0.61223   0.00381   0.00000  Uiso   1.00
H257   H     0.35810   0.47043   0.11905   0.00000  Uiso   1.00
H258   H     0.33438   0.61494   0.74765   0.00000  Uiso   1.00
H259   H     0.97846   0.70109   0.00588   0.00000  Uiso   1.00
H260   H     0.47904   0.40209   0.24888   0.00000  Uiso   1.00
H261   H     0.33756   0.77222   0.99523   0.00000  Uiso   1.00
H262   H     0.37313   0.79814   0.87501   0.00000  Uiso   1.00
H263   H     0.20433   0.83901   0.99747   0.00000  Uiso   1.00
H264   H     0.44172   0.69721   0.11270   0.00000  Uiso   1.00
H265   H     0.40225   0.79901   0.74251   0.00000  Uiso   1.00
H266   H     0.04632   0.88516   0.00074   0.00000  Uiso   1.00
H267   H     0.54691   0.58616   0.24373   0.00000  Uiso   1.00
O268   O     0.39026   0.72017   0.66610   0.00000  Uiso   1.00
O269   O     0.92331   0.83318   0.00490   0.00000  Uiso   1.00
O270   O     0.58006   0.44090   0.32370   0.00000  Uiso   1.00
N271   N     0.34549   0.65470   0.76295   0.00000  Uiso   1.00
N272   N     0.01272   0.73525   0.00437   0.00000  Uiso   1.00
N273   N     0.48071   0.45571   0.23156   0.00000  Uiso   1.00
N274   N     0.38201   0.75374   0.76018   0.00000  Uiso   1.00
N275   N     0.04924   0.83429   0.00160   0.00000  Uiso   1.00
N276   N     0.51723   0.55475   0.22879   0.00000  Uiso   1.00
C277   C     0.39214   0.60660   0.35037   0.00000  Uiso   1.00
C278   C     0.34052   0.64315   0.38475   0.00000  Uiso   1.00
C279   C     0.34777   0.62043   0.45708   0.00000  Uiso   1.00
C280   C     0.29484   0.66123   0.47788   0.00000  Uiso   1.00
C281   C     0.22355   0.70867   0.53883   0.00000  Uiso   1.00
C282   C     0.42270   0.66788   0.30275   0.00000  Uiso   1.00
C283   C     0.49904   0.66595   0.30613   0.00000  Uiso   1.00
C284   C     0.51528   0.72757   0.25789   0.00000  Uiso   1.00
C285   C     0.57158   0.81339   0.19151   0.00000  Uiso   1.00
C286   C     0.33993   0.58611   0.30079   0.00000  Uiso   1.00
C287   C     0.34668   0.51543   0.30251   0.00000  Uiso   1.00
C288   C     0.29324   0.50820   0.25262   0.00000  Uiso   1.00
C289   C     0.22103   0.46706   0.18319   0.00000  Uiso   1.00
C290   C     0.28524   0.71944   0.25869   0.00000  Uiso   1.00
C291   C     0.28247   0.70444   0.33495   0.00000  Uiso   1.00
C292   C     0.22950   0.74528   0.35565   0.00000  Uiso   1.00
C293   C     0.23667   0.72263   0.42799   0.00000  Uiso   1.00
C294   C     0.36465   0.72917   0.25295   0.00000  Uiso   1.00
C295   C     0.38078   0.79080   0.20470   0.00000  Uiso   1.00
C296   C     0.45712   0.78897   0.20801   0.00000  Uiso   1.00
C297   C     0.28187   0.64740   0.25100   0.00000  Uiso   1.00
C298   C     0.22841   0.64028   0.20108   0.00000  Uiso   1.00
C299   C     0.23508   0.56960   0.20273   0.00000  Uiso   1.00
H300   H     0.43734   0.55889   0.38914   0.00000  Uiso   1.00
H301   H     0.39272   0.57300   0.49560   0.00000  Uiso   1.00
H302   H     0.54396   0.61851   0.34467   0.00000  Uiso   1.00
H303   H     0.39162   0.46801   0.34105   0.00000  Uiso   1.00
H304   H     0.31765   0.61570   0.59167   0.00000  Uiso   1.00
H305   H     0.63656   0.71165   0.27341   0.00000  Uiso   1.00
H306   H     0.31533   0.39429   0.26578   0.00000  Uiso   1.00
H307   H     0.24004   0.76716   0.21992   0.00000  Uiso   1.00
H308   H     0.18458   0.79271   0.31710   0.00000  Uiso   1.00
H309   H     0.33583   0.83822   0.16617   0.00000  Uiso   1.00
H310   H     0.18349   0.68772   0.16256   0.00000  Uiso   1.00
H311   H     0.14872   0.79402   0.44679   0.00000  Uiso   1.00
H312   H     0.46764   0.88997   0.12853   0.00000  Uiso   1.00
H313   H     0.14640   0.57261   0.12091   0.00000  Uiso   1.00
O314   O     0.20028   0.71792   0.58621   0.00000  Uiso   1.00
O315   O     0.61868   0.84380   0.16865   0.00000  Uiso   1.00
O316   O     0.19722   0.42743   0.15866   0.00000  Uiso   1.00
N317   N     0.28549   0.65415   0.54424   0.00000  Uiso   1.00
N318   N     0.58366   0.74387   0.24669   0.00000  Uiso   1.00
N319   N     0.28334   0.44716   0.23955   0.00000  Uiso   1.00
N320   N     0.19460   0.75010   0.46628   0.00000  Uiso   1.00
N321   N     0.49276   0.83982   0.16873   0.00000  Uiso   1.00
N322   N     0.19244   0.54312   0.16159   0.00000  Uiso   1.00
C323   C     0.19878   0.94187   0.64513   0.00000  Uiso   1.00
C324   C     0.17200   0.87389   0.68567   0.00000  Uiso   1.00
C325   C     0.17989   0.80953   0.67420   0.00000  Uiso   1.00
C326   C     0.15166   0.75364   0.71689   0.00000  Uiso   1.00
C327   C     0.11541   0.64680   0.77191   0.00000  Uiso   1.00
C328   C     0.25175   0.95423   0.70081   0.00000  Uiso   1.00
C329   C     0.32667   0.95743   0.70206   0.00000  Uiso   1.00
C330   C     0.36557   0.96919   0.75748   0.00000  Uiso   1.00
C331   C     0.45311   0.98714   0.83598   0.00000  Uiso   1.00
C332   C     0.12864   0.00791   0.61484   0.00000  Uiso   1.00
C333   C     0.10006   0.05626   0.54380   0.00000  Uiso   1.00
C334   C     0.03531   0.11322   0.52683   0.00000  Uiso   1.00
C335   C     0.93170   0.21451   0.47184   0.00000  Uiso   1.00
C336   C     0.13463   0.95707   0.74133   0.00000  Uiso   1.00
C337   C     0.13716   0.88214   0.73792   0.00000  Uiso   1.00
C338   C     0.10891   0.82634   0.78063   0.00000  Uiso   1.00
C339   C     0.11675   0.76190   0.76923   0.00000  Uiso   1.00
C340   C     0.21690   0.96249   0.75306   0.00000  Uiso   1.00
C341   C     0.25569   0.97424   0.80849   0.00000  Uiso   1.00
C342   C     0.33066   0.97745   0.80982   0.00000  Uiso   1.00
C343   C     0.09379   0.01616   0.66708   0.00000  Uiso   1.00
C344   C     0.02908   0.07306   0.65023   0.00000  Uiso   1.00
C345   C     0.00040   0.12148   0.57918   0.00000  Uiso   1.00
H346   H     0.22591   0.93545   0.60445   0.00000  Uiso   1.00
H347   H     0.20686   0.80316   0.63377   0.00000  Uiso   1.00
H348   H     0.35362   0.95105   0.66161   0.00000  Uiso   1.00
H349   H     0.12704   0.04985   0.50338   0.00000  Uiso   1.00
H350   H     0.17040   0.66012   0.68932   0.00000  Uiso   1.00
H351   H     0.47984   0.97198   0.74803   0.00000  Uiso   1.00
H352   H     0.00205   0.18033   0.41436   0.00000  Uiso   1.00
H353   H     0.10750   0.96350   0.78201   0.00000  Uiso   1.00
H354   H     0.08194   0.83274   0.82106   0.00000  Uiso   1.00
H355   H     0.22871   0.98063   0.84891   0.00000  Uiso   1.00
H356   H     0.00213   0.07943   0.69068   0.00000  Uiso   1.00
H357   H     0.06902   0.68413   0.84135   0.00000  Uiso   1.00
H358   H     0.37846   0.99599   0.90004   0.00000  Uiso   1.00
H359   H     0.90067   0.20434   0.56638   0.00000  Uiso   1.00
O360   O     0.10506   0.58559   0.78784   0.00000  Uiso   1.00
O361   O     0.51103   0.99476   0.86484   0.00000  Uiso   1.00
O362   O     0.88418   0.26810   0.42708   0.00000  Uiso   1.00
N363   N     0.15003   0.68372   0.71973   0.00000  Uiso   1.00
N364   N     0.43934   0.97528   0.77462   0.00000  Uiso   1.00
N365   N     0.99266   0.17008   0.46267   0.00000  Uiso   1.00
N366   N     0.09548   0.69664   0.80153   0.00000  Uiso   1.00
N367   N     0.38479   0.98820   0.85642   0.00000  Uiso   1.00
N368   N     0.93811   0.18300   0.54447   0.00000  Uiso   1.00
C369   C     0.19055   0.27087   0.03961   0.00000  Uiso   1.00
C370   C     0.12719   0.30721   0.97150   0.00000  Uiso   1.00
C371   C     0.10845   0.38130   0.92350   0.00000  Uiso   1.00
C372   C     0.04865   0.40372   0.86442   0.00000  Uiso   1.00
C373   C     0.95633   0.46773   0.76027   0.00000  Uiso   1.00
C374   C     0.24194   0.20540   0.03456   0.00000  Uiso   1.00
C375   C     0.31967   0.19387   0.03958   0.00000  Uiso   1.00
C376   C     0.35646   0.13059   0.03359   0.00000  Uiso   1.00
C377   C     0.44228   0.03650   0.02738   0.00000  Uiso   1.00
C378   C     0.15258   0.23703   0.09936   0.00000  Uiso   1.00
C379   C     0.15520   0.25208   0.15888   0.00000  Uiso   1.00
C380   C     0.11677   0.21541   0.20745   0.00000  Uiso   1.00
C381   C     0.06385   0.17043   0.30186   0.00000  Uiso   1.00
C382   C     0.11767   0.17896   0.02005   0.00000  Uiso   1.00
C383   C     0.08761   0.25729   0.96088   0.00000  Uiso   1.00
C384   C     0.02782   0.27961   0.90186   0.00000  Uiso   1.00
C385   C     0.00899   0.35371   0.85378   0.00000  Uiso   1.00
C386   C     0.20235   0.15548   0.02393   0.00000  Uiso   1.00
C387   C     0.23904   0.09219   0.01794   0.00000  Uiso   1.00
C388   C     0.31680   0.08057   0.02294   0.00000  Uiso   1.00
C389   C     0.11299   0.18710   0.08873   0.00000  Uiso   1.00
C390   C     0.07456   0.15040   0.13723   0.00000  Uiso   1.00
C391   C     0.07711   0.16539   0.19681   0.00000  Uiso   1.00
H392   H     0.22137   0.30974   0.04788   0.00000  Uiso   1.00
H393   H     0.13911   0.41991   0.93174   0.00000  Uiso   1.00
H394   H     0.35029   0.23251   0.04781   0.00000  Uiso   1.00
H395   H     0.18584   0.29071   0.16708   0.00000  Uiso   1.00
H396   H     0.03046   0.52004   0.79828   0.00000  Uiso   1.00
H397   H     0.47576   0.12489   0.04304   0.00000  Uiso   1.00
H398   H     0.12898   0.24761   0.29455   0.00000  Uiso   1.00
H399   H     0.08685   0.14009   0.01178   0.00000  Uiso   1.00
H400   H     0.99720   0.24096   0.89365   0.00000  Uiso   1.00
H401   H     0.20838   0.05357   0.00972   0.00000  Uiso   1.00
H402   H     0.04393   0.11177   0.12899   0.00000  Uiso   1.00
H403   H     0.91528   0.37480   0.76736   0.00000  Uiso   1.00
H404   H     0.36058   0.97964   0.01212   0.00000  Uiso   1.00
H405   H     0.01380   0.10237   0.26364   0.00000  Uiso   1.00
O406   O     0.91634   0.51683   0.70576   0.00000  Uiso   1.00
O407   O     0.50055   0.99840   0.02688   0.00000  Uiso   1.00
O408   O     0.04559   0.15942   0.35686   0.00000  Uiso   1.00
N409   N     0.01565   0.47202   0.80722   0.00000  Uiso   1.00
N410   N     0.43197   0.10258   0.03604   0.00000  Uiso   1.00
N411   N     0.10778   0.21730   0.27120   0.00000  Uiso   1.00
N412   N     0.95367   0.39386   0.79059   0.00000  Uiso   1.00
N413   N     0.36999   0.02443   0.01941   0.00000  Uiso   1.00
N414   N     0.04580   0.13915   0.25456   0.00000  Uiso   1.00
C415   C     0.68198   0.94161   0.65747   0.00000  Uiso   1.00
C416   C     0.61622   0.01128   0.63040   0.00000  Uiso   1.00
C417   C     0.58634   0.06139   0.56005   0.00000  Uiso   1.00
C418   C     0.52622   0.12164   0.54618   0.00000  Uiso   1.00
C419   C     0.42857   0.22836   0.49584   0.00000  Uiso   1.00
C420   C     0.74152   0.94902   0.71198   0.00000  Uiso   1.00
C421   C     0.81700   0.94677   0.71023   0.00000  Uiso   1.00
C422   C     0.86236   0.95460   0.76505   0.00000  Uiso   1.00
C423   C     0.95926   0.96460   0.84140   0.00000  Uiso   1.00
C424   C     0.65145   0.87680   0.69888   0.00000  Uiso   1.00
C425   C     0.65121   0.81381   0.68613   0.00000  Uiso   1.00
C426   C     0.62076   0.76082   0.72993   0.00000  Uiso   1.00
C427   C     0.57780   0.65869   0.78594   0.00000  Uiso   1.00
C428   C     0.62834   0.95951   0.75793   0.00000  Uiso   1.00
C429   C     0.58709   0.02100   0.68496   0.00000  Uiso   1.00
C430   C     0.52699   0.08119   0.67119   0.00000  Uiso   1.00
C431   C     0.49703   0.13138   0.60084   0.00000  Uiso   1.00
C432   C     0.71239   0.95874   0.76654   0.00000  Uiso   1.00
C433   C     0.75765   0.96657   0.82138   0.00000  Uiso   1.00
C434   C     0.83318   0.96433   0.81971   0.00000  Uiso   1.00
C435   C     0.62231   0.88652   0.75345   0.00000  Uiso   1.00
C436   C     0.59186   0.83361   0.79727   0.00000  Uiso   1.00
C437   C     0.59157   0.77056   0.78459   0.00000  Uiso   1.00
H438   H     0.70467   0.93404   0.61500   0.00000  Uiso   1.00
H439   H     0.60891   0.05385   0.51784   0.00000  Uiso   1.00
H440   H     0.83953   0.93924   0.66800   0.00000  Uiso   1.00
H441   H     0.67376   0.80631   0.64390   0.00000  Uiso   1.00
H442   H     0.48991   0.19098   0.43419   0.00000  Uiso   1.00
H443   H     0.97620   0.94929   0.75083   0.00000  Uiso   1.00
H444   H     0.62665   0.66898   0.70002   0.00000  Uiso   1.00
H445   H     0.60566   0.96707   0.80041   0.00000  Uiso   1.00
H446   H     0.50446   0.08870   0.71343   0.00000  Uiso   1.00
H447   H     0.73509   0.97409   0.86359   0.00000  Uiso   1.00
H448   H     0.56932   0.84115   0.83949   0.00000  Uiso   1.00
H449   H     0.40514   0.21926   0.59294   0.00000  Uiso   1.00
H450   H     0.89143   0.97757   0.90958   0.00000  Uiso   1.00
H451   H     0.54188   0.69726   0.85876   0.00000  Uiso   1.00
O452   O     0.38276   0.28455   0.45300   0.00000  Uiso   1.00
O453   O     0.02075   0.96745   0.86843   0.00000  Uiso   1.00
O454   O     0.56215   0.59968   0.80175   0.00000  Uiso   1.00
N455   N     0.48384   0.18094   0.48349   0.00000  Uiso   1.00
N456   N     0.93849   0.95499   0.77952   0.00000  Uiso   1.00
N457   N     0.61171   0.69290   0.73203   0.00000  Uiso   1.00
N458   N     0.43822   0.19616   0.56891   0.00000  Uiso   1.00
N459   N     0.89287   0.97020   0.86494   0.00000  Uiso   1.00
N460   N     0.56609   0.70812   0.81745   0.00000  Uiso   1.00
C461   C     0.90265   0.56493   0.38231   0.00000  Uiso   1.00
C462   C     0.84753   0.53909   0.34034   0.00000  Uiso   1.00
C463   C     0.85539   0.46662   0.34676   0.00000  Uiso   1.00
C464   C     0.79884   0.45437   0.30359   0.00000  Uiso   1.00
C465   C     0.72274   0.40539   0.24567   0.00000  Uiso   1.00
C466   C     0.92660   0.62642   0.32748   0.00000  Uiso   1.00
C467   C     0.00093   0.62738   0.32310   0.00000  Uiso   1.00
C468   C     0.01093   0.68867   0.26912   0.00000  Uiso   1.00
C469   C     0.05757   0.77530   0.19127   0.00000  Uiso   1.00
C470   C     0.85542   0.60270   0.41875   0.00000  Uiso   1.00
C471   C     0.86991   0.58374   0.49111   0.00000  Uiso   1.00
C472   C     0.81999   0.62506   0.51397   0.00000  Uiso   1.00
C473   C     0.75612   0.67487   0.57784   0.00000  Uiso   1.00
C474   C     0.78824   0.67206   0.29424   0.00000  Uiso   1.00
C475   C     0.78540   0.59727   0.29250   0.00000  Uiso   1.00
C476   C     0.72882   0.58513   0.24932   0.00000  Uiso   1.00
C477   C     0.73659   0.51266   0.25567   0.00000  Uiso   1.00
C478   C     0.86446   0.68461   0.27965   0.00000  Uiso   1.00
C479   C     0.87435   0.74590   0.22566   0.00000  Uiso   1.00
C480   C     0.94868   0.74696   0.22120   0.00000  Uiso   1.00
C481   C     0.79327   0.66089   0.37092   0.00000  Uiso   1.00
C482   C     0.74333   0.70225   0.39367   0.00000  Uiso   1.00
C483   C     0.75774   0.68335   0.46605   0.00000  Uiso   1.00
H484   H     0.95103   0.51964   0.41955   0.00000  Uiso   1.00
H485   H     0.90350   0.42160   0.38378   0.00000  Uiso   1.00
H486   H     0.04900   0.58235   0.36013   0.00000  Uiso   1.00
H487   H     0.91800   0.53871   0.52811   0.00000  Uiso   1.00
H488   H     0.82340   0.33858   0.32300   0.00000  Uiso   1.00
H489   H     0.13022   0.67754   0.27315   0.00000  Uiso   1.00
H490   H     0.85398   0.58551   0.62738   0.00000  Uiso   1.00
H491   H     0.73986   0.71736   0.25700   0.00000  Uiso   1.00
H492   H     0.68073   0.63017   0.21231   0.00000  Uiso   1.00
H493   H     0.82625   0.79092   0.18866   0.00000  Uiso   1.00
H494   H     0.69525   0.74728   0.35664   0.00000  Uiso   1.00
H495   H     0.64261   0.50786   0.18383   0.00000  Uiso   1.00
H496   H     0.94943   0.84682   0.13398   0.00000  Uiso   1.00
H497   H     0.67318   0.75479   0.48821   0.00000  Uiso   1.00
O498   O     0.69793   0.36230   0.22693   0.00000  Uiso   1.00
O499   O     0.10047   0.80701   0.16154   0.00000  Uiso   1.00
O500   O     0.73805   0.68627   0.62628   0.00000  Uiso   1.00
N501   N     0.78896   0.39038   0.29639   0.00000  Uiso   1.00
N502   N     0.07582   0.70728   0.24978   0.00000  Uiso   1.00
N503   N     0.81757   0.62126   0.58095   0.00000  Uiso   1.00
N504   N     0.69167   0.48147   0.22150   0.00000  Uiso   1.00
N505   N     0.97853   0.79837   0.17489   0.00000  Uiso   1.00
N506   N     0.72028   0.71235   0.50606   0.00000  Uiso   1.00
C507   C     0.56525   0.31511   0.00309   0.00000  Uiso   1.00
C508   C     0.56814   0.27011   0.08076   0.00000  Uiso   1.00
C509   C     0.52779   0.29471   0.12177   0.00000  Uiso   1.00
C510   C     0.53825   0.24513   0.19172   0.00000  Uiso   1.00
C511   C     0.53530   0.18616   0.30810   0.00000  Uiso   1.00
C512   C     0.64730   0.31604   0.99978   0.00000  Uiso   1.00
C513   C     0.67350   0.37926   0.97270   0.00000  Uiso   1.00
C514   C     0.75060   0.36834   0.97447   0.00000  Uiso   1.00
C515   C     0.87055   0.38067   0.96508   0.00000  Uiso   1.00
C516   C     0.54222   0.26886   0.96388   0.00000  Uiso   1.00
C517   C     0.48008   0.29241   0.90659   0.00000  Uiso   1.00
C518   C     0.46872   0.24177   0.87812   0.00000  Uiso   1.00
C519   C     0.42550   0.18085   0.81298   0.00000  Uiso   1.00
C520   C     0.65558   0.18330   0.05439   0.00000  Uiso   1.00
C521   C     0.61720   0.19852   0.10862   0.00000  Uiso   1.00
C522   C     0.62773   0.14888   0.17853   0.00000  Uiso   1.00
C523   C     0.58740   0.17341   0.21964   0.00000  Uiso   1.00
C524   C     0.69636   0.24445   0.02764   0.00000  Uiso   1.00
C525   C     0.77344   0.23343   0.02945   0.00000  Uiso   1.00
C526   C     0.79976   0.29662   0.00238   0.00000  Uiso   1.00
C527   C     0.59128   0.19726   0.99174   0.00000  Uiso   1.00
C528   C     0.58002   0.14658   0.96335   0.00000  Uiso   1.00
C529   C     0.51787   0.17005   0.90603   0.00000  Uiso   1.00
H530   H     0.52705   0.37085   0.98139   0.00000  Uiso   1.00
H531   H     0.48983   0.35012   0.10019   0.00000  Uiso   1.00
H532   H     0.63552   0.43465   0.95113   0.00000  Uiso   1.00
H533   H     0.44212   0.34781   0.88504   0.00000  Uiso   1.00
H534   H     0.47021   0.29558   0.24420   0.00000  Uiso   1.00
H535   H     0.77741   0.47382   0.92988   0.00000  Uiso   1.00
H536   H     0.36959   0.29071   0.79050   0.00000  Uiso   1.00
H537   H     0.69378   0.12757   0.07608   0.00000  Uiso   1.00
H538   H     0.66570   0.09349   0.20008   0.00000  Uiso   1.00
H539   H     0.81140   0.17802   0.05102   0.00000  Uiso   1.00
H540   H     0.61800   0.09118   0.98492   0.00000  Uiso   1.00
H541   H     0.61297   0.08729   0.32527   0.00000  Uiso   1.00
H542   H     0.92016   0.26553   0.01094   0.00000  Uiso   1.00
H543   H     0.51234   0.08241   0.87157   0.00000  Uiso   1.00
O544   O     0.52013   0.17342   0.36460   0.00000  Uiso   1.00
O545   O     0.92315   0.40726   0.95221   0.00000  Uiso   1.00
O546   O     0.38811   0.16702   0.76936   0.00000  Uiso   1.00
N547   N     0.50765   0.25123   0.24626   0.00000  Uiso   1.00
N548   N     0.79486   0.41787   0.95239   0.00000  Uiso   1.00
N549   N     0.41360   0.24668   0.82208   0.00000  Uiso   1.00
N550   N     0.58446   0.13915   0.28988   0.00000  Uiso   1.00
N551   N     0.87167   0.30579   0.99602   0.00000  Uiso   1.00
N552   N     0.49041   0.13460   0.86570   0.00000  Uiso   1.00
