data_job_05885
_audit_creation_date              2018-12-19
_audit_creation_method            'Materials Studio'
_symmetry_space_group_name_H-M    'P1'
_symmetry_Int_Tables_number       1
_symmetry_cell_setting            triclinic
loop_
_symmetry_equiv_pos_as_xyz
  x,y,z
_cell_length_a                    24.8149
_cell_length_b                    35.8328
_cell_length_c                    8.2227
_cell_angle_alpha                 90.0000
_cell_angle_beta                  74.5045
_cell_angle_gamma                 90.0000
loop_
_atom_site_label
_atom_site_type_symbol
_atom_site_fract_x
_atom_site_fract_y
_atom_site_fract_z
_atom_site_U_iso_or_equiv
_atom_site_adp_type
_atom_site_occupancy
C1     C     0.26221   0.13885   0.34023   0.00000  Uiso   1.00
C2     C     0.30649   0.10965   0.26440   0.00000  Uiso   1.00
C3     C     0.32272   0.08041   0.35140   0.00000  Uiso   1.00
C4     C     0.36395   0.05670   0.25930   0.00000  Uiso   1.00
C5     C     0.42906   0.01055   0.16786   0.00000  Uiso   1.00
C6     C     0.29106   0.17663   0.30091   0.00000  Uiso   1.00
C7     C     0.29430   0.20370   0.41862   0.00000  Uiso   1.00
C8     C     0.32253   0.23638   0.35724   0.00000  Uiso   1.00
C9     C     0.36366   0.29422   0.32248   0.00000  Uiso   1.00
C10    C     0.21947   0.13707   0.23728   0.00000  Uiso   1.00
C11    C     0.16252   0.13090   0.30148   0.00000  Uiso   1.00
C12    C     0.13047   0.13029   0.18654   0.00000  Uiso   1.00
C13    C     0.06044   0.12671   0.05298   0.00000  Uiso   1.00
C14    C     0.30655   0.14875   0.02194   0.00000  Uiso   1.00
C15    C     0.33058   0.11503   0.09152   0.00000  Uiso   1.00
C16    C     0.37179   0.09136   0.99925   0.00000  Uiso   1.00
C17    C     0.38808   0.06209   0.08611   0.00000  Uiso   1.00
C18    C     0.31514   0.18201   0.12803   0.00000  Uiso   1.00
C19    C     0.34337   0.21465   0.06647   0.00000  Uiso   1.00
C20    C     0.34667   0.24177   0.18405   0.00000  Uiso   1.00
C21    C     0.24355   0.14245   0.06439   0.00000  Uiso   1.00
C22    C     0.21159   0.14185   0.94933   0.00000  Uiso   1.00
C23    C     0.15460   0.13568   0.01335   0.00000  Uiso   1.00
H24    H     0.24345   0.13467   0.47483   0.00000  Uiso   1.00
H25    H     0.30407   0.07626   0.48520   0.00000  Uiso   1.00
H26    H     0.27566   0.19953   0.55239   0.00000  Uiso   1.00
H27    H     0.14389   0.12674   0.43527   0.00000  Uiso   1.00
H28    H     0.38192   0.01388   0.42046   0.00000  Uiso   1.00
H29    H     0.32198   0.27382   0.56214   0.00000  Uiso   1.00
H30    H     0.04413   0.12032   0.31518   0.00000  Uiso   1.00
H31    H     0.32531   0.15294   0.88734   0.00000  Uiso   1.00
H32    H     0.39042   0.09553   0.86547   0.00000  Uiso   1.00
H33    H     0.36201   0.21881   0.93267   0.00000  Uiso   1.00
H34    H     0.23024   0.14601   0.81556   0.00000  Uiso   1.00
H35    H     0.45200   0.02952   0.91747   0.00000  Uiso   1.00
H36    H     0.39207   0.28946   0.05916   0.00000  Uiso   1.00
H37    H     0.11422   0.13596   0.81219   0.00000  Uiso   1.00
O38    O     0.45833   0.98361   0.16519   0.00000  Uiso   1.00
O39    O     0.37969   0.32464   0.35107   0.00000  Uiso   1.00
O40    O     0.01516   0.12325   0.02707   0.00000  Uiso   1.00
N41    N     0.38947   0.02543   0.30508   0.00000  Uiso   1.00
N42    N     0.33344   0.26846   0.43755   0.00000  Uiso   1.00
N43    N     0.07367   0.12496   0.20666   0.00000  Uiso   1.00
N44    N     0.42718   0.03385   0.03442   0.00000  Uiso   1.00
N45    N     0.37115   0.27687   0.16689   0.00000  Uiso   1.00
N46    N     0.11138   0.13338   0.93601   0.00000  Uiso   1.00
C47    C     0.76221   0.63885   0.34023   0.00000  Uiso   1.00
C48    C     0.80649   0.60965   0.26440   0.00000  Uiso   1.00
C49    C     0.82272   0.58041   0.35140   0.00000  Uiso   1.00
C50    C     0.86395   0.55670   0.25930   0.00000  Uiso   1.00
C51    C     0.92906   0.51055   0.16786   0.00000  Uiso   1.00
C52    C     0.79106   0.67663   0.30091   0.00000  Uiso   1.00
C53    C     0.79430   0.70370   0.41862   0.00000  Uiso   1.00
C54    C     0.82253   0.73638   0.35724   0.00000  Uiso   1.00
C55    C     0.86366   0.79422   0.32248   0.00000  Uiso   1.00
C56    C     0.71947   0.63707   0.23728   0.00000  Uiso   1.00
C57    C     0.66252   0.63090   0.30148   0.00000  Uiso   1.00
C58    C     0.63047   0.63029   0.18654   0.00000  Uiso   1.00
C59    C     0.56044   0.62671   0.05298   0.00000  Uiso   1.00
C60    C     0.80655   0.64875   0.02194   0.00000  Uiso   1.00
C61    C     0.83058   0.61503   0.09152   0.00000  Uiso   1.00
C62    C     0.87179   0.59136   0.99925   0.00000  Uiso   1.00
C63    C     0.88808   0.56209   0.08611   0.00000  Uiso   1.00
C64    C     0.81514   0.68201   0.12803   0.00000  Uiso   1.00
C65    C     0.84337   0.71465   0.06647   0.00000  Uiso   1.00
C66    C     0.84667   0.74177   0.18405   0.00000  Uiso   1.00
C67    C     0.74355   0.64245   0.06439   0.00000  Uiso   1.00
C68    C     0.71159   0.64185   0.94933   0.00000  Uiso   1.00
C69    C     0.65460   0.63568   0.01335   0.00000  Uiso   1.00
H70    H     0.74345   0.63467   0.47483   0.00000  Uiso   1.00
H71    H     0.80407   0.57626   0.48520   0.00000  Uiso   1.00
H72    H     0.77566   0.69953   0.55239   0.00000  Uiso   1.00
H73    H     0.64389   0.62674   0.43527   0.00000  Uiso   1.00
H74    H     0.88192   0.51388   0.42046   0.00000  Uiso   1.00
H75    H     0.82198   0.77382   0.56214   0.00000  Uiso   1.00
H76    H     0.54413   0.62032   0.31518   0.00000  Uiso   1.00
H77    H     0.82531   0.65294   0.88734   0.00000  Uiso   1.00
H78    H     0.89042   0.59553   0.86547   0.00000  Uiso   1.00
H79    H     0.86201   0.71881   0.93267   0.00000  Uiso   1.00
H80    H     0.73024   0.64601   0.81556   0.00000  Uiso   1.00
H81    H     0.95200   0.52952   0.91747   0.00000  Uiso   1.00
H82    H     0.89207   0.78946   0.05916   0.00000  Uiso   1.00
H83    H     0.61422   0.63596   0.81219   0.00000  Uiso   1.00
O84    O     0.95833   0.48361   0.16519   0.00000  Uiso   1.00
O85    O     0.87969   0.82464   0.35107   0.00000  Uiso   1.00
O86    O     0.51516   0.62325   0.02707   0.00000  Uiso   1.00
N87    N     0.88947   0.52543   0.30508   0.00000  Uiso   1.00
N88    N     0.83344   0.76846   0.43755   0.00000  Uiso   1.00
N89    N     0.57367   0.62496   0.20666   0.00000  Uiso   1.00
N90    N     0.92718   0.53385   0.03442   0.00000  Uiso   1.00
N91    N     0.87115   0.77687   0.16689   0.00000  Uiso   1.00
N92    N     0.61138   0.63338   0.93601   0.00000  Uiso   1.00
C93    C     0.73779   0.13885   0.15977   0.00000  Uiso   1.00
C94    C     0.69351   0.10965   0.23560   0.00000  Uiso   1.00
C95    C     0.67728   0.08041   0.14860   0.00000  Uiso   1.00
C96    C     0.63605   0.05670   0.24070   0.00000  Uiso   1.00
C97    C     0.57094   0.01055   0.33214   0.00000  Uiso   1.00
C98    C     0.70894   0.17663   0.19909   0.00000  Uiso   1.00
C99    C     0.70570   0.20370   0.08138   0.00000  Uiso   1.00
C100   C     0.67747   0.23638   0.14276   0.00000  Uiso   1.00
C101   C     0.63634   0.29422   0.17752   0.00000  Uiso   1.00
C102   C     0.78053   0.13707   0.26272   0.00000  Uiso   1.00
C103   C     0.83748   0.13090   0.19852   0.00000  Uiso   1.00
C104   C     0.86953   0.13029   0.31346   0.00000  Uiso   1.00
C105   C     0.93956   0.12671   0.44702   0.00000  Uiso   1.00
C106   C     0.69345   0.14875   0.47806   0.00000  Uiso   1.00
C107   C     0.66942   0.11503   0.40848   0.00000  Uiso   1.00
C108   C     0.62821   0.09136   0.50075   0.00000  Uiso   1.00
C109   C     0.61192   0.06209   0.41389   0.00000  Uiso   1.00
C110   C     0.68486   0.18201   0.37197   0.00000  Uiso   1.00
C111   C     0.65663   0.21465   0.43353   0.00000  Uiso   1.00
C112   C     0.65333   0.24177   0.31595   0.00000  Uiso   1.00
C113   C     0.75645   0.14245   0.43561   0.00000  Uiso   1.00
C114   C     0.78841   0.14185   0.55067   0.00000  Uiso   1.00
C115   C     0.84540   0.13568   0.48665   0.00000  Uiso   1.00
H116   H     0.75655   0.13467   0.02517   0.00000  Uiso   1.00
H117   H     0.69593   0.07626   0.01480   0.00000  Uiso   1.00
H118   H     0.72434   0.19953   0.94761   0.00000  Uiso   1.00
H119   H     0.85611   0.12674   0.06473   0.00000  Uiso   1.00
H120   H     0.61808   0.01388   0.07954   0.00000  Uiso   1.00
H121   H     0.67802   0.27382   0.93786   0.00000  Uiso   1.00
H122   H     0.95587   0.12032   0.18482   0.00000  Uiso   1.00
H123   H     0.67469   0.15294   0.61266   0.00000  Uiso   1.00
H124   H     0.60958   0.09553   0.63453   0.00000  Uiso   1.00
H125   H     0.63799   0.21881   0.56733   0.00000  Uiso   1.00
H126   H     0.76976   0.14601   0.68444   0.00000  Uiso   1.00
H127   H     0.54800   0.02952   0.58253   0.00000  Uiso   1.00
H128   H     0.60793   0.28946   0.44084   0.00000  Uiso   1.00
H129   H     0.88578   0.13596   0.68781   0.00000  Uiso   1.00
O130   O     0.54167   0.98361   0.33481   0.00000  Uiso   1.00
O131   O     0.62031   0.32464   0.14893   0.00000  Uiso   1.00
O132   O     0.98484   0.12325   0.47293   0.00000  Uiso   1.00
N133   N     0.61053   0.02543   0.19492   0.00000  Uiso   1.00
N134   N     0.66656   0.26846   0.06245   0.00000  Uiso   1.00
N135   N     0.92633   0.12496   0.29334   0.00000  Uiso   1.00
N136   N     0.57282   0.03385   0.46558   0.00000  Uiso   1.00
N137   N     0.62885   0.27687   0.33311   0.00000  Uiso   1.00
N138   N     0.88862   0.13338   0.56399   0.00000  Uiso   1.00
C139   C     0.23779   0.63885   0.15977   0.00000  Uiso   1.00
C140   C     0.19351   0.60965   0.23560   0.00000  Uiso   1.00
C141   C     0.17728   0.58041   0.14860   0.00000  Uiso   1.00
C142   C     0.13605   0.55670   0.24070   0.00000  Uiso   1.00
C143   C     0.07094   0.51055   0.33214   0.00000  Uiso   1.00
C144   C     0.20894   0.67663   0.19909   0.00000  Uiso   1.00
C145   C     0.20570   0.70370   0.08138   0.00000  Uiso   1.00
C146   C     0.17747   0.73638   0.14276   0.00000  Uiso   1.00
C147   C     0.13634   0.79422   0.17752   0.00000  Uiso   1.00
C148   C     0.28053   0.63707   0.26272   0.00000  Uiso   1.00
C149   C     0.33748   0.63090   0.19852   0.00000  Uiso   1.00
C150   C     0.36953   0.63029   0.31346   0.00000  Uiso   1.00
C151   C     0.43956   0.62671   0.44702   0.00000  Uiso   1.00
C152   C     0.19345   0.64875   0.47806   0.00000  Uiso   1.00
C153   C     0.16942   0.61503   0.40848   0.00000  Uiso   1.00
C154   C     0.12821   0.59136   0.50075   0.00000  Uiso   1.00
C155   C     0.11192   0.56209   0.41389   0.00000  Uiso   1.00
C156   C     0.18486   0.68201   0.37197   0.00000  Uiso   1.00
C157   C     0.15663   0.71465   0.43353   0.00000  Uiso   1.00
C158   C     0.15333   0.74177   0.31595   0.00000  Uiso   1.00
C159   C     0.25645   0.64245   0.43561   0.00000  Uiso   1.00
C160   C     0.28841   0.64185   0.55067   0.00000  Uiso   1.00
C161   C     0.34540   0.63568   0.48665   0.00000  Uiso   1.00
H162   H     0.25655   0.63467   0.02517   0.00000  Uiso   1.00
H163   H     0.19593   0.57626   0.01480   0.00000  Uiso   1.00
H164   H     0.22434   0.69953   0.94761   0.00000  Uiso   1.00
H165   H     0.35611   0.62674   0.06473   0.00000  Uiso   1.00
H166   H     0.11808   0.51388   0.07954   0.00000  Uiso   1.00
H167   H     0.17802   0.77382   0.93786   0.00000  Uiso   1.00
H168   H     0.45587   0.62032   0.18482   0.00000  Uiso   1.00
H169   H     0.17469   0.65294   0.61266   0.00000  Uiso   1.00
H170   H     0.10958   0.59553   0.63453   0.00000  Uiso   1.00
H171   H     0.13799   0.71881   0.56733   0.00000  Uiso   1.00
H172   H     0.26976   0.64601   0.68444   0.00000  Uiso   1.00
H173   H     0.04800   0.52952   0.58253   0.00000  Uiso   1.00
H174   H     0.10793   0.78946   0.44084   0.00000  Uiso   1.00
H175   H     0.38578   0.63596   0.68781   0.00000  Uiso   1.00
O176   O     0.04167   0.48361   0.33481   0.00000  Uiso   1.00
O177   O     0.12031   0.82464   0.14893   0.00000  Uiso   1.00
O178   O     0.48484   0.62325   0.47293   0.00000  Uiso   1.00
N179   N     0.11053   0.52543   0.19492   0.00000  Uiso   1.00
N180   N     0.16656   0.76846   0.06245   0.00000  Uiso   1.00
N181   N     0.42633   0.62496   0.29334   0.00000  Uiso   1.00
N182   N     0.07282   0.53385   0.46558   0.00000  Uiso   1.00
N183   N     0.12885   0.77687   0.33311   0.00000  Uiso   1.00
N184   N     0.38862   0.63338   0.56399   0.00000  Uiso   1.00
C185   C     0.73779   0.86115   0.65977   0.00000  Uiso   1.00
C186   C     0.69351   0.89035   0.73560   0.00000  Uiso   1.00
C187   C     0.67728   0.91959   0.64860   0.00000  Uiso   1.00
C188   C     0.63605   0.94330   0.74070   0.00000  Uiso   1.00
C189   C     0.57094   0.98945   0.83214   0.00000  Uiso   1.00
C190   C     0.70894   0.82337   0.69909   0.00000  Uiso   1.00
C191   C     0.70570   0.79630   0.58138   0.00000  Uiso   1.00
C192   C     0.67747   0.76362   0.64276   0.00000  Uiso   1.00
C193   C     0.63634   0.70578   0.67752   0.00000  Uiso   1.00
C194   C     0.78053   0.86293   0.76272   0.00000  Uiso   1.00
C195   C     0.83748   0.86910   0.69852   0.00000  Uiso   1.00
C196   C     0.86953   0.86971   0.81346   0.00000  Uiso   1.00
C197   C     0.93956   0.87329   0.94702   0.00000  Uiso   1.00
C198   C     0.69345   0.85125   0.97806   0.00000  Uiso   1.00
C199   C     0.66942   0.88497   0.90848   0.00000  Uiso   1.00
C200   C     0.62821   0.90864   0.00075   0.00000  Uiso   1.00
C201   C     0.61192   0.93791   0.91389   0.00000  Uiso   1.00
C202   C     0.68486   0.81799   0.87197   0.00000  Uiso   1.00
C203   C     0.65663   0.78535   0.93353   0.00000  Uiso   1.00
C204   C     0.65333   0.75823   0.81595   0.00000  Uiso   1.00
C205   C     0.75645   0.85755   0.93561   0.00000  Uiso   1.00
C206   C     0.78841   0.85815   0.05067   0.00000  Uiso   1.00
C207   C     0.84540   0.86432   0.98665   0.00000  Uiso   1.00
H208   H     0.75655   0.86533   0.52517   0.00000  Uiso   1.00
H209   H     0.69593   0.92374   0.51480   0.00000  Uiso   1.00
H210   H     0.72434   0.80047   0.44761   0.00000  Uiso   1.00
H211   H     0.85611   0.87326   0.56473   0.00000  Uiso   1.00
H212   H     0.61808   0.98612   0.57954   0.00000  Uiso   1.00
H213   H     0.67802   0.72618   0.43786   0.00000  Uiso   1.00
H214   H     0.95587   0.87968   0.68482   0.00000  Uiso   1.00
H215   H     0.67469   0.84706   0.11266   0.00000  Uiso   1.00
H216   H     0.60958   0.90447   0.13453   0.00000  Uiso   1.00
H217   H     0.63799   0.78119   0.06733   0.00000  Uiso   1.00
H218   H     0.76976   0.85399   0.18444   0.00000  Uiso   1.00
H219   H     0.54800   0.97048   0.08253   0.00000  Uiso   1.00
H220   H     0.60793   0.71054   0.94084   0.00000  Uiso   1.00
H221   H     0.88578   0.86404   0.18781   0.00000  Uiso   1.00
O222   O     0.54167   0.01639   0.83481   0.00000  Uiso   1.00
O223   O     0.62031   0.67536   0.64893   0.00000  Uiso   1.00
O224   O     0.98484   0.87675   0.97293   0.00000  Uiso   1.00
N225   N     0.61053   0.97457   0.69492   0.00000  Uiso   1.00
N226   N     0.66656   0.73154   0.56245   0.00000  Uiso   1.00
N227   N     0.92633   0.87504   0.79334   0.00000  Uiso   1.00
N228   N     0.57282   0.96615   0.96558   0.00000  Uiso   1.00
N229   N     0.62885   0.72313   0.83311   0.00000  Uiso   1.00
N230   N     0.88862   0.86662   0.06399   0.00000  Uiso   1.00
C231   C     0.23779   0.36115   0.65977   0.00000  Uiso   1.00
C232   C     0.19351   0.39035   0.73560   0.00000  Uiso   1.00
C233   C     0.17728   0.41959   0.64860   0.00000  Uiso   1.00
C234   C     0.13605   0.44330   0.74070   0.00000  Uiso   1.00
C235   C     0.07094   0.48945   0.83214   0.00000  Uiso   1.00
C236   C     0.20894   0.32337   0.69909   0.00000  Uiso   1.00
C237   C     0.20570   0.29630   0.58138   0.00000  Uiso   1.00
C238   C     0.17747   0.26362   0.64276   0.00000  Uiso   1.00
C239   C     0.13634   0.20578   0.67752   0.00000  Uiso   1.00
C240   C     0.28053   0.36293   0.76272   0.00000  Uiso   1.00
C241   C     0.33748   0.36910   0.69852   0.00000  Uiso   1.00
C242   C     0.36953   0.36971   0.81346   0.00000  Uiso   1.00
C243   C     0.43956   0.37329   0.94702   0.00000  Uiso   1.00
C244   C     0.19345   0.35125   0.97806   0.00000  Uiso   1.00
C245   C     0.16942   0.38497   0.90848   0.00000  Uiso   1.00
C246   C     0.12821   0.40864   0.00075   0.00000  Uiso   1.00
C247   C     0.11192   0.43791   0.91389   0.00000  Uiso   1.00
C248   C     0.18486   0.31799   0.87197   0.00000  Uiso   1.00
C249   C     0.15663   0.28535   0.93353   0.00000  Uiso   1.00
C250   C     0.15333   0.25823   0.81595   0.00000  Uiso   1.00
C251   C     0.25645   0.35755   0.93561   0.00000  Uiso   1.00
C252   C     0.28841   0.35815   0.05067   0.00000  Uiso   1.00
C253   C     0.34540   0.36432   0.98665   0.00000  Uiso   1.00
H254   H     0.25655   0.36533   0.52517   0.00000  Uiso   1.00
H255   H     0.19593   0.42374   0.51480   0.00000  Uiso   1.00
H256   H     0.22434   0.30047   0.44761   0.00000  Uiso   1.00
H257   H     0.35611   0.37326   0.56473   0.00000  Uiso   1.00
H258   H     0.11808   0.48612   0.57954   0.00000  Uiso   1.00
H259   H     0.17802   0.22618   0.43786   0.00000  Uiso   1.00
H260   H     0.45587   0.37968   0.68482   0.00000  Uiso   1.00
H261   H     0.17469   0.34706   0.11266   0.00000  Uiso   1.00
H262   H     0.10958   0.40447   0.13453   0.00000  Uiso   1.00
H263   H     0.13799   0.28119   0.06733   0.00000  Uiso   1.00
H264   H     0.26976   0.35399   0.18444   0.00000  Uiso   1.00
H265   H     0.04800   0.47048   0.08253   0.00000  Uiso   1.00
H266   H     0.10793   0.21054   0.94084   0.00000  Uiso   1.00
H267   H     0.38578   0.36404   0.18781   0.00000  Uiso   1.00
O268   O     0.04167   0.51639   0.83481   0.00000  Uiso   1.00
O269   O     0.12031   0.17536   0.64893   0.00000  Uiso   1.00
O270   O     0.48484   0.37675   0.97293   0.00000  Uiso   1.00
N271   N     0.11053   0.47457   0.69492   0.00000  Uiso   1.00
N272   N     0.16656   0.23154   0.56245   0.00000  Uiso   1.00
N273   N     0.42633   0.37504   0.79334   0.00000  Uiso   1.00
N274   N     0.07282   0.46615   0.96558   0.00000  Uiso   1.00
N275   N     0.12885   0.22313   0.83311   0.00000  Uiso   1.00
N276   N     0.38862   0.36662   0.06399   0.00000  Uiso   1.00
C277   C     0.26221   0.86115   0.84023   0.00000  Uiso   1.00
C278   C     0.30649   0.89035   0.76440   0.00000  Uiso   1.00
C279   C     0.32272   0.91959   0.85140   0.00000  Uiso   1.00
C280   C     0.36395   0.94330   0.75930   0.00000  Uiso   1.00
C281   C     0.42906   0.98945   0.66786   0.00000  Uiso   1.00
C282   C     0.29106   0.82337   0.80091   0.00000  Uiso   1.00
C283   C     0.29430   0.79630   0.91862   0.00000  Uiso   1.00
C284   C     0.32253   0.76362   0.85724   0.00000  Uiso   1.00
C285   C     0.36366   0.70578   0.82248   0.00000  Uiso   1.00
C286   C     0.21947   0.86293   0.73728   0.00000  Uiso   1.00
C287   C     0.16252   0.86910   0.80148   0.00000  Uiso   1.00
C288   C     0.13047   0.86971   0.68654   0.00000  Uiso   1.00
C289   C     0.06044   0.87329   0.55298   0.00000  Uiso   1.00
C290   C     0.30655   0.85125   0.52194   0.00000  Uiso   1.00
C291   C     0.33058   0.88497   0.59152   0.00000  Uiso   1.00
C292   C     0.37179   0.90864   0.49925   0.00000  Uiso   1.00
C293   C     0.38808   0.93791   0.58611   0.00000  Uiso   1.00
C294   C     0.31514   0.81799   0.62803   0.00000  Uiso   1.00
C295   C     0.34337   0.78535   0.56647   0.00000  Uiso   1.00
C296   C     0.34667   0.75823   0.68405   0.00000  Uiso   1.00
C297   C     0.24355   0.85755   0.56439   0.00000  Uiso   1.00
C298   C     0.21159   0.85815   0.44933   0.00000  Uiso   1.00
C299   C     0.15460   0.86432   0.51335   0.00000  Uiso   1.00
H300   H     0.24345   0.86533   0.97483   0.00000  Uiso   1.00
H301   H     0.30407   0.92374   0.98520   0.00000  Uiso   1.00
H302   H     0.27566   0.80047   0.05239   0.00000  Uiso   1.00
H303   H     0.14389   0.87326   0.93527   0.00000  Uiso   1.00
H304   H     0.38192   0.98612   0.92046   0.00000  Uiso   1.00
H305   H     0.32198   0.72618   0.06214   0.00000  Uiso   1.00
H306   H     0.04413   0.87968   0.81518   0.00000  Uiso   1.00
H307   H     0.32531   0.84706   0.38734   0.00000  Uiso   1.00
H308   H     0.39042   0.90447   0.36547   0.00000  Uiso   1.00
H309   H     0.36201   0.78119   0.43267   0.00000  Uiso   1.00
H310   H     0.23024   0.85399   0.31556   0.00000  Uiso   1.00
H311   H     0.45200   0.97048   0.41747   0.00000  Uiso   1.00
H312   H     0.39207   0.71054   0.55916   0.00000  Uiso   1.00
H313   H     0.11422   0.86404   0.31219   0.00000  Uiso   1.00
O314   O     0.45833   0.01639   0.66519   0.00000  Uiso   1.00
O315   O     0.37969   0.67536   0.85107   0.00000  Uiso   1.00
O316   O     0.01516   0.87675   0.52707   0.00000  Uiso   1.00
N317   N     0.38947   0.97457   0.80508   0.00000  Uiso   1.00
N318   N     0.33344   0.73154   0.93755   0.00000  Uiso   1.00
N319   N     0.07367   0.87504   0.70666   0.00000  Uiso   1.00
N320   N     0.42718   0.96615   0.53442   0.00000  Uiso   1.00
N321   N     0.37115   0.72313   0.66689   0.00000  Uiso   1.00
N322   N     0.11138   0.86662   0.43601   0.00000  Uiso   1.00
C323   C     0.76221   0.36115   0.84023   0.00000  Uiso   1.00
C324   C     0.80649   0.39035   0.76440   0.00000  Uiso   1.00
C325   C     0.82272   0.41959   0.85140   0.00000  Uiso   1.00
C326   C     0.86395   0.44330   0.75930   0.00000  Uiso   1.00
C327   C     0.92906   0.48945   0.66786   0.00000  Uiso   1.00
C328   C     0.79106   0.32337   0.80091   0.00000  Uiso   1.00
C329   C     0.79430   0.29630   0.91862   0.00000  Uiso   1.00
C330   C     0.82253   0.26362   0.85724   0.00000  Uiso   1.00
C331   C     0.86366   0.20578   0.82248   0.00000  Uiso   1.00
C332   C     0.71947   0.36293   0.73728   0.00000  Uiso   1.00
C333   C     0.66252   0.36910   0.80148   0.00000  Uiso   1.00
C334   C     0.63047   0.36971   0.68654   0.00000  Uiso   1.00
C335   C     0.56044   0.37329   0.55298   0.00000  Uiso   1.00
C336   C     0.80655   0.35125   0.52194   0.00000  Uiso   1.00
C337   C     0.83058   0.38497   0.59152   0.00000  Uiso   1.00
C338   C     0.87179   0.40864   0.49925   0.00000  Uiso   1.00
C339   C     0.88808   0.43791   0.58611   0.00000  Uiso   1.00
C340   C     0.81514   0.31799   0.62803   0.00000  Uiso   1.00
C341   C     0.84337   0.28535   0.56647   0.00000  Uiso   1.00
C342   C     0.84667   0.25823   0.68405   0.00000  Uiso   1.00
C343   C     0.74355   0.35755   0.56439   0.00000  Uiso   1.00
C344   C     0.71159   0.35815   0.44933   0.00000  Uiso   1.00
C345   C     0.65460   0.36432   0.51335   0.00000  Uiso   1.00
H346   H     0.74345   0.36533   0.97483   0.00000  Uiso   1.00
H347   H     0.80407   0.42374   0.98520   0.00000  Uiso   1.00
H348   H     0.77566   0.30047   0.05239   0.00000  Uiso   1.00
H349   H     0.64389   0.37326   0.93527   0.00000  Uiso   1.00
H350   H     0.88192   0.48612   0.92046   0.00000  Uiso   1.00
H351   H     0.82198   0.22618   0.06214   0.00000  Uiso   1.00
H352   H     0.54413   0.37968   0.81518   0.00000  Uiso   1.00
H353   H     0.82531   0.34706   0.38734   0.00000  Uiso   1.00
H354   H     0.89042   0.40447   0.36547   0.00000  Uiso   1.00
H355   H     0.86201   0.28119   0.43267   0.00000  Uiso   1.00
H356   H     0.73024   0.35399   0.31556   0.00000  Uiso   1.00
H357   H     0.95200   0.47048   0.41747   0.00000  Uiso   1.00
H358   H     0.89207   0.21054   0.55916   0.00000  Uiso   1.00
H359   H     0.61422   0.36404   0.31219   0.00000  Uiso   1.00
O360   O     0.95833   0.51639   0.66519   0.00000  Uiso   1.00
O361   O     0.87969   0.17536   0.85107   0.00000  Uiso   1.00
O362   O     0.51516   0.37675   0.52707   0.00000  Uiso   1.00
N363   N     0.88947   0.47457   0.80508   0.00000  Uiso   1.00
N364   N     0.83344   0.23154   0.93755   0.00000  Uiso   1.00
N365   N     0.57367   0.37504   0.70666   0.00000  Uiso   1.00
N366   N     0.92718   0.46615   0.53442   0.00000  Uiso   1.00
N367   N     0.87115   0.22313   0.66689   0.00000  Uiso   1.00
N368   N     0.61138   0.36662   0.43601   0.00000  Uiso   1.00
