data_job_03184
_audit_creation_date              2018-12-19
_audit_creation_method            'Materials Studio'
_symmetry_space_group_name_H-M    'P1'
_symmetry_Int_Tables_number       1
_symmetry_cell_setting            triclinic
loop_
_symmetry_equiv_pos_as_xyz
  x,y,z
_cell_length_a                    32.6426
_cell_length_b                    35.6587
_cell_length_c                    9.5938
_cell_angle_alpha                 90.0000
_cell_angle_beta                  78.0528
_cell_angle_gamma                 90.0000
loop_
_atom_site_label
_atom_site_type_symbol
_atom_site_fract_x
_atom_site_fract_y
_atom_site_fract_z
_atom_site_U_iso_or_equiv
_atom_site_adp_type
_atom_site_occupancy
C1     C     0.92079   0.18869   0.72664   0.00000  Uiso   1.00
C2     C     0.87460   0.18729   0.71914   0.00000  Uiso   1.00
C3     C     0.85456   0.21165   0.64228   0.00000  Uiso   1.00
C4     C     0.81215   0.20568   0.64922   0.00000  Uiso   1.00
C5     C     0.74371   0.20797   0.62531   0.00000  Uiso   1.00
C6     C     0.92191   0.19164   0.88438   0.00000  Uiso   1.00
C7     C     0.94165   0.21965   0.94644   0.00000  Uiso   1.00
C8     C     0.93907   0.21735   0.09247   0.00000  Uiso   1.00
C9     C     0.94411   0.22637   0.32509   0.00000  Uiso   1.00
C10    C     0.93867   0.15021   0.67852   0.00000  Uiso   1.00
C11    C     0.97250   0.14339   0.56751   0.00000  Uiso   1.00
C12    C     0.98404   0.10620   0.54024   0.00000  Uiso   1.00
C13    C     0.01508   0.05090   0.45323   0.00000  Uiso   1.00
C14    C     0.88112   0.13479   0.87562   0.00000  Uiso   1.00
C15    C     0.85306   0.15801   0.80007   0.00000  Uiso   1.00
C16    C     0.81067   0.15201   0.80711   0.00000  Uiso   1.00
C17    C     0.79057   0.17635   0.73027   0.00000  Uiso   1.00
C18    C     0.90037   0.16236   0.96530   0.00000  Uiso   1.00
C19    C     0.89776   0.16001   0.11127   0.00000  Uiso   1.00
C20    C     0.91749   0.18802   0.17354   0.00000  Uiso   1.00
C21    C     0.91712   0.12093   0.75943   0.00000  Uiso   1.00
C22    C     0.92861   0.08375   0.73234   0.00000  Uiso   1.00
C23    C     0.96245   0.07687   0.62131   0.00000  Uiso   1.00
H24    H     0.93756   0.21149   0.66365   0.00000  Uiso   1.00
H25    H     0.87124   0.23430   0.57969   0.00000  Uiso   1.00
H26    H     0.95832   0.24230   0.88379   0.00000  Uiso   1.00
H27    H     0.98916   0.16605   0.50492   0.00000  Uiso   1.00
H28    H     0.78821   0.24669   0.52232   0.00000  Uiso   1.00
H29    H     0.97183   0.26356   0.16354   0.00000  Uiso   1.00
H30    H     0.03687   0.10276   0.36461   0.00000  Uiso   1.00
H31    H     0.86435   0.11199   0.93863   0.00000  Uiso   1.00
H32    H     0.79401   0.12935   0.86974   0.00000  Uiso   1.00
H33    H     0.88109   0.13735   0.17385   0.00000  Uiso   1.00
H34    H     0.91193   0.06110   0.79498   0.00000  Uiso   1.00
H35    H     0.72552   0.16151   0.75774   0.00000  Uiso   1.00
H36    H     0.90915   0.17838   0.39896   0.00000  Uiso   1.00
H37    H     0.97419   0.01758   0.60004   0.00000  Uiso   1.00
O38    O     0.71191   0.21732   0.58979   0.00000  Uiso   1.00
O39    O     0.95283   0.23944   0.43104   0.00000  Uiso   1.00
O40    O     0.03816   0.02848   0.38286   0.00000  Uiso   1.00
N41    N     0.78311   0.22426   0.58716   0.00000  Uiso   1.00
N42    N     0.95478   0.24003   0.18666   0.00000  Uiso   1.00
N43    N     0.01560   0.08970   0.43976   0.00000  Uiso   1.00
N44    N     0.74938   0.17842   0.71383   0.00000  Uiso   1.00
N45    N     0.92105   0.19419   0.31334   0.00000  Uiso   1.00
N46    N     0.98187   0.04386   0.56644   0.00000  Uiso   1.00
C47    C     0.42079   0.68869   0.72664   0.00000  Uiso   1.00
C48    C     0.37460   0.68729   0.71914   0.00000  Uiso   1.00
C49    C     0.35456   0.71165   0.64228   0.00000  Uiso   1.00
C50    C     0.31215   0.70568   0.64922   0.00000  Uiso   1.00
C51    C     0.24371   0.70797   0.62531   0.00000  Uiso   1.00
C52    C     0.42191   0.69164   0.88438   0.00000  Uiso   1.00
C53    C     0.44165   0.71965   0.94644   0.00000  Uiso   1.00
C54    C     0.43907   0.71735   0.09247   0.00000  Uiso   1.00
C55    C     0.44411   0.72637   0.32509   0.00000  Uiso   1.00
C56    C     0.43867   0.65021   0.67852   0.00000  Uiso   1.00
C57    C     0.47250   0.64339   0.56751   0.00000  Uiso   1.00
C58    C     0.48404   0.60620   0.54024   0.00000  Uiso   1.00
C59    C     0.51508   0.55090   0.45323   0.00000  Uiso   1.00
C60    C     0.38112   0.63479   0.87562   0.00000  Uiso   1.00
C61    C     0.35306   0.65801   0.80007   0.00000  Uiso   1.00
C62    C     0.31067   0.65201   0.80711   0.00000  Uiso   1.00
C63    C     0.29057   0.67635   0.73027   0.00000  Uiso   1.00
C64    C     0.40037   0.66236   0.96530   0.00000  Uiso   1.00
C65    C     0.39776   0.66001   0.11127   0.00000  Uiso   1.00
C66    C     0.41749   0.68802   0.17354   0.00000  Uiso   1.00
C67    C     0.41712   0.62093   0.75943   0.00000  Uiso   1.00
C68    C     0.42861   0.58375   0.73234   0.00000  Uiso   1.00
C69    C     0.46245   0.57687   0.62131   0.00000  Uiso   1.00
H70    H     0.43756   0.71149   0.66365   0.00000  Uiso   1.00
H71    H     0.37124   0.73430   0.57969   0.00000  Uiso   1.00
H72    H     0.45832   0.74230   0.88379   0.00000  Uiso   1.00
H73    H     0.48916   0.66605   0.50492   0.00000  Uiso   1.00
H74    H     0.28821   0.74669   0.52232   0.00000  Uiso   1.00
H75    H     0.47183   0.76356   0.16354   0.00000  Uiso   1.00
H76    H     0.53687   0.60276   0.36461   0.00000  Uiso   1.00
H77    H     0.36435   0.61199   0.93863   0.00000  Uiso   1.00
H78    H     0.29401   0.62935   0.86974   0.00000  Uiso   1.00
H79    H     0.38109   0.63735   0.17385   0.00000  Uiso   1.00
H80    H     0.41193   0.56110   0.79498   0.00000  Uiso   1.00
H81    H     0.22552   0.66151   0.75774   0.00000  Uiso   1.00
H82    H     0.40915   0.67838   0.39896   0.00000  Uiso   1.00
H83    H     0.47419   0.51758   0.60004   0.00000  Uiso   1.00
O84    O     0.21191   0.71732   0.58979   0.00000  Uiso   1.00
O85    O     0.45283   0.73944   0.43104   0.00000  Uiso   1.00
O86    O     0.53816   0.52848   0.38286   0.00000  Uiso   1.00
N87    N     0.28311   0.72426   0.58716   0.00000  Uiso   1.00
N88    N     0.45478   0.74003   0.18666   0.00000  Uiso   1.00
N89    N     0.51560   0.58970   0.43976   0.00000  Uiso   1.00
N90    N     0.24938   0.67842   0.71383   0.00000  Uiso   1.00
N91    N     0.42105   0.69419   0.31334   0.00000  Uiso   1.00
N92    N     0.48187   0.54386   0.56644   0.00000  Uiso   1.00
C93    C     0.07921   0.18869   0.77336   0.00000  Uiso   1.00
C94    C     0.12540   0.18729   0.78086   0.00000  Uiso   1.00
C95    C     0.14544   0.21165   0.85772   0.00000  Uiso   1.00
C96    C     0.18785   0.20568   0.85078   0.00000  Uiso   1.00
C97    C     0.25629   0.20797   0.87469   0.00000  Uiso   1.00
C98    C     0.07809   0.19164   0.61562   0.00000  Uiso   1.00
C99    C     0.05835   0.21965   0.55356   0.00000  Uiso   1.00
C100   C     0.06093   0.21735   0.40753   0.00000  Uiso   1.00
C101   C     0.05589   0.22637   0.17491   0.00000  Uiso   1.00
C102   C     0.06133   0.15021   0.82148   0.00000  Uiso   1.00
C103   C     0.02750   0.14339   0.93249   0.00000  Uiso   1.00
C104   C     0.01596   0.10620   0.95976   0.00000  Uiso   1.00
C105   C     0.98492   0.05090   0.04677   0.00000  Uiso   1.00
C106   C     0.11888   0.13479   0.62438   0.00000  Uiso   1.00
C107   C     0.14694   0.15801   0.69993   0.00000  Uiso   1.00
C108   C     0.18933   0.15201   0.69289   0.00000  Uiso   1.00
C109   C     0.20943   0.17635   0.76973   0.00000  Uiso   1.00
C110   C     0.09963   0.16236   0.53470   0.00000  Uiso   1.00
C111   C     0.10224   0.16001   0.38873   0.00000  Uiso   1.00
C112   C     0.08251   0.18802   0.32646   0.00000  Uiso   1.00
C113   C     0.08288   0.12093   0.74057   0.00000  Uiso   1.00
C114   C     0.07139   0.08375   0.76766   0.00000  Uiso   1.00
C115   C     0.03755   0.07687   0.87869   0.00000  Uiso   1.00
H116   H     0.06244   0.21149   0.83635   0.00000  Uiso   1.00
H117   H     0.12876   0.23430   0.92031   0.00000  Uiso   1.00
H118   H     0.04168   0.24230   0.61621   0.00000  Uiso   1.00
H119   H     0.01084   0.16605   0.99508   0.00000  Uiso   1.00
H120   H     0.21179   0.24669   0.97768   0.00000  Uiso   1.00
H121   H     0.02817   0.26356   0.33646   0.00000  Uiso   1.00
H122   H     0.96313   0.10276   0.13539   0.00000  Uiso   1.00
H123   H     0.13565   0.11199   0.56137   0.00000  Uiso   1.00
H124   H     0.20599   0.12935   0.63026   0.00000  Uiso   1.00
H125   H     0.11891   0.13735   0.32615   0.00000  Uiso   1.00
H126   H     0.08807   0.06110   0.70502   0.00000  Uiso   1.00
H127   H     0.27448   0.16151   0.74226   0.00000  Uiso   1.00
H128   H     0.09085   0.17838   0.10104   0.00000  Uiso   1.00
H129   H     0.02581   0.01758   0.89996   0.00000  Uiso   1.00
O130   O     0.28809   0.21732   0.91021   0.00000  Uiso   1.00
O131   O     0.04717   0.23944   0.06896   0.00000  Uiso   1.00
O132   O     0.96184   0.02848   0.11714   0.00000  Uiso   1.00
N133   N     0.21689   0.22426   0.91284   0.00000  Uiso   1.00
N134   N     0.04522   0.24003   0.31334   0.00000  Uiso   1.00
N135   N     0.98440   0.08970   0.06024   0.00000  Uiso   1.00
N136   N     0.25062   0.17842   0.78617   0.00000  Uiso   1.00
N137   N     0.07895   0.19419   0.18666   0.00000  Uiso   1.00
N138   N     0.01813   0.04386   0.93356   0.00000  Uiso   1.00
C139   C     0.57921   0.68869   0.77336   0.00000  Uiso   1.00
C140   C     0.62540   0.68729   0.78086   0.00000  Uiso   1.00
C141   C     0.64544   0.71165   0.85772   0.00000  Uiso   1.00
C142   C     0.68785   0.70568   0.85078   0.00000  Uiso   1.00
C143   C     0.75629   0.70797   0.87469   0.00000  Uiso   1.00
C144   C     0.57809   0.69164   0.61562   0.00000  Uiso   1.00
C145   C     0.55835   0.71965   0.55356   0.00000  Uiso   1.00
C146   C     0.56093   0.71735   0.40753   0.00000  Uiso   1.00
C147   C     0.55589   0.72637   0.17491   0.00000  Uiso   1.00
C148   C     0.56133   0.65021   0.82148   0.00000  Uiso   1.00
C149   C     0.52750   0.64339   0.93249   0.00000  Uiso   1.00
C150   C     0.51596   0.60620   0.95976   0.00000  Uiso   1.00
C151   C     0.48492   0.55090   0.04677   0.00000  Uiso   1.00
C152   C     0.61888   0.63479   0.62438   0.00000  Uiso   1.00
C153   C     0.64694   0.65801   0.69993   0.00000  Uiso   1.00
C154   C     0.68933   0.65201   0.69289   0.00000  Uiso   1.00
C155   C     0.70943   0.67635   0.76973   0.00000  Uiso   1.00
C156   C     0.59963   0.66236   0.53470   0.00000  Uiso   1.00
C157   C     0.60224   0.66001   0.38873   0.00000  Uiso   1.00
C158   C     0.58251   0.68802   0.32646   0.00000  Uiso   1.00
C159   C     0.58288   0.62093   0.74057   0.00000  Uiso   1.00
C160   C     0.57139   0.58375   0.76766   0.00000  Uiso   1.00
C161   C     0.53755   0.57687   0.87869   0.00000  Uiso   1.00
H162   H     0.56244   0.71149   0.83635   0.00000  Uiso   1.00
H163   H     0.62876   0.73430   0.92031   0.00000  Uiso   1.00
H164   H     0.54168   0.74230   0.61621   0.00000  Uiso   1.00
H165   H     0.51084   0.66605   0.99508   0.00000  Uiso   1.00
H166   H     0.71179   0.74669   0.97768   0.00000  Uiso   1.00
H167   H     0.52817   0.76356   0.33646   0.00000  Uiso   1.00
H168   H     0.46313   0.60276   0.13539   0.00000  Uiso   1.00
H169   H     0.63565   0.61199   0.56137   0.00000  Uiso   1.00
H170   H     0.70599   0.62935   0.63026   0.00000  Uiso   1.00
H171   H     0.61891   0.63735   0.32615   0.00000  Uiso   1.00
H172   H     0.58807   0.56110   0.70502   0.00000  Uiso   1.00
H173   H     0.77448   0.66151   0.74226   0.00000  Uiso   1.00
H174   H     0.59085   0.67838   0.10104   0.00000  Uiso   1.00
H175   H     0.52581   0.51758   0.89996   0.00000  Uiso   1.00
O176   O     0.78809   0.71732   0.91021   0.00000  Uiso   1.00
O177   O     0.54717   0.73944   0.06896   0.00000  Uiso   1.00
O178   O     0.46184   0.52848   0.11714   0.00000  Uiso   1.00
N179   N     0.71689   0.72426   0.91284   0.00000  Uiso   1.00
N180   N     0.54522   0.74003   0.31334   0.00000  Uiso   1.00
N181   N     0.48440   0.58970   0.06024   0.00000  Uiso   1.00
N182   N     0.75062   0.67842   0.78617   0.00000  Uiso   1.00
N183   N     0.57895   0.69419   0.18666   0.00000  Uiso   1.00
N184   N     0.51813   0.54386   0.93356   0.00000  Uiso   1.00
C185   C     0.07921   0.81131   0.27336   0.00000  Uiso   1.00
C186   C     0.12540   0.81271   0.28086   0.00000  Uiso   1.00
C187   C     0.14544   0.78835   0.35772   0.00000  Uiso   1.00
C188   C     0.18785   0.79432   0.35078   0.00000  Uiso   1.00
C189   C     0.25629   0.79203   0.37469   0.00000  Uiso   1.00
C190   C     0.07809   0.80836   0.11562   0.00000  Uiso   1.00
C191   C     0.05835   0.78035   0.05356   0.00000  Uiso   1.00
C192   C     0.06093   0.78265   0.90753   0.00000  Uiso   1.00
C193   C     0.05589   0.77363   0.67491   0.00000  Uiso   1.00
C194   C     0.06133   0.84979   0.32148   0.00000  Uiso   1.00
C195   C     0.02750   0.85661   0.43249   0.00000  Uiso   1.00
C196   C     0.01596   0.89380   0.45976   0.00000  Uiso   1.00
C197   C     0.98492   0.94910   0.54677   0.00000  Uiso   1.00
C198   C     0.11888   0.86521   0.12438   0.00000  Uiso   1.00
C199   C     0.14694   0.84199   0.19993   0.00000  Uiso   1.00
C200   C     0.18933   0.84799   0.19289   0.00000  Uiso   1.00
C201   C     0.20943   0.82365   0.26973   0.00000  Uiso   1.00
C202   C     0.09963   0.83764   0.03470   0.00000  Uiso   1.00
C203   C     0.10224   0.83999   0.88873   0.00000  Uiso   1.00
C204   C     0.08251   0.81198   0.82646   0.00000  Uiso   1.00
C205   C     0.08288   0.87907   0.24057   0.00000  Uiso   1.00
C206   C     0.07139   0.91625   0.26766   0.00000  Uiso   1.00
C207   C     0.03755   0.92313   0.37869   0.00000  Uiso   1.00
H208   H     0.06244   0.78851   0.33635   0.00000  Uiso   1.00
H209   H     0.12876   0.76570   0.42031   0.00000  Uiso   1.00
H210   H     0.04168   0.75770   0.11621   0.00000  Uiso   1.00
H211   H     0.01084   0.83395   0.49508   0.00000  Uiso   1.00
H212   H     0.21179   0.75331   0.47768   0.00000  Uiso   1.00
H213   H     0.02817   0.73644   0.83646   0.00000  Uiso   1.00
H214   H     0.96313   0.89724   0.63539   0.00000  Uiso   1.00
H215   H     0.13565   0.88801   0.06137   0.00000  Uiso   1.00
H216   H     0.20599   0.87065   0.13026   0.00000  Uiso   1.00
H217   H     0.11891   0.86265   0.82615   0.00000  Uiso   1.00
H218   H     0.08807   0.93890   0.20502   0.00000  Uiso   1.00
H219   H     0.27448   0.83849   0.24226   0.00000  Uiso   1.00
H220   H     0.09085   0.82162   0.60104   0.00000  Uiso   1.00
H221   H     0.02581   0.98242   0.39996   0.00000  Uiso   1.00
O222   O     0.28809   0.78268   0.41021   0.00000  Uiso   1.00
O223   O     0.04717   0.76056   0.56896   0.00000  Uiso   1.00
O224   O     0.96184   0.97152   0.61714   0.00000  Uiso   1.00
N225   N     0.21689   0.77574   0.41284   0.00000  Uiso   1.00
N226   N     0.04522   0.75997   0.81334   0.00000  Uiso   1.00
N227   N     0.98440   0.91030   0.56024   0.00000  Uiso   1.00
N228   N     0.25062   0.82158   0.28617   0.00000  Uiso   1.00
N229   N     0.07895   0.80581   0.68666   0.00000  Uiso   1.00
N230   N     0.01813   0.95614   0.43356   0.00000  Uiso   1.00
C231   C     0.57921   0.31131   0.27336   0.00000  Uiso   1.00
C232   C     0.62540   0.31271   0.28086   0.00000  Uiso   1.00
C233   C     0.64544   0.28835   0.35772   0.00000  Uiso   1.00
C234   C     0.68785   0.29432   0.35078   0.00000  Uiso   1.00
C235   C     0.75629   0.29203   0.37469   0.00000  Uiso   1.00
C236   C     0.57809   0.30836   0.11562   0.00000  Uiso   1.00
C237   C     0.55835   0.28035   0.05356   0.00000  Uiso   1.00
C238   C     0.56093   0.28265   0.90753   0.00000  Uiso   1.00
C239   C     0.55589   0.27363   0.67491   0.00000  Uiso   1.00
C240   C     0.56133   0.34979   0.32148   0.00000  Uiso   1.00
C241   C     0.52750   0.35661   0.43249   0.00000  Uiso   1.00
C242   C     0.51596   0.39380   0.45976   0.00000  Uiso   1.00
C243   C     0.48492   0.44910   0.54677   0.00000  Uiso   1.00
C244   C     0.61888   0.36521   0.12438   0.00000  Uiso   1.00
C245   C     0.64694   0.34199   0.19993   0.00000  Uiso   1.00
C246   C     0.68933   0.34799   0.19289   0.00000  Uiso   1.00
C247   C     0.70943   0.32365   0.26973   0.00000  Uiso   1.00
C248   C     0.59963   0.33764   0.03470   0.00000  Uiso   1.00
C249   C     0.60224   0.33999   0.88873   0.00000  Uiso   1.00
C250   C     0.58251   0.31198   0.82646   0.00000  Uiso   1.00
C251   C     0.58288   0.37907   0.24057   0.00000  Uiso   1.00
C252   C     0.57139   0.41625   0.26766   0.00000  Uiso   1.00
C253   C     0.53755   0.42313   0.37869   0.00000  Uiso   1.00
H254   H     0.56244   0.28851   0.33635   0.00000  Uiso   1.00
H255   H     0.62876   0.26570   0.42031   0.00000  Uiso   1.00
H256   H     0.54168   0.25770   0.11621   0.00000  Uiso   1.00
H257   H     0.51084   0.33395   0.49508   0.00000  Uiso   1.00
H258   H     0.71179   0.25331   0.47768   0.00000  Uiso   1.00
H259   H     0.52817   0.23644   0.83646   0.00000  Uiso   1.00
H260   H     0.46313   0.39724   0.63539   0.00000  Uiso   1.00
H261   H     0.63565   0.38801   0.06137   0.00000  Uiso   1.00
H262   H     0.70599   0.37065   0.13026   0.00000  Uiso   1.00
H263   H     0.61891   0.36265   0.82615   0.00000  Uiso   1.00
H264   H     0.58807   0.43890   0.20502   0.00000  Uiso   1.00
H265   H     0.77448   0.33849   0.24226   0.00000  Uiso   1.00
H266   H     0.59085   0.32162   0.60104   0.00000  Uiso   1.00
H267   H     0.52581   0.48242   0.39996   0.00000  Uiso   1.00
O268   O     0.78809   0.28268   0.41021   0.00000  Uiso   1.00
O269   O     0.54717   0.26056   0.56896   0.00000  Uiso   1.00
O270   O     0.46184   0.47152   0.61714   0.00000  Uiso   1.00
N271   N     0.71689   0.27574   0.41284   0.00000  Uiso   1.00
N272   N     0.54522   0.25997   0.81334   0.00000  Uiso   1.00
N273   N     0.48440   0.41030   0.56024   0.00000  Uiso   1.00
N274   N     0.75062   0.32158   0.28617   0.00000  Uiso   1.00
N275   N     0.57895   0.30581   0.68666   0.00000  Uiso   1.00
N276   N     0.51813   0.45614   0.43356   0.00000  Uiso   1.00
C277   C     0.92079   0.81131   0.22664   0.00000  Uiso   1.00
C278   C     0.87460   0.81271   0.21914   0.00000  Uiso   1.00
C279   C     0.85456   0.78835   0.14228   0.00000  Uiso   1.00
C280   C     0.81215   0.79432   0.14922   0.00000  Uiso   1.00
C281   C     0.74371   0.79203   0.12531   0.00000  Uiso   1.00
C282   C     0.92191   0.80836   0.38438   0.00000  Uiso   1.00
C283   C     0.94165   0.78035   0.44644   0.00000  Uiso   1.00
C284   C     0.93907   0.78265   0.59247   0.00000  Uiso   1.00
C285   C     0.94411   0.77363   0.82509   0.00000  Uiso   1.00
C286   C     0.93867   0.84979   0.17852   0.00000  Uiso   1.00
C287   C     0.97250   0.85661   0.06751   0.00000  Uiso   1.00
C288   C     0.98404   0.89380   0.04024   0.00000  Uiso   1.00
C289   C     0.01508   0.94910   0.95323   0.00000  Uiso   1.00
C290   C     0.88112   0.86521   0.37562   0.00000  Uiso   1.00
C291   C     0.85306   0.84199   0.30007   0.00000  Uiso   1.00
C292   C     0.81067   0.84799   0.30711   0.00000  Uiso   1.00
C293   C     0.79057   0.82365   0.23027   0.00000  Uiso   1.00
C294   C     0.90037   0.83764   0.46530   0.00000  Uiso   1.00
C295   C     0.89776   0.83999   0.61127   0.00000  Uiso   1.00
C296   C     0.91749   0.81198   0.67354   0.00000  Uiso   1.00
C297   C     0.91712   0.87907   0.25943   0.00000  Uiso   1.00
C298   C     0.92861   0.91625   0.23234   0.00000  Uiso   1.00
C299   C     0.96245   0.92313   0.12131   0.00000  Uiso   1.00
H300   H     0.93756   0.78851   0.16365   0.00000  Uiso   1.00
H301   H     0.87124   0.76570   0.07969   0.00000  Uiso   1.00
H302   H     0.95832   0.75770   0.38379   0.00000  Uiso   1.00
H303   H     0.98916   0.83395   0.00492   0.00000  Uiso   1.00
H304   H     0.78821   0.75331   0.02232   0.00000  Uiso   1.00
H305   H     0.97183   0.73644   0.66354   0.00000  Uiso   1.00
H306   H     0.03687   0.89724   0.86461   0.00000  Uiso   1.00
H307   H     0.86435   0.88801   0.43863   0.00000  Uiso   1.00
H308   H     0.79401   0.87065   0.36974   0.00000  Uiso   1.00
H309   H     0.88109   0.86265   0.67385   0.00000  Uiso   1.00
H310   H     0.91193   0.93890   0.29498   0.00000  Uiso   1.00
H311   H     0.72552   0.83849   0.25774   0.00000  Uiso   1.00
H312   H     0.90915   0.82162   0.89896   0.00000  Uiso   1.00
H313   H     0.97419   0.98242   0.10004   0.00000  Uiso   1.00
O314   O     0.71191   0.78268   0.08979   0.00000  Uiso   1.00
O315   O     0.95283   0.76056   0.93104   0.00000  Uiso   1.00
O316   O     0.03816   0.97152   0.88286   0.00000  Uiso   1.00
N317   N     0.78311   0.77574   0.08716   0.00000  Uiso   1.00
N318   N     0.95478   0.75997   0.68666   0.00000  Uiso   1.00
N319   N     0.01560   0.91030   0.93976   0.00000  Uiso   1.00
N320   N     0.74938   0.82158   0.21383   0.00000  Uiso   1.00
N321   N     0.92105   0.80581   0.81334   0.00000  Uiso   1.00
N322   N     0.98187   0.95614   0.06644   0.00000  Uiso   1.00
C323   C     0.42079   0.31131   0.22664   0.00000  Uiso   1.00
C324   C     0.37460   0.31271   0.21914   0.00000  Uiso   1.00
C325   C     0.35456   0.28835   0.14228   0.00000  Uiso   1.00
C326   C     0.31215   0.29432   0.14922   0.00000  Uiso   1.00
C327   C     0.24371   0.29203   0.12531   0.00000  Uiso   1.00
C328   C     0.42191   0.30836   0.38438   0.00000  Uiso   1.00
C329   C     0.44165   0.28035   0.44644   0.00000  Uiso   1.00
C330   C     0.43907   0.28265   0.59247   0.00000  Uiso   1.00
C331   C     0.44411   0.27363   0.82509   0.00000  Uiso   1.00
C332   C     0.43867   0.34979   0.17852   0.00000  Uiso   1.00
C333   C     0.47250   0.35661   0.06751   0.00000  Uiso   1.00
C334   C     0.48404   0.39380   0.04024   0.00000  Uiso   1.00
C335   C     0.51508   0.44910   0.95323   0.00000  Uiso   1.00
C336   C     0.38112   0.36521   0.37562   0.00000  Uiso   1.00
C337   C     0.35306   0.34199   0.30007   0.00000  Uiso   1.00
C338   C     0.31067   0.34799   0.30711   0.00000  Uiso   1.00
C339   C     0.29057   0.32365   0.23027   0.00000  Uiso   1.00
C340   C     0.40037   0.33764   0.46530   0.00000  Uiso   1.00
C341   C     0.39776   0.33999   0.61127   0.00000  Uiso   1.00
C342   C     0.41749   0.31198   0.67354   0.00000  Uiso   1.00
C343   C     0.41712   0.37907   0.25943   0.00000  Uiso   1.00
C344   C     0.42861   0.41625   0.23234   0.00000  Uiso   1.00
C345   C     0.46245   0.42313   0.12131   0.00000  Uiso   1.00
H346   H     0.43756   0.28851   0.16365   0.00000  Uiso   1.00
H347   H     0.37124   0.26570   0.07969   0.00000  Uiso   1.00
H348   H     0.45832   0.25770   0.38379   0.00000  Uiso   1.00
H349   H     0.48916   0.33395   0.00492   0.00000  Uiso   1.00
H350   H     0.28821   0.25331   0.02232   0.00000  Uiso   1.00
H351   H     0.47183   0.23644   0.66354   0.00000  Uiso   1.00
H352   H     0.53687   0.39724   0.86461   0.00000  Uiso   1.00
H353   H     0.36435   0.38801   0.43863   0.00000  Uiso   1.00
H354   H     0.29401   0.37065   0.36974   0.00000  Uiso   1.00
H355   H     0.38109   0.36265   0.67385   0.00000  Uiso   1.00
H356   H     0.41193   0.43890   0.29498   0.00000  Uiso   1.00
H357   H     0.22552   0.33849   0.25774   0.00000  Uiso   1.00
H358   H     0.40915   0.32162   0.89896   0.00000  Uiso   1.00
H359   H     0.47419   0.48242   0.10004   0.00000  Uiso   1.00
O360   O     0.21191   0.28268   0.08979   0.00000  Uiso   1.00
O361   O     0.45283   0.26056   0.93104   0.00000  Uiso   1.00
O362   O     0.53816   0.47152   0.88286   0.00000  Uiso   1.00
N363   N     0.28311   0.27574   0.08716   0.00000  Uiso   1.00
N364   N     0.45478   0.25997   0.68666   0.00000  Uiso   1.00
N365   N     0.51560   0.41030   0.93976   0.00000  Uiso   1.00
N366   N     0.24938   0.32158   0.21383   0.00000  Uiso   1.00
N367   N     0.42105   0.30581   0.81334   0.00000  Uiso   1.00
N368   N     0.48187   0.45614   0.06644   0.00000  Uiso   1.00
