data_job_02062
_audit_creation_date              2018-12-19
_audit_creation_method            'Materials Studio'
_symmetry_space_group_name_H-M    'P1'
_symmetry_Int_Tables_number       1
_symmetry_cell_setting            triclinic
loop_
_symmetry_equiv_pos_as_xyz
  x,y,z
_cell_length_a                    13.1410
_cell_length_b                    23.4884
_cell_length_c                    10.3753
_cell_angle_alpha                 90.0000
_cell_angle_beta                  84.3063
_cell_angle_gamma                 90.0000
loop_
_atom_site_label
_atom_site_type_symbol
_atom_site_fract_x
_atom_site_fract_y
_atom_site_fract_z
_atom_site_U_iso_or_equiv
_atom_site_adp_type
_atom_site_occupancy
C1     C     0.66893   0.60242   0.14886   0.00000  Uiso   1.00
C2     C     0.74975   0.64848   0.15745   0.00000  Uiso   1.00
C3     C     0.73712   0.69847   0.22854   0.00000  Uiso   1.00
C4     C     0.82026   0.73515   0.22378   0.00000  Uiso   1.00
C5     C     0.93170   0.80864   0.24821   0.00000  Uiso   1.00
C6     C     0.65689   0.59523   0.00509   0.00000  Uiso   1.00
C7     C     0.56617   0.60044   0.94808   0.00000  Uiso   1.00
C8     C     0.57114   0.59228   0.81506   0.00000  Uiso   1.00
C9     C     0.53838   0.58306   0.60296   0.00000  Uiso   1.00
C10    C     0.71673   0.54727   0.19162   0.00000  Uiso   1.00
C11    C     0.67631   0.51213   0.29142   0.00000  Uiso   1.00
C12    C     0.73166   0.46357   0.31542   0.00000  Uiso   1.00
C13    C     0.79182   0.37988   0.39293   0.00000  Uiso   1.00
C14    C     0.83907   0.57865   0.01401   0.00000  Uiso   1.00
C15    C     0.84217   0.63557   0.08421   0.00000  Uiso   1.00
C16    C     0.92536   0.67218   0.07934   0.00000  Uiso   1.00
C17    C     0.91285   0.72221   0.15041   0.00000  Uiso   1.00
C18    C     0.74930   0.58232   0.93185   0.00000  Uiso   1.00
C19    C     0.75441   0.57415   0.79889   0.00000  Uiso   1.00
C20    C     0.66373   0.57935   0.74168   0.00000  Uiso   1.00
C21    C     0.80915   0.53435   0.11838   0.00000  Uiso   1.00
C22    C     0.86457   0.48584   0.14223   0.00000  Uiso   1.00
C23    C     0.82425   0.45064   0.24204   0.00000  Uiso   1.00
H24    H     0.59697   0.61247   0.20588   0.00000  Uiso   1.00
H25    H     0.66558   0.70845   0.28520   0.00000  Uiso   1.00
H26    H     0.49466   0.61043   0.00479   0.00000  Uiso   1.00
H27    H     0.60480   0.52214   0.34807   0.00000  Uiso   1.00
H28    H     0.78239   0.80918   0.34080   0.00000  Uiso   1.00
H29    H     0.42198   0.60247   0.74954   0.00000  Uiso   1.00
H30    H     0.65422   0.41629   0.47343   0.00000  Uiso   1.00
H31    H     0.91103   0.56860   0.95699   0.00000  Uiso   1.00
H32    H     0.99687   0.66217   0.02265   0.00000  Uiso   1.00
H33    H     0.82594   0.56415   0.74224   0.00000  Uiso   1.00
H34    H     0.93608   0.47586   0.08553   0.00000  Uiso   1.00
H35    H     0.05127   0.77162   0.12770   0.00000  Uiso   1.00
H36    H     0.69086   0.56491   0.53645   0.00000  Uiso   1.00
H37    H     0.92311   0.37873   0.26034   0.00000  Uiso   1.00
O38    O     0.96762   0.85275   0.28190   0.00000  Uiso   1.00
O39    O     0.49478   0.58155   0.50621   0.00000  Uiso   1.00
O40    O     0.79948   0.33729   0.45593   0.00000  Uiso   1.00
N41    N     0.83390   0.78749   0.28166   0.00000  Uiso   1.00
N42    N     0.49694   0.59424   0.72886   0.00000  Uiso   1.00
N43    N     0.71405   0.42017   0.40562   0.00000  Uiso   1.00
N44    N     0.97858   0.76728   0.16699   0.00000  Uiso   1.00
N45    N     0.64163   0.57403   0.61420   0.00000  Uiso   1.00
N46    N     0.85874   0.39996   0.29095   0.00000  Uiso   1.00
C47    C     0.33107   0.10242   0.35114   0.00000  Uiso   1.00
C48    C     0.25025   0.14848   0.34255   0.00000  Uiso   1.00
C49    C     0.26288   0.19847   0.27146   0.00000  Uiso   1.00
C50    C     0.17974   0.23515   0.27622   0.00000  Uiso   1.00
C51    C     0.06830   0.30864   0.25179   0.00000  Uiso   1.00
C52    C     0.34311   0.09523   0.49491   0.00000  Uiso   1.00
C53    C     0.43383   0.10044   0.55192   0.00000  Uiso   1.00
C54    C     0.42886   0.09228   0.68494   0.00000  Uiso   1.00
C55    C     0.46162   0.08306   0.89704   0.00000  Uiso   1.00
C56    C     0.28327   0.04727   0.30838   0.00000  Uiso   1.00
C57    C     0.32369   0.01213   0.20858   0.00000  Uiso   1.00
C58    C     0.26834   0.96357   0.18458   0.00000  Uiso   1.00
C59    C     0.20818   0.87988   0.10707   0.00000  Uiso   1.00
C60    C     0.16093   0.07865   0.48599   0.00000  Uiso   1.00
C61    C     0.15783   0.13557   0.41579   0.00000  Uiso   1.00
C62    C     0.07464   0.17218   0.42066   0.00000  Uiso   1.00
C63    C     0.08715   0.22221   0.34959   0.00000  Uiso   1.00
C64    C     0.25070   0.08232   0.56815   0.00000  Uiso   1.00
C65    C     0.24559   0.07415   0.70111   0.00000  Uiso   1.00
C66    C     0.33627   0.07935   0.75832   0.00000  Uiso   1.00
C67    C     0.19085   0.03435   0.38162   0.00000  Uiso   1.00
C68    C     0.13543   0.98584   0.35777   0.00000  Uiso   1.00
C69    C     0.17575   0.95064   0.25796   0.00000  Uiso   1.00
H70    H     0.40303   0.11247   0.29412   0.00000  Uiso   1.00
H71    H     0.33442   0.20845   0.21480   0.00000  Uiso   1.00
H72    H     0.50534   0.11043   0.49521   0.00000  Uiso   1.00
H73    H     0.39520   0.02214   0.15193   0.00000  Uiso   1.00
H74    H     0.21761   0.30918   0.15920   0.00000  Uiso   1.00
H75    H     0.57802   0.10247   0.75046   0.00000  Uiso   1.00
H76    H     0.34578   0.91629   0.02657   0.00000  Uiso   1.00
H77    H     0.08897   0.06860   0.54301   0.00000  Uiso   1.00
H78    H     0.00313   0.16217   0.47735   0.00000  Uiso   1.00
H79    H     0.17406   0.06415   0.75776   0.00000  Uiso   1.00
H80    H     0.06392   0.97586   0.41447   0.00000  Uiso   1.00
H81    H     0.94873   0.27162   0.37230   0.00000  Uiso   1.00
H82    H     0.30914   0.06491   0.96355   0.00000  Uiso   1.00
H83    H     0.07689   0.87873   0.23966   0.00000  Uiso   1.00
O84    O     0.03238   0.35275   0.21810   0.00000  Uiso   1.00
O85    O     0.50522   0.08155   0.99379   0.00000  Uiso   1.00
O86    O     0.20052   0.83729   0.04407   0.00000  Uiso   1.00
N87    N     0.16610   0.28749   0.21834   0.00000  Uiso   1.00
N88    N     0.50306   0.09424   0.77114   0.00000  Uiso   1.00
N89    N     0.28595   0.92017   0.09438   0.00000  Uiso   1.00
N90    N     0.02142   0.26728   0.33301   0.00000  Uiso   1.00
N91    N     0.35837   0.07403   0.88580   0.00000  Uiso   1.00
N92    N     0.14126   0.89996   0.20905   0.00000  Uiso   1.00
C93    C     0.33107   0.39758   0.85114   0.00000  Uiso   1.00
C94    C     0.25025   0.35152   0.84255   0.00000  Uiso   1.00
C95    C     0.26288   0.30153   0.77146   0.00000  Uiso   1.00
C96    C     0.17974   0.26485   0.77622   0.00000  Uiso   1.00
C97    C     0.06830   0.19136   0.75179   0.00000  Uiso   1.00
C98    C     0.34311   0.40477   0.99491   0.00000  Uiso   1.00
C99    C     0.43383   0.39956   0.05192   0.00000  Uiso   1.00
C100   C     0.42886   0.40772   0.18494   0.00000  Uiso   1.00
C101   C     0.46162   0.41694   0.39704   0.00000  Uiso   1.00
C102   C     0.28327   0.45273   0.80838   0.00000  Uiso   1.00
C103   C     0.32369   0.48787   0.70858   0.00000  Uiso   1.00
C104   C     0.26834   0.53643   0.68458   0.00000  Uiso   1.00
C105   C     0.20818   0.62012   0.60707   0.00000  Uiso   1.00
C106   C     0.16093   0.42135   0.98599   0.00000  Uiso   1.00
C107   C     0.15783   0.36443   0.91579   0.00000  Uiso   1.00
C108   C     0.07464   0.32782   0.92066   0.00000  Uiso   1.00
C109   C     0.08715   0.27779   0.84959   0.00000  Uiso   1.00
C110   C     0.25070   0.41768   0.06815   0.00000  Uiso   1.00
C111   C     0.24559   0.42585   0.20111   0.00000  Uiso   1.00
C112   C     0.33627   0.42065   0.25832   0.00000  Uiso   1.00
C113   C     0.19085   0.46565   0.88162   0.00000  Uiso   1.00
C114   C     0.13543   0.51416   0.85777   0.00000  Uiso   1.00
C115   C     0.17575   0.54936   0.75796   0.00000  Uiso   1.00
H116   H     0.40303   0.38753   0.79412   0.00000  Uiso   1.00
H117   H     0.33442   0.29155   0.71480   0.00000  Uiso   1.00
H118   H     0.50534   0.38957   0.99521   0.00000  Uiso   1.00
H119   H     0.39520   0.47786   0.65193   0.00000  Uiso   1.00
H120   H     0.21761   0.19082   0.65920   0.00000  Uiso   1.00
H121   H     0.57802   0.39753   0.25046   0.00000  Uiso   1.00
H122   H     0.34578   0.58371   0.52657   0.00000  Uiso   1.00
H123   H     0.08897   0.43140   0.04301   0.00000  Uiso   1.00
H124   H     0.00313   0.33783   0.97735   0.00000  Uiso   1.00
H125   H     0.17406   0.43585   0.25776   0.00000  Uiso   1.00
H126   H     0.06392   0.52414   0.91447   0.00000  Uiso   1.00
H127   H     0.94873   0.22838   0.87230   0.00000  Uiso   1.00
H128   H     0.30914   0.43509   0.46355   0.00000  Uiso   1.00
H129   H     0.07689   0.62127   0.73966   0.00000  Uiso   1.00
O130   O     0.03238   0.14725   0.71810   0.00000  Uiso   1.00
O131   O     0.50522   0.41845   0.49379   0.00000  Uiso   1.00
O132   O     0.20052   0.66271   0.54407   0.00000  Uiso   1.00
N133   N     0.16610   0.21251   0.71834   0.00000  Uiso   1.00
N134   N     0.50306   0.40576   0.27114   0.00000  Uiso   1.00
N135   N     0.28595   0.57983   0.59438   0.00000  Uiso   1.00
N136   N     0.02142   0.23272   0.83301   0.00000  Uiso   1.00
N137   N     0.35837   0.42597   0.38580   0.00000  Uiso   1.00
N138   N     0.14126   0.60004   0.70905   0.00000  Uiso   1.00
C139   C     0.66893   0.89758   0.64886   0.00000  Uiso   1.00
C140   C     0.74975   0.85152   0.65745   0.00000  Uiso   1.00
C141   C     0.73712   0.80153   0.72854   0.00000  Uiso   1.00
C142   C     0.82026   0.76485   0.72378   0.00000  Uiso   1.00
C143   C     0.93170   0.69136   0.74821   0.00000  Uiso   1.00
C144   C     0.65689   0.90477   0.50509   0.00000  Uiso   1.00
C145   C     0.56617   0.89956   0.44808   0.00000  Uiso   1.00
C146   C     0.57114   0.90772   0.31506   0.00000  Uiso   1.00
C147   C     0.53838   0.91694   0.10296   0.00000  Uiso   1.00
C148   C     0.71673   0.95273   0.69162   0.00000  Uiso   1.00
C149   C     0.67631   0.98787   0.79142   0.00000  Uiso   1.00
C150   C     0.73166   0.03643   0.81542   0.00000  Uiso   1.00
C151   C     0.79182   0.12012   0.89293   0.00000  Uiso   1.00
C152   C     0.83907   0.92135   0.51401   0.00000  Uiso   1.00
C153   C     0.84217   0.86443   0.58421   0.00000  Uiso   1.00
C154   C     0.92536   0.82782   0.57934   0.00000  Uiso   1.00
C155   C     0.91285   0.77779   0.65041   0.00000  Uiso   1.00
C156   C     0.74930   0.91768   0.43185   0.00000  Uiso   1.00
C157   C     0.75441   0.92585   0.29889   0.00000  Uiso   1.00
C158   C     0.66373   0.92065   0.24168   0.00000  Uiso   1.00
C159   C     0.80915   0.96565   0.61838   0.00000  Uiso   1.00
C160   C     0.86457   0.01416   0.64223   0.00000  Uiso   1.00
C161   C     0.82425   0.04936   0.74204   0.00000  Uiso   1.00
H162   H     0.59697   0.88753   0.70588   0.00000  Uiso   1.00
H163   H     0.66558   0.79155   0.78520   0.00000  Uiso   1.00
H164   H     0.49466   0.88957   0.50479   0.00000  Uiso   1.00
H165   H     0.60480   0.97786   0.84807   0.00000  Uiso   1.00
H166   H     0.78239   0.69082   0.84080   0.00000  Uiso   1.00
H167   H     0.42198   0.89753   0.24954   0.00000  Uiso   1.00
H168   H     0.65422   0.08371   0.97343   0.00000  Uiso   1.00
H169   H     0.91103   0.93140   0.45699   0.00000  Uiso   1.00
H170   H     0.99687   0.83783   0.52265   0.00000  Uiso   1.00
H171   H     0.82594   0.93585   0.24224   0.00000  Uiso   1.00
H172   H     0.93608   0.02414   0.58553   0.00000  Uiso   1.00
H173   H     0.05127   0.72838   0.62770   0.00000  Uiso   1.00
H174   H     0.69086   0.93509   0.03645   0.00000  Uiso   1.00
H175   H     0.92311   0.12127   0.76034   0.00000  Uiso   1.00
O176   O     0.96762   0.64725   0.78190   0.00000  Uiso   1.00
O177   O     0.49478   0.91845   0.00621   0.00000  Uiso   1.00
O178   O     0.79948   0.16271   0.95593   0.00000  Uiso   1.00
N179   N     0.83390   0.71251   0.78166   0.00000  Uiso   1.00
N180   N     0.49694   0.90576   0.22886   0.00000  Uiso   1.00
N181   N     0.71405   0.07983   0.90562   0.00000  Uiso   1.00
N182   N     0.97858   0.73272   0.66699   0.00000  Uiso   1.00
N183   N     0.64163   0.92597   0.11420   0.00000  Uiso   1.00
N184   N     0.85874   0.10004   0.79095   0.00000  Uiso   1.00
