data_job_05462
_audit_creation_date              2018-12-19
_audit_creation_method            'Materials Studio'
_symmetry_space_group_name_H-M    'P1'
_symmetry_Int_Tables_number       1
_symmetry_cell_setting            triclinic
loop_
_symmetry_equiv_pos_as_xyz
  x,y,z
_cell_length_a                    12.4606
_cell_length_b                    13.7405
_cell_length_c                    20.1235
_cell_angle_alpha                 90.0000
_cell_angle_beta                  134.7513
_cell_angle_gamma                 90.0000
loop_
_atom_site_label
_atom_site_type_symbol
_atom_site_fract_x
_atom_site_fract_y
_atom_site_fract_z
_atom_site_U_iso_or_equiv
_atom_site_adp_type
_atom_site_occupancy
C1     C     0.52034   0.32122   0.06838   0.00000  Uiso   1.00
C2     C     0.62080   0.25710   0.15547   0.00000  Uiso   1.00
C3     C     0.69761   0.28685   0.24554   0.00000  Uiso   1.00
C4     C     0.78364   0.21719   0.31569   0.00000  Uiso   1.00
C5     C     0.93834   0.13223   0.45386   0.00000  Uiso   1.00
C6     C     0.58462   0.31445   0.02625   0.00000  Uiso   1.00
C7     C     0.63099   0.39243   0.00766   0.00000  Uiso   1.00
C8     C     0.68655   0.37104   0.96903   0.00000  Uiso   1.00
C9     C     0.78498   0.37513   0.90652   0.00000  Uiso   1.00
C10    C     0.36672   0.27107   0.99906   0.00000  Uiso   1.00
C11    C     0.22986   0.31258   0.95759   0.00000  Uiso   1.00
C12    C     0.10195   0.25468   0.89604   0.00000  Uiso   1.00
C13    C     0.86205   0.19141   0.79131   0.00000  Uiso   1.00
C14    C     0.53653   0.14458   0.03280   0.00000  Uiso   1.00
C15    C     0.62959   0.16115   0.13614   0.00000  Uiso   1.00
C16    C     0.71552   0.09142   0.20618   0.00000  Uiso   1.00
C17    C     0.79244   0.12107   0.29634   0.00000  Uiso   1.00
C18    C     0.59342   0.21851   0.00692   0.00000  Uiso   1.00
C19    C     0.64891   0.19700   0.96830   0.00000  Uiso   1.00
C20    C     0.69536   0.27493   0.94967   0.00000  Uiso   1.00
C21    C     0.37551   0.17512   0.97973   0.00000  Uiso   1.00
C22    C     0.24778   0.11715   0.91823   0.00000  Uiso   1.00
C23    C     0.11076   0.15856   0.87668   0.00000  Uiso   1.00
H24    H     0.51350   0.39592   0.08343   0.00000  Uiso   1.00
H25    H     0.69079   0.36111   0.26047   0.00000  Uiso   1.00
H26    H     0.62416   0.46667   0.02262   0.00000  Uiso   1.00
H27    H     0.22310   0.38683   0.97256   0.00000  Uiso   1.00
H28    H     0.89126   0.28022   0.44823   0.00000  Uiso   1.00
H29    H     0.75074   0.50280   0.94669   0.00000  Uiso   1.00
H30    H     0.90501   0.33445   0.84112   0.00000  Uiso   1.00
H31    H     0.54338   0.06988   0.01776   0.00000  Uiso   1.00
H32    H     0.72230   0.01718   0.19120   0.00000  Uiso   1.00
H33    H     0.65569   0.12274   0.95335   0.00000  Uiso   1.00
H34    H     0.25462   0.04290   0.90329   0.00000  Uiso   1.00
H35    H     0.91685   0.00108   0.39201   0.00000  Uiso   1.00
H36    H     0.77632   0.22366   0.89046   0.00000  Uiso   1.00
H37    H     0.93060   0.05530   0.78491   0.00000  Uiso   1.00
O38    O     0.02126   0.11187   0.53541   0.00000  Uiso   1.00
O39    O     0.83687   0.40389   0.87738   0.00000  Uiso   1.00
O40    O     0.72731   0.18301   0.73890   0.00000  Uiso   1.00
N41    N     0.87270   0.22175   0.41120   0.00000  Uiso   1.00
N42    N     0.74135   0.42985   0.94230   0.00000  Uiso   1.00
N43    N     0.95066   0.27246   0.84358   0.00000  Uiso   1.00
N44    N     0.88647   0.07155   0.38094   0.00000  Uiso   1.00
N45    N     0.75511   0.27964   0.91204   0.00000  Uiso   1.00
N46    N     0.96443   0.12225   0.81333   0.00000  Uiso   1.00
C47    C     0.47966   0.32122   0.43162   0.00000  Uiso   1.00
C48    C     0.37920   0.25710   0.34453   0.00000  Uiso   1.00
C49    C     0.30239   0.28685   0.25446   0.00000  Uiso   1.00
C50    C     0.21636   0.21719   0.18431   0.00000  Uiso   1.00
C51    C     0.06166   0.13223   0.04614   0.00000  Uiso   1.00
C52    C     0.41538   0.31445   0.47375   0.00000  Uiso   1.00
C53    C     0.36901   0.39243   0.49234   0.00000  Uiso   1.00
C54    C     0.31345   0.37104   0.53097   0.00000  Uiso   1.00
C55    C     0.21502   0.37513   0.59348   0.00000  Uiso   1.00
C56    C     0.63328   0.27107   0.50094   0.00000  Uiso   1.00
C57    C     0.77014   0.31258   0.54241   0.00000  Uiso   1.00
C58    C     0.89805   0.25468   0.60396   0.00000  Uiso   1.00
C59    C     0.13795   0.19141   0.70869   0.00000  Uiso   1.00
C60    C     0.46347   0.14458   0.46720   0.00000  Uiso   1.00
C61    C     0.37041   0.16115   0.36386   0.00000  Uiso   1.00
C62    C     0.28448   0.09142   0.29382   0.00000  Uiso   1.00
C63    C     0.20756   0.12107   0.20366   0.00000  Uiso   1.00
C64    C     0.40658   0.21851   0.49308   0.00000  Uiso   1.00
C65    C     0.35109   0.19700   0.53170   0.00000  Uiso   1.00
C66    C     0.30464   0.27493   0.55033   0.00000  Uiso   1.00
C67    C     0.62449   0.17512   0.52027   0.00000  Uiso   1.00
C68    C     0.75222   0.11715   0.58177   0.00000  Uiso   1.00
C69    C     0.88924   0.15856   0.62332   0.00000  Uiso   1.00
H70    H     0.48650   0.39592   0.41657   0.00000  Uiso   1.00
H71    H     0.30921   0.36111   0.23953   0.00000  Uiso   1.00
H72    H     0.37584   0.46667   0.47738   0.00000  Uiso   1.00
H73    H     0.77690   0.38683   0.52744   0.00000  Uiso   1.00
H74    H     0.10874   0.28022   0.05177   0.00000  Uiso   1.00
H75    H     0.24926   0.50280   0.55331   0.00000  Uiso   1.00
H76    H     0.09499   0.33445   0.65888   0.00000  Uiso   1.00
H77    H     0.45662   0.06988   0.48224   0.00000  Uiso   1.00
H78    H     0.27770   0.01718   0.30880   0.00000  Uiso   1.00
H79    H     0.34431   0.12274   0.54665   0.00000  Uiso   1.00
H80    H     0.74538   0.04290   0.59671   0.00000  Uiso   1.00
H81    H     0.08315   0.00108   0.10799   0.00000  Uiso   1.00
H82    H     0.22368   0.22366   0.60954   0.00000  Uiso   1.00
H83    H     0.06940   0.05530   0.71509   0.00000  Uiso   1.00
O84    O     0.97874   0.11187   0.96459   0.00000  Uiso   1.00
O85    O     0.16313   0.40389   0.62262   0.00000  Uiso   1.00
O86    O     0.27269   0.18301   0.76110   0.00000  Uiso   1.00
N87    N     0.12730   0.22175   0.08880   0.00000  Uiso   1.00
N88    N     0.25865   0.42985   0.55770   0.00000  Uiso   1.00
N89    N     0.04934   0.27246   0.65642   0.00000  Uiso   1.00
N90    N     0.11353   0.07155   0.11906   0.00000  Uiso   1.00
N91    N     0.24489   0.27964   0.58796   0.00000  Uiso   1.00
N92    N     0.03557   0.12225   0.68667   0.00000  Uiso   1.00
C93    C     0.47966   0.67878   0.93162   0.00000  Uiso   1.00
C94    C     0.37920   0.74290   0.84453   0.00000  Uiso   1.00
C95    C     0.30239   0.71315   0.75446   0.00000  Uiso   1.00
C96    C     0.21636   0.78281   0.68431   0.00000  Uiso   1.00
C97    C     0.06166   0.86777   0.54614   0.00000  Uiso   1.00
C98    C     0.41538   0.68555   0.97375   0.00000  Uiso   1.00
C99    C     0.36901   0.60757   0.99234   0.00000  Uiso   1.00
C100   C     0.31345   0.62896   0.03097   0.00000  Uiso   1.00
C101   C     0.21502   0.62487   0.09348   0.00000  Uiso   1.00
C102   C     0.63328   0.72893   0.00094   0.00000  Uiso   1.00
C103   C     0.77014   0.68742   0.04241   0.00000  Uiso   1.00
C104   C     0.89805   0.74532   0.10396   0.00000  Uiso   1.00
C105   C     0.13795   0.80859   0.20869   0.00000  Uiso   1.00
C106   C     0.46347   0.85542   0.96720   0.00000  Uiso   1.00
C107   C     0.37041   0.83885   0.86386   0.00000  Uiso   1.00
C108   C     0.28448   0.90858   0.79382   0.00000  Uiso   1.00
C109   C     0.20756   0.87893   0.70366   0.00000  Uiso   1.00
C110   C     0.40658   0.78149   0.99308   0.00000  Uiso   1.00
C111   C     0.35109   0.80300   0.03170   0.00000  Uiso   1.00
C112   C     0.30464   0.72507   0.05033   0.00000  Uiso   1.00
C113   C     0.62449   0.82488   0.02027   0.00000  Uiso   1.00
C114   C     0.75222   0.88285   0.08177   0.00000  Uiso   1.00
C115   C     0.88924   0.84144   0.12332   0.00000  Uiso   1.00
H116   H     0.48650   0.60408   0.91657   0.00000  Uiso   1.00
H117   H     0.30921   0.63889   0.73953   0.00000  Uiso   1.00
H118   H     0.37584   0.53333   0.97738   0.00000  Uiso   1.00
H119   H     0.77690   0.61317   0.02744   0.00000  Uiso   1.00
H120   H     0.10874   0.71978   0.55177   0.00000  Uiso   1.00
H121   H     0.24926   0.49720   0.05331   0.00000  Uiso   1.00
H122   H     0.09499   0.66555   0.15888   0.00000  Uiso   1.00
H123   H     0.45662   0.93012   0.98224   0.00000  Uiso   1.00
H124   H     0.27770   0.98282   0.80880   0.00000  Uiso   1.00
H125   H     0.34431   0.87726   0.04665   0.00000  Uiso   1.00
H126   H     0.74538   0.95710   0.09671   0.00000  Uiso   1.00
H127   H     0.08315   0.99892   0.60799   0.00000  Uiso   1.00
H128   H     0.22368   0.77634   0.10954   0.00000  Uiso   1.00
H129   H     0.06940   0.94470   0.21509   0.00000  Uiso   1.00
O130   O     0.97874   0.88813   0.46459   0.00000  Uiso   1.00
O131   O     0.16313   0.59611   0.12262   0.00000  Uiso   1.00
O132   O     0.27269   0.81699   0.26110   0.00000  Uiso   1.00
N133   N     0.12730   0.77825   0.58880   0.00000  Uiso   1.00
N134   N     0.25865   0.57015   0.05770   0.00000  Uiso   1.00
N135   N     0.04934   0.72754   0.15642   0.00000  Uiso   1.00
N136   N     0.11353   0.92845   0.61906   0.00000  Uiso   1.00
N137   N     0.24489   0.72036   0.08796   0.00000  Uiso   1.00
N138   N     0.03557   0.87775   0.18667   0.00000  Uiso   1.00
C139   C     0.52034   0.67878   0.56838   0.00000  Uiso   1.00
C140   C     0.62080   0.74290   0.65547   0.00000  Uiso   1.00
C141   C     0.69761   0.71315   0.74554   0.00000  Uiso   1.00
C142   C     0.78364   0.78281   0.81569   0.00000  Uiso   1.00
C143   C     0.93834   0.86777   0.95386   0.00000  Uiso   1.00
C144   C     0.58462   0.68555   0.52625   0.00000  Uiso   1.00
C145   C     0.63099   0.60757   0.50766   0.00000  Uiso   1.00
C146   C     0.68655   0.62896   0.46903   0.00000  Uiso   1.00
C147   C     0.78498   0.62487   0.40652   0.00000  Uiso   1.00
C148   C     0.36672   0.72893   0.49906   0.00000  Uiso   1.00
C149   C     0.22986   0.68742   0.45759   0.00000  Uiso   1.00
C150   C     0.10195   0.74532   0.39604   0.00000  Uiso   1.00
C151   C     0.86205   0.80859   0.29131   0.00000  Uiso   1.00
C152   C     0.53653   0.85542   0.53280   0.00000  Uiso   1.00
C153   C     0.62959   0.83885   0.63614   0.00000  Uiso   1.00
C154   C     0.71552   0.90858   0.70618   0.00000  Uiso   1.00
C155   C     0.79244   0.87893   0.79634   0.00000  Uiso   1.00
C156   C     0.59342   0.78149   0.50692   0.00000  Uiso   1.00
C157   C     0.64891   0.80300   0.46830   0.00000  Uiso   1.00
C158   C     0.69536   0.72507   0.44967   0.00000  Uiso   1.00
C159   C     0.37551   0.82488   0.47973   0.00000  Uiso   1.00
C160   C     0.24778   0.88285   0.41823   0.00000  Uiso   1.00
C161   C     0.11076   0.84144   0.37668   0.00000  Uiso   1.00
H162   H     0.51350   0.60408   0.58343   0.00000  Uiso   1.00
H163   H     0.69079   0.63889   0.76047   0.00000  Uiso   1.00
H164   H     0.62416   0.53333   0.52262   0.00000  Uiso   1.00
H165   H     0.22310   0.61317   0.47256   0.00000  Uiso   1.00
H166   H     0.89126   0.71978   0.94823   0.00000  Uiso   1.00
H167   H     0.75074   0.49720   0.44669   0.00000  Uiso   1.00
H168   H     0.90501   0.66555   0.34112   0.00000  Uiso   1.00
H169   H     0.54338   0.93012   0.51776   0.00000  Uiso   1.00
H170   H     0.72230   0.98282   0.69120   0.00000  Uiso   1.00
H171   H     0.65569   0.87726   0.45335   0.00000  Uiso   1.00
H172   H     0.25462   0.95710   0.40329   0.00000  Uiso   1.00
H173   H     0.91685   0.99892   0.89201   0.00000  Uiso   1.00
H174   H     0.77632   0.77634   0.39046   0.00000  Uiso   1.00
H175   H     0.93060   0.94470   0.28491   0.00000  Uiso   1.00
O176   O     0.02126   0.88813   0.03541   0.00000  Uiso   1.00
O177   O     0.83687   0.59611   0.37738   0.00000  Uiso   1.00
O178   O     0.72731   0.81699   0.23890   0.00000  Uiso   1.00
N179   N     0.87270   0.77825   0.91120   0.00000  Uiso   1.00
N180   N     0.74135   0.57015   0.44230   0.00000  Uiso   1.00
N181   N     0.95066   0.72754   0.34358   0.00000  Uiso   1.00
N182   N     0.88647   0.92845   0.88094   0.00000  Uiso   1.00
N183   N     0.75511   0.72036   0.41204   0.00000  Uiso   1.00
N184   N     0.96443   0.87775   0.31333   0.00000  Uiso   1.00
