data_job_03861
_audit_creation_date              2018-12-19
_audit_creation_method            'Materials Studio'
_symmetry_space_group_name_H-M    'P1'
_symmetry_Int_Tables_number       1
_symmetry_cell_setting            triclinic
loop_
_symmetry_equiv_pos_as_xyz
  x,y,z
_cell_length_a                    42.9950
_cell_length_b                    8.2674
_cell_length_c                    21.8078
_cell_angle_alpha                 90.0000
_cell_angle_beta                  90.0000
_cell_angle_gamma                 90.0000
loop_
_atom_site_label
_atom_site_type_symbol
_atom_site_fract_x
_atom_site_fract_y
_atom_site_fract_z
_atom_site_U_iso_or_equiv
_atom_site_adp_type
_atom_site_occupancy
C1     C     0.86589   0.43120   0.16663   0.00000  Uiso   1.00
C2     C     0.85014   0.50411   0.11040   0.00000  Uiso   1.00
C3     C     0.84968   0.43667   0.05213   0.00000  Uiso   1.00
C4     C     0.83403   0.52220   0.00684   0.00000  Uiso   1.00
C5     C     0.81183   0.61299   0.91760   0.00000  Uiso   1.00
C6     C     0.88843   0.55952   0.19002   0.00000  Uiso   1.00
C7     C     0.92016   0.53866   0.19871   0.00000  Uiso   1.00
C8     C     0.93675   0.67083   0.22046   0.00000  Uiso   1.00
C9     C     0.97399   0.84761   0.25488   0.00000  Uiso   1.00
C10    C     0.84062   0.41625   0.21537   0.00000  Uiso   1.00
C11    C     0.83214   0.27493   0.24538   0.00000  Uiso   1.00
C12    C     0.80848   0.28649   0.28848   0.00000  Uiso   1.00
C13    C     0.77148   0.24081   0.36226   0.00000  Uiso   1.00
C14    C     0.83894   0.70300   0.18982   0.00000  Uiso   1.00
C15    C     0.83551   0.65174   0.12300   0.00000  Uiso   1.00
C16    C     0.81986   0.73739   0.07779   0.00000  Uiso   1.00
C17    C     0.81937   0.67009   0.01946   0.00000  Uiso   1.00
C18    C     0.87380   0.70715   0.20262   0.00000  Uiso   1.00
C19    C     0.89034   0.83938   0.22437   0.00000  Uiso   1.00
C20    C     0.92209   0.81873   0.23308   0.00000  Uiso   1.00
C21    C     0.82598   0.56388   0.22797   0.00000  Uiso   1.00
C22    C     0.80233   0.57565   0.27104   0.00000  Uiso   1.00
C23    C     0.79382   0.43439   0.30110   0.00000  Uiso   1.00
H24    H     0.87728   0.31627   0.15683   0.00000  Uiso   1.00
H25    H     0.86101   0.32243   0.04240   0.00000  Uiso   1.00
H26    H     0.93148   0.42440   0.18896   0.00000  Uiso   1.00
H27    H     0.84348   0.16071   0.23562   0.00000  Uiso   1.00
H28    H     0.83652   0.39439   0.92108   0.00000  Uiso   1.00
H29    H     0.98511   0.60938   0.23014   0.00000  Uiso   1.00
H30    H     0.79954   0.05335   0.32853   0.00000  Uiso   1.00
H31    H     0.82754   0.81795   0.19963   0.00000  Uiso   1.00
H32    H     0.80854   0.85164   0.08755   0.00000  Uiso   1.00
H33    H     0.87901   0.95360   0.23411   0.00000  Uiso   1.00
H34    H     0.79101   0.68992   0.28077   0.00000  Uiso   1.00
H35    H     0.79393   0.82392   0.95773   0.00000  Uiso   1.00
H36    H     0.94252   0.03891   0.26679   0.00000  Uiso   1.00
H37    H     0.75695   0.48288   0.36518   0.00000  Uiso   1.00
O38    O     0.80363   0.62229   0.86489   0.00000  Uiso   1.00
O39    O     0.99857   0.90433   0.27038   0.00000  Uiso   1.00
O40    O     0.75510   0.17484   0.39947   0.00000  Uiso   1.00
N41    N     0.82910   0.49084   0.94509   0.00000  Uiso   1.00
N42    N     0.96802   0.69185   0.23403   0.00000  Uiso   1.00
N43    N     0.79453   0.17202   0.32603   0.00000  Uiso   1.00
N44    N     0.80618   0.72197   0.96481   0.00000  Uiso   1.00
N45    N     0.94511   0.92298   0.25375   0.00000  Uiso   1.00
N46    N     0.77162   0.40314   0.34575   0.00000  Uiso   1.00
C47    C     0.63411   0.56880   0.66663   0.00000  Uiso   1.00
C48    C     0.64986   0.49589   0.61040   0.00000  Uiso   1.00
C49    C     0.65032   0.56333   0.55213   0.00000  Uiso   1.00
C50    C     0.66597   0.47780   0.50684   0.00000  Uiso   1.00
C51    C     0.68817   0.38701   0.41760   0.00000  Uiso   1.00
C52    C     0.61157   0.44048   0.69002   0.00000  Uiso   1.00
C53    C     0.57984   0.46134   0.69871   0.00000  Uiso   1.00
C54    C     0.56325   0.32917   0.72046   0.00000  Uiso   1.00
C55    C     0.52601   0.15239   0.75488   0.00000  Uiso   1.00
C56    C     0.65938   0.58375   0.71537   0.00000  Uiso   1.00
C57    C     0.66786   0.72507   0.74538   0.00000  Uiso   1.00
C58    C     0.69152   0.71351   0.78848   0.00000  Uiso   1.00
C59    C     0.72852   0.75919   0.86226   0.00000  Uiso   1.00
C60    C     0.66106   0.29700   0.68982   0.00000  Uiso   1.00
C61    C     0.66449   0.34826   0.62300   0.00000  Uiso   1.00
C62    C     0.68014   0.26261   0.57779   0.00000  Uiso   1.00
C63    C     0.68063   0.32991   0.51946   0.00000  Uiso   1.00
C64    C     0.62620   0.29285   0.70262   0.00000  Uiso   1.00
C65    C     0.60966   0.16062   0.72437   0.00000  Uiso   1.00
C66    C     0.57791   0.18127   0.73308   0.00000  Uiso   1.00
C67    C     0.67402   0.43612   0.72797   0.00000  Uiso   1.00
C68    C     0.69767   0.42435   0.77104   0.00000  Uiso   1.00
C69    C     0.70618   0.56561   0.80110   0.00000  Uiso   1.00
H70    H     0.62272   0.68373   0.65683   0.00000  Uiso   1.00
H71    H     0.63899   0.67757   0.54240   0.00000  Uiso   1.00
H72    H     0.56852   0.57560   0.68896   0.00000  Uiso   1.00
H73    H     0.65652   0.83929   0.73562   0.00000  Uiso   1.00
H74    H     0.66348   0.60561   0.42108   0.00000  Uiso   1.00
H75    H     0.51489   0.39062   0.73014   0.00000  Uiso   1.00
H76    H     0.70046   0.94665   0.82853   0.00000  Uiso   1.00
H77    H     0.67246   0.18205   0.69963   0.00000  Uiso   1.00
H78    H     0.69146   0.14836   0.58755   0.00000  Uiso   1.00
H79    H     0.62099   0.04640   0.73411   0.00000  Uiso   1.00
H80    H     0.70899   0.31008   0.78077   0.00000  Uiso   1.00
H81    H     0.70607   0.17608   0.45773   0.00000  Uiso   1.00
H82    H     0.55748   0.96109   0.76679   0.00000  Uiso   1.00
H83    H     0.74305   0.51712   0.86518   0.00000  Uiso   1.00
O84    O     0.69637   0.37771   0.36489   0.00000  Uiso   1.00
O85    O     0.50143   0.09567   0.77038   0.00000  Uiso   1.00
O86    O     0.74490   0.82516   0.89947   0.00000  Uiso   1.00
N87    N     0.67090   0.50916   0.44509   0.00000  Uiso   1.00
N88    N     0.53198   0.30815   0.73403   0.00000  Uiso   1.00
N89    N     0.70547   0.82798   0.82603   0.00000  Uiso   1.00
N90    N     0.69382   0.27803   0.46481   0.00000  Uiso   1.00
N91    N     0.55489   0.07702   0.75375   0.00000  Uiso   1.00
N92    N     0.72838   0.59686   0.84575   0.00000  Uiso   1.00
C93    C     0.13411   0.93120   0.33337   0.00000  Uiso   1.00
C94    C     0.14986   0.00411   0.38960   0.00000  Uiso   1.00
C95    C     0.15032   0.93667   0.44787   0.00000  Uiso   1.00
C96    C     0.16597   0.02220   0.49316   0.00000  Uiso   1.00
C97    C     0.18817   0.11299   0.58240   0.00000  Uiso   1.00
C98    C     0.11157   0.05952   0.30998   0.00000  Uiso   1.00
C99    C     0.07984   0.03866   0.30129   0.00000  Uiso   1.00
C100   C     0.06325   0.17083   0.27954   0.00000  Uiso   1.00
C101   C     0.02601   0.34761   0.24512   0.00000  Uiso   1.00
C102   C     0.15938   0.91625   0.28463   0.00000  Uiso   1.00
C103   C     0.16786   0.77493   0.25462   0.00000  Uiso   1.00
C104   C     0.19152   0.78649   0.21152   0.00000  Uiso   1.00
C105   C     0.22852   0.74081   0.13774   0.00000  Uiso   1.00
C106   C     0.16106   0.20300   0.31018   0.00000  Uiso   1.00
C107   C     0.16449   0.15174   0.37700   0.00000  Uiso   1.00
C108   C     0.18014   0.23739   0.42221   0.00000  Uiso   1.00
C109   C     0.18063   0.17009   0.48054   0.00000  Uiso   1.00
C110   C     0.12620   0.20715   0.29738   0.00000  Uiso   1.00
C111   C     0.10966   0.33938   0.27563   0.00000  Uiso   1.00
C112   C     0.07791   0.31873   0.26692   0.00000  Uiso   1.00
C113   C     0.17402   0.06388   0.27203   0.00000  Uiso   1.00
C114   C     0.19767   0.07565   0.22896   0.00000  Uiso   1.00
C115   C     0.20618   0.93439   0.19890   0.00000  Uiso   1.00
H116   H     0.12272   0.81627   0.34317   0.00000  Uiso   1.00
H117   H     0.13899   0.82243   0.45760   0.00000  Uiso   1.00
H118   H     0.06852   0.92440   0.31104   0.00000  Uiso   1.00
H119   H     0.15652   0.66071   0.26438   0.00000  Uiso   1.00
H120   H     0.16348   0.89439   0.57892   0.00000  Uiso   1.00
H121   H     0.01489   0.10938   0.26986   0.00000  Uiso   1.00
H122   H     0.20046   0.55335   0.17147   0.00000  Uiso   1.00
H123   H     0.17246   0.31795   0.30037   0.00000  Uiso   1.00
H124   H     0.19146   0.35164   0.41245   0.00000  Uiso   1.00
H125   H     0.12099   0.45360   0.26589   0.00000  Uiso   1.00
H126   H     0.20899   0.18992   0.21923   0.00000  Uiso   1.00
H127   H     0.20607   0.32392   0.54227   0.00000  Uiso   1.00
H128   H     0.05748   0.53891   0.23321   0.00000  Uiso   1.00
H129   H     0.24305   0.98288   0.13482   0.00000  Uiso   1.00
O130   O     0.19637   0.12229   0.63511   0.00000  Uiso   1.00
O131   O     0.00143   0.40433   0.22962   0.00000  Uiso   1.00
O132   O     0.24490   0.67484   0.10053   0.00000  Uiso   1.00
N133   N     0.17090   0.99084   0.55491   0.00000  Uiso   1.00
N134   N     0.03198   0.19185   0.26597   0.00000  Uiso   1.00
N135   N     0.20547   0.67202   0.17397   0.00000  Uiso   1.00
N136   N     0.19382   0.22197   0.53519   0.00000  Uiso   1.00
N137   N     0.05489   0.42298   0.24625   0.00000  Uiso   1.00
N138   N     0.22838   0.90314   0.15425   0.00000  Uiso   1.00
C139   C     0.36589   0.06880   0.83337   0.00000  Uiso   1.00
C140   C     0.35014   0.99589   0.88960   0.00000  Uiso   1.00
C141   C     0.34968   0.06333   0.94787   0.00000  Uiso   1.00
C142   C     0.33403   0.97780   0.99316   0.00000  Uiso   1.00
C143   C     0.31183   0.88701   0.08240   0.00000  Uiso   1.00
C144   C     0.38843   0.94048   0.80998   0.00000  Uiso   1.00
C145   C     0.42016   0.96134   0.80129   0.00000  Uiso   1.00
C146   C     0.43675   0.82917   0.77954   0.00000  Uiso   1.00
C147   C     0.47399   0.65239   0.74512   0.00000  Uiso   1.00
C148   C     0.34062   0.08375   0.78463   0.00000  Uiso   1.00
C149   C     0.33214   0.22507   0.75462   0.00000  Uiso   1.00
C150   C     0.30848   0.21351   0.71152   0.00000  Uiso   1.00
C151   C     0.27148   0.25919   0.63774   0.00000  Uiso   1.00
C152   C     0.33894   0.79700   0.81018   0.00000  Uiso   1.00
C153   C     0.33551   0.84826   0.87700   0.00000  Uiso   1.00
C154   C     0.31986   0.76261   0.92221   0.00000  Uiso   1.00
C155   C     0.31937   0.82991   0.98054   0.00000  Uiso   1.00
C156   C     0.37380   0.79285   0.79738   0.00000  Uiso   1.00
C157   C     0.39034   0.66062   0.77563   0.00000  Uiso   1.00
C158   C     0.42209   0.68127   0.76692   0.00000  Uiso   1.00
C159   C     0.32598   0.93612   0.77203   0.00000  Uiso   1.00
C160   C     0.30233   0.92435   0.72896   0.00000  Uiso   1.00
C161   C     0.29382   0.06561   0.69890   0.00000  Uiso   1.00
H162   H     0.37728   0.18373   0.84317   0.00000  Uiso   1.00
H163   H     0.36101   0.17757   0.95760   0.00000  Uiso   1.00
H164   H     0.43148   0.07560   0.81104   0.00000  Uiso   1.00
H165   H     0.34348   0.33929   0.76438   0.00000  Uiso   1.00
H166   H     0.33652   0.10561   0.07892   0.00000  Uiso   1.00
H167   H     0.48511   0.89062   0.76986   0.00000  Uiso   1.00
H168   H     0.29954   0.44665   0.67147   0.00000  Uiso   1.00
H169   H     0.32754   0.68205   0.80037   0.00000  Uiso   1.00
H170   H     0.30854   0.64836   0.91245   0.00000  Uiso   1.00
H171   H     0.37901   0.54640   0.76589   0.00000  Uiso   1.00
H172   H     0.29101   0.81008   0.71923   0.00000  Uiso   1.00
H173   H     0.29393   0.67608   0.04227   0.00000  Uiso   1.00
H174   H     0.44252   0.46109   0.73321   0.00000  Uiso   1.00
H175   H     0.25695   0.01712   0.63482   0.00000  Uiso   1.00
O176   O     0.30363   0.87771   0.13511   0.00000  Uiso   1.00
O177   O     0.49857   0.59567   0.72962   0.00000  Uiso   1.00
O178   O     0.25510   0.32516   0.60053   0.00000  Uiso   1.00
N179   N     0.32910   0.00916   0.05491   0.00000  Uiso   1.00
N180   N     0.46802   0.80815   0.76597   0.00000  Uiso   1.00
N181   N     0.29453   0.32798   0.67397   0.00000  Uiso   1.00
N182   N     0.30618   0.77803   0.03519   0.00000  Uiso   1.00
N183   N     0.44511   0.57702   0.74625   0.00000  Uiso   1.00
N184   N     0.27162   0.09686   0.65425   0.00000  Uiso   1.00
C185   C     0.13411   0.56880   0.83337   0.00000  Uiso   1.00
C186   C     0.14986   0.49589   0.88960   0.00000  Uiso   1.00
C187   C     0.15032   0.56333   0.94787   0.00000  Uiso   1.00
C188   C     0.16597   0.47780   0.99316   0.00000  Uiso   1.00
C189   C     0.18817   0.38701   0.08240   0.00000  Uiso   1.00
C190   C     0.11157   0.44048   0.80998   0.00000  Uiso   1.00
C191   C     0.07984   0.46134   0.80129   0.00000  Uiso   1.00
C192   C     0.06325   0.32917   0.77954   0.00000  Uiso   1.00
C193   C     0.02601   0.15239   0.74512   0.00000  Uiso   1.00
C194   C     0.15938   0.58375   0.78463   0.00000  Uiso   1.00
C195   C     0.16786   0.72507   0.75462   0.00000  Uiso   1.00
C196   C     0.19152   0.71351   0.71152   0.00000  Uiso   1.00
C197   C     0.22852   0.75919   0.63774   0.00000  Uiso   1.00
C198   C     0.16106   0.29700   0.81018   0.00000  Uiso   1.00
C199   C     0.16449   0.34826   0.87700   0.00000  Uiso   1.00
C200   C     0.18014   0.26261   0.92221   0.00000  Uiso   1.00
C201   C     0.18063   0.32991   0.98054   0.00000  Uiso   1.00
C202   C     0.12620   0.29285   0.79738   0.00000  Uiso   1.00
C203   C     0.10966   0.16062   0.77563   0.00000  Uiso   1.00
C204   C     0.07791   0.18127   0.76692   0.00000  Uiso   1.00
C205   C     0.17402   0.43612   0.77203   0.00000  Uiso   1.00
C206   C     0.19767   0.42435   0.72896   0.00000  Uiso   1.00
C207   C     0.20618   0.56561   0.69890   0.00000  Uiso   1.00
H208   H     0.12272   0.68373   0.84317   0.00000  Uiso   1.00
H209   H     0.13899   0.67757   0.95760   0.00000  Uiso   1.00
H210   H     0.06852   0.57560   0.81104   0.00000  Uiso   1.00
H211   H     0.15652   0.83929   0.76438   0.00000  Uiso   1.00
H212   H     0.16348   0.60561   0.07892   0.00000  Uiso   1.00
H213   H     0.01489   0.39062   0.76986   0.00000  Uiso   1.00
H214   H     0.20046   0.94665   0.67147   0.00000  Uiso   1.00
H215   H     0.17246   0.18205   0.80037   0.00000  Uiso   1.00
H216   H     0.19146   0.14836   0.91245   0.00000  Uiso   1.00
H217   H     0.12099   0.04640   0.76589   0.00000  Uiso   1.00
H218   H     0.20899   0.31008   0.71923   0.00000  Uiso   1.00
H219   H     0.20607   0.17608   0.04227   0.00000  Uiso   1.00
H220   H     0.05748   0.96109   0.73321   0.00000  Uiso   1.00
H221   H     0.24305   0.51712   0.63482   0.00000  Uiso   1.00
O222   O     0.19637   0.37771   0.13511   0.00000  Uiso   1.00
O223   O     0.00143   0.09567   0.72962   0.00000  Uiso   1.00
O224   O     0.24490   0.82516   0.60053   0.00000  Uiso   1.00
N225   N     0.17090   0.50916   0.05491   0.00000  Uiso   1.00
N226   N     0.03198   0.30815   0.76597   0.00000  Uiso   1.00
N227   N     0.20547   0.82798   0.67397   0.00000  Uiso   1.00
N228   N     0.19382   0.27803   0.03519   0.00000  Uiso   1.00
N229   N     0.05489   0.07702   0.74625   0.00000  Uiso   1.00
N230   N     0.22838   0.59686   0.65425   0.00000  Uiso   1.00
C231   C     0.36589   0.43120   0.33337   0.00000  Uiso   1.00
C232   C     0.35014   0.50411   0.38960   0.00000  Uiso   1.00
C233   C     0.34968   0.43667   0.44787   0.00000  Uiso   1.00
C234   C     0.33403   0.52220   0.49316   0.00000  Uiso   1.00
C235   C     0.31183   0.61299   0.58240   0.00000  Uiso   1.00
C236   C     0.38843   0.55952   0.30998   0.00000  Uiso   1.00
C237   C     0.42016   0.53866   0.30129   0.00000  Uiso   1.00
C238   C     0.43675   0.67083   0.27954   0.00000  Uiso   1.00
C239   C     0.47399   0.84761   0.24512   0.00000  Uiso   1.00
C240   C     0.34062   0.41625   0.28463   0.00000  Uiso   1.00
C241   C     0.33214   0.27493   0.25462   0.00000  Uiso   1.00
C242   C     0.30848   0.28649   0.21152   0.00000  Uiso   1.00
C243   C     0.27148   0.24081   0.13774   0.00000  Uiso   1.00
C244   C     0.33894   0.70300   0.31018   0.00000  Uiso   1.00
C245   C     0.33551   0.65174   0.37700   0.00000  Uiso   1.00
C246   C     0.31986   0.73739   0.42221   0.00000  Uiso   1.00
C247   C     0.31937   0.67009   0.48054   0.00000  Uiso   1.00
C248   C     0.37380   0.70715   0.29738   0.00000  Uiso   1.00
C249   C     0.39034   0.83938   0.27563   0.00000  Uiso   1.00
C250   C     0.42209   0.81873   0.26692   0.00000  Uiso   1.00
C251   C     0.32598   0.56388   0.27203   0.00000  Uiso   1.00
C252   C     0.30233   0.57565   0.22896   0.00000  Uiso   1.00
C253   C     0.29382   0.43439   0.19890   0.00000  Uiso   1.00
H254   H     0.37728   0.31627   0.34317   0.00000  Uiso   1.00
H255   H     0.36101   0.32243   0.45760   0.00000  Uiso   1.00
H256   H     0.43148   0.42440   0.31104   0.00000  Uiso   1.00
H257   H     0.34348   0.16071   0.26438   0.00000  Uiso   1.00
H258   H     0.33652   0.39439   0.57892   0.00000  Uiso   1.00
H259   H     0.48511   0.60938   0.26986   0.00000  Uiso   1.00
H260   H     0.29954   0.05335   0.17147   0.00000  Uiso   1.00
H261   H     0.32754   0.81795   0.30037   0.00000  Uiso   1.00
H262   H     0.30854   0.85164   0.41245   0.00000  Uiso   1.00
H263   H     0.37901   0.95360   0.26589   0.00000  Uiso   1.00
H264   H     0.29101   0.68992   0.21923   0.00000  Uiso   1.00
H265   H     0.29393   0.82392   0.54227   0.00000  Uiso   1.00
H266   H     0.44252   0.03891   0.23321   0.00000  Uiso   1.00
H267   H     0.25695   0.48288   0.13482   0.00000  Uiso   1.00
O268   O     0.30363   0.62229   0.63511   0.00000  Uiso   1.00
O269   O     0.49857   0.90433   0.22962   0.00000  Uiso   1.00
O270   O     0.25510   0.17484   0.10053   0.00000  Uiso   1.00
N271   N     0.32910   0.49084   0.55491   0.00000  Uiso   1.00
N272   N     0.46802   0.69185   0.26597   0.00000  Uiso   1.00
N273   N     0.29453   0.17202   0.17397   0.00000  Uiso   1.00
N274   N     0.30618   0.72197   0.53519   0.00000  Uiso   1.00
N275   N     0.44511   0.92298   0.24625   0.00000  Uiso   1.00
N276   N     0.27162   0.40314   0.15425   0.00000  Uiso   1.00
C277   C     0.86589   0.06880   0.66663   0.00000  Uiso   1.00
C278   C     0.85014   0.99589   0.61040   0.00000  Uiso   1.00
C279   C     0.84968   0.06333   0.55213   0.00000  Uiso   1.00
C280   C     0.83403   0.97780   0.50684   0.00000  Uiso   1.00
C281   C     0.81183   0.88701   0.41760   0.00000  Uiso   1.00
C282   C     0.88843   0.94048   0.69002   0.00000  Uiso   1.00
C283   C     0.92016   0.96134   0.69871   0.00000  Uiso   1.00
C284   C     0.93675   0.82917   0.72046   0.00000  Uiso   1.00
C285   C     0.97399   0.65239   0.75488   0.00000  Uiso   1.00
C286   C     0.84062   0.08375   0.71537   0.00000  Uiso   1.00
C287   C     0.83214   0.22507   0.74538   0.00000  Uiso   1.00
C288   C     0.80848   0.21351   0.78848   0.00000  Uiso   1.00
C289   C     0.77148   0.25919   0.86226   0.00000  Uiso   1.00
C290   C     0.83894   0.79700   0.68982   0.00000  Uiso   1.00
C291   C     0.83551   0.84826   0.62300   0.00000  Uiso   1.00
C292   C     0.81986   0.76261   0.57779   0.00000  Uiso   1.00
C293   C     0.81937   0.82991   0.51946   0.00000  Uiso   1.00
C294   C     0.87380   0.79285   0.70262   0.00000  Uiso   1.00
C295   C     0.89034   0.66062   0.72437   0.00000  Uiso   1.00
C296   C     0.92209   0.68127   0.73308   0.00000  Uiso   1.00
C297   C     0.82598   0.93612   0.72797   0.00000  Uiso   1.00
C298   C     0.80233   0.92435   0.77104   0.00000  Uiso   1.00
C299   C     0.79382   0.06561   0.80110   0.00000  Uiso   1.00
H300   H     0.87728   0.18373   0.65683   0.00000  Uiso   1.00
H301   H     0.86101   0.17757   0.54240   0.00000  Uiso   1.00
H302   H     0.93148   0.07560   0.68896   0.00000  Uiso   1.00
H303   H     0.84348   0.33929   0.73562   0.00000  Uiso   1.00
H304   H     0.83652   0.10561   0.42108   0.00000  Uiso   1.00
H305   H     0.98511   0.89062   0.73014   0.00000  Uiso   1.00
H306   H     0.79954   0.44665   0.82853   0.00000  Uiso   1.00
H307   H     0.82754   0.68205   0.69963   0.00000  Uiso   1.00
H308   H     0.80854   0.64836   0.58755   0.00000  Uiso   1.00
H309   H     0.87901   0.54640   0.73411   0.00000  Uiso   1.00
H310   H     0.79101   0.81008   0.78077   0.00000  Uiso   1.00
H311   H     0.79393   0.67608   0.45773   0.00000  Uiso   1.00
H312   H     0.94252   0.46109   0.76679   0.00000  Uiso   1.00
H313   H     0.75695   0.01712   0.86518   0.00000  Uiso   1.00
O314   O     0.80363   0.87771   0.36489   0.00000  Uiso   1.00
O315   O     0.99857   0.59567   0.77038   0.00000  Uiso   1.00
O316   O     0.75510   0.32516   0.89947   0.00000  Uiso   1.00
N317   N     0.82910   0.00916   0.44509   0.00000  Uiso   1.00
N318   N     0.96802   0.80815   0.73403   0.00000  Uiso   1.00
N319   N     0.79453   0.32798   0.82603   0.00000  Uiso   1.00
N320   N     0.80618   0.77803   0.46481   0.00000  Uiso   1.00
N321   N     0.94511   0.57702   0.75375   0.00000  Uiso   1.00
N322   N     0.77162   0.09686   0.84575   0.00000  Uiso   1.00
C323   C     0.63411   0.93120   0.16663   0.00000  Uiso   1.00
C324   C     0.64986   0.00411   0.11040   0.00000  Uiso   1.00
C325   C     0.65032   0.93667   0.05213   0.00000  Uiso   1.00
C326   C     0.66597   0.02220   0.00684   0.00000  Uiso   1.00
C327   C     0.68817   0.11299   0.91760   0.00000  Uiso   1.00
C328   C     0.61157   0.05952   0.19002   0.00000  Uiso   1.00
C329   C     0.57984   0.03866   0.19871   0.00000  Uiso   1.00
C330   C     0.56325   0.17083   0.22046   0.00000  Uiso   1.00
C331   C     0.52601   0.34761   0.25488   0.00000  Uiso   1.00
C332   C     0.65938   0.91625   0.21537   0.00000  Uiso   1.00
C333   C     0.66786   0.77493   0.24538   0.00000  Uiso   1.00
C334   C     0.69152   0.78649   0.28848   0.00000  Uiso   1.00
C335   C     0.72852   0.74081   0.36226   0.00000  Uiso   1.00
C336   C     0.66106   0.20300   0.18982   0.00000  Uiso   1.00
C337   C     0.66449   0.15174   0.12300   0.00000  Uiso   1.00
C338   C     0.68014   0.23739   0.07779   0.00000  Uiso   1.00
C339   C     0.68063   0.17009   0.01946   0.00000  Uiso   1.00
C340   C     0.62620   0.20715   0.20262   0.00000  Uiso   1.00
C341   C     0.60966   0.33938   0.22437   0.00000  Uiso   1.00
C342   C     0.57791   0.31873   0.23308   0.00000  Uiso   1.00
C343   C     0.67402   0.06388   0.22797   0.00000  Uiso   1.00
C344   C     0.69767   0.07565   0.27104   0.00000  Uiso   1.00
C345   C     0.70618   0.93439   0.30110   0.00000  Uiso   1.00
H346   H     0.62272   0.81627   0.15683   0.00000  Uiso   1.00
H347   H     0.63899   0.82243   0.04240   0.00000  Uiso   1.00
H348   H     0.56852   0.92440   0.18896   0.00000  Uiso   1.00
H349   H     0.65652   0.66071   0.23562   0.00000  Uiso   1.00
H350   H     0.66348   0.89439   0.92108   0.00000  Uiso   1.00
H351   H     0.51489   0.10938   0.23014   0.00000  Uiso   1.00
H352   H     0.70046   0.55335   0.32853   0.00000  Uiso   1.00
H353   H     0.67246   0.31795   0.19963   0.00000  Uiso   1.00
H354   H     0.69146   0.35164   0.08755   0.00000  Uiso   1.00
H355   H     0.62099   0.45360   0.23411   0.00000  Uiso   1.00
H356   H     0.70899   0.18992   0.28077   0.00000  Uiso   1.00
H357   H     0.70607   0.32392   0.95773   0.00000  Uiso   1.00
H358   H     0.55748   0.53891   0.26679   0.00000  Uiso   1.00
H359   H     0.74305   0.98288   0.36518   0.00000  Uiso   1.00
O360   O     0.69637   0.12229   0.86489   0.00000  Uiso   1.00
O361   O     0.50143   0.40433   0.27038   0.00000  Uiso   1.00
O362   O     0.74490   0.67484   0.39947   0.00000  Uiso   1.00
N363   N     0.67090   0.99084   0.94509   0.00000  Uiso   1.00
N364   N     0.53198   0.19185   0.23403   0.00000  Uiso   1.00
N365   N     0.70547   0.67202   0.32603   0.00000  Uiso   1.00
N366   N     0.69382   0.22197   0.96481   0.00000  Uiso   1.00
N367   N     0.55489   0.42298   0.25375   0.00000  Uiso   1.00
N368   N     0.72838   0.90314   0.34575   0.00000  Uiso   1.00
