data_job_05568
_audit_creation_date              2018-12-19
_audit_creation_method            'Materials Studio'
_symmetry_space_group_name_H-M    'P1'
_symmetry_Int_Tables_number       1
_symmetry_cell_setting            triclinic
loop_
_symmetry_equiv_pos_as_xyz
  x,y,z
_cell_length_a                    12.9467
_cell_length_b                    12.3687
_cell_length_c                    43.8868
_cell_angle_alpha                 90.0000
_cell_angle_beta                  90.0000
_cell_angle_gamma                 90.0000
loop_
_atom_site_label
_atom_site_type_symbol
_atom_site_fract_x
_atom_site_fract_y
_atom_site_fract_z
_atom_site_U_iso_or_equiv
_atom_site_adp_type
_atom_site_occupancy
C1     C     0.06952   0.34113   0.90369   0.00000  Uiso   1.00
C2     C     0.06430   0.23567   0.92163   0.00000  Uiso   1.00
C3     C     0.14840   0.17451   0.93097   0.00000  Uiso   1.00
C4     C     0.12741   0.08056   0.94714   0.00000  Uiso   1.00
C5     C     0.13474   0.92159   0.97398   0.00000  Uiso   1.00
C6     C     0.00482   0.32322   0.87510   0.00000  Uiso   1.00
C7     C     0.03890   0.33568   0.84532   0.00000  Uiso   1.00
C8     C     0.96783   0.31545   0.82233   0.00000  Uiso   1.00
C9     C     0.88278   0.29248   0.77693   0.00000  Uiso   1.00
C10    C     0.01143   0.42468   0.92264   0.00000  Uiso   1.00
C11    C     0.05106   0.52247   0.93283   0.00000  Uiso   1.00
C12    C     0.98556   0.58767   0.94985   0.00000  Uiso   1.00
C13    C     0.91078   0.72223   0.97827   0.00000  Uiso   1.00
C14    C     0.88271   0.28306   0.91580   0.00000  Uiso   1.00
C15    C     0.96283   0.20413   0.92820   0.00000  Uiso   1.00
C16    C     0.94171   0.11026   0.94436   0.00000  Uiso   1.00
C17    C     0.02576   0.04897   0.95373   0.00000  Uiso   1.00
C18    C     0.90335   0.29168   0.88167   0.00000  Uiso   1.00
C19    C     0.83222   0.27144   0.85872   0.00000  Uiso   1.00
C20    C     0.86618   0.28386   0.82891   0.00000  Uiso   1.00
C21    C     0.90996   0.39314   0.92922   0.00000  Uiso   1.00
C22    C     0.84438   0.45821   0.94622   0.00000  Uiso   1.00
C23    C     0.88390   0.55607   0.95644   0.00000  Uiso   1.00
H24    H     0.14852   0.36568   0.89857   0.00000  Uiso   1.00
H25    H     0.22691   0.19894   0.92588   0.00000  Uiso   1.00
H26    H     0.11742   0.36010   0.84024   0.00000  Uiso   1.00
H27    H     0.12959   0.54685   0.92774   0.00000  Uiso   1.00
H28    H     0.26907   0.00014   0.95904   0.00000  Uiso   1.00
H29    H     0.03820   0.34000   0.77848   0.00000  Uiso   1.00
H30    H     0.06385   0.73379   0.96297   0.00000  Uiso   1.00
H31    H     0.80371   0.25850   0.92092   0.00000  Uiso   1.00
H32    H     0.86318   0.08587   0.94945   0.00000  Uiso   1.00
H33    H     0.75370   0.24704   0.86381   0.00000  Uiso   1.00
H34    H     0.76586   0.43378   0.95131   0.00000  Uiso   1.00
H35    H     0.97386   0.90837   0.97817   0.00000  Uiso   1.00
H36    H     0.74299   0.24824   0.79761   0.00000  Uiso   1.00
H37    H     0.76864   0.64202   0.98210   0.00000  Uiso   1.00
O38    O     0.16681   0.84261   0.98696   0.00000  Uiso   1.00
O39    O     0.86391   0.28851   0.75007   0.00000  Uiso   1.00
O40    O     0.89757   0.80515   0.99213   0.00000  Uiso   1.00
N41    N     0.19143   0.00225   0.95963   0.00000  Uiso   1.00
N42    N     0.97559   0.31998   0.79082   0.00000  Uiso   1.00
N43    N     0.99956   0.68815   0.96330   0.00000  Uiso   1.00
N44    N     0.03258   0.95286   0.96993   0.00000  Uiso   1.00
N45    N     0.81674   0.27060   0.80111   0.00000  Uiso   1.00
N46    N     0.84071   0.63877   0.97359   0.00000  Uiso   1.00
C47    C     0.43048   0.15887   0.40369   0.00000  Uiso   1.00
C48    C     0.43570   0.26433   0.42163   0.00000  Uiso   1.00
C49    C     0.35160   0.32549   0.43097   0.00000  Uiso   1.00
C50    C     0.37259   0.41944   0.44714   0.00000  Uiso   1.00
C51    C     0.36526   0.57841   0.47398   0.00000  Uiso   1.00
C52    C     0.49518   0.17678   0.37510   0.00000  Uiso   1.00
C53    C     0.46110   0.16432   0.34532   0.00000  Uiso   1.00
C54    C     0.53217   0.18455   0.32233   0.00000  Uiso   1.00
C55    C     0.61722   0.20752   0.27693   0.00000  Uiso   1.00
C56    C     0.48857   0.07532   0.42264   0.00000  Uiso   1.00
C57    C     0.44894   0.97753   0.43283   0.00000  Uiso   1.00
C58    C     0.51444   0.91233   0.44985   0.00000  Uiso   1.00
C59    C     0.58922   0.77777   0.47827   0.00000  Uiso   1.00
C60    C     0.61729   0.21694   0.41580   0.00000  Uiso   1.00
C61    C     0.53717   0.29587   0.42820   0.00000  Uiso   1.00
C62    C     0.55829   0.38974   0.44436   0.00000  Uiso   1.00
C63    C     0.47424   0.45103   0.45373   0.00000  Uiso   1.00
C64    C     0.59665   0.20832   0.38167   0.00000  Uiso   1.00
C65    C     0.66778   0.22856   0.35872   0.00000  Uiso   1.00
C66    C     0.63382   0.21614   0.32891   0.00000  Uiso   1.00
C67    C     0.59004   0.10686   0.42922   0.00000  Uiso   1.00
C68    C     0.65562   0.04179   0.44622   0.00000  Uiso   1.00
C69    C     0.61610   0.94393   0.45644   0.00000  Uiso   1.00
H70    H     0.35148   0.13432   0.39857   0.00000  Uiso   1.00
H71    H     0.27309   0.30106   0.42588   0.00000  Uiso   1.00
H72    H     0.38258   0.13990   0.34024   0.00000  Uiso   1.00
H73    H     0.37041   0.95315   0.42774   0.00000  Uiso   1.00
H74    H     0.23093   0.49986   0.45904   0.00000  Uiso   1.00
H75    H     0.46180   0.16000   0.27848   0.00000  Uiso   1.00
H76    H     0.43615   0.76621   0.46297   0.00000  Uiso   1.00
H77    H     0.69629   0.24150   0.42092   0.00000  Uiso   1.00
H78    H     0.63682   0.41413   0.44945   0.00000  Uiso   1.00
H79    H     0.74630   0.25296   0.36381   0.00000  Uiso   1.00
H80    H     0.73414   0.06622   0.45131   0.00000  Uiso   1.00
H81    H     0.52614   0.59163   0.47817   0.00000  Uiso   1.00
H82    H     0.75701   0.25176   0.29761   0.00000  Uiso   1.00
H83    H     0.73136   0.85798   0.48210   0.00000  Uiso   1.00
O84    O     0.33319   0.65739   0.48696   0.00000  Uiso   1.00
O85    O     0.63609   0.21149   0.25007   0.00000  Uiso   1.00
O86    O     0.60243   0.69485   0.49213   0.00000  Uiso   1.00
N87    N     0.30857   0.49775   0.45963   0.00000  Uiso   1.00
N88    N     0.52441   0.18002   0.29082   0.00000  Uiso   1.00
N89    N     0.50044   0.81185   0.46330   0.00000  Uiso   1.00
N90    N     0.46742   0.54714   0.46993   0.00000  Uiso   1.00
N91    N     0.68326   0.22940   0.30111   0.00000  Uiso   1.00
N92    N     0.65929   0.86123   0.47359   0.00000  Uiso   1.00
C93    C     0.93048   0.34113   0.59631   0.00000  Uiso   1.00
C94    C     0.93570   0.23567   0.57837   0.00000  Uiso   1.00
C95    C     0.85160   0.17451   0.56903   0.00000  Uiso   1.00
C96    C     0.87259   0.08056   0.55286   0.00000  Uiso   1.00
C97    C     0.86526   0.92159   0.52602   0.00000  Uiso   1.00
C98    C     0.99518   0.32322   0.62490   0.00000  Uiso   1.00
C99    C     0.96110   0.33568   0.65468   0.00000  Uiso   1.00
C100   C     0.03217   0.31545   0.67767   0.00000  Uiso   1.00
C101   C     0.11722   0.29248   0.72307   0.00000  Uiso   1.00
C102   C     0.98857   0.42468   0.57736   0.00000  Uiso   1.00
C103   C     0.94894   0.52247   0.56717   0.00000  Uiso   1.00
C104   C     0.01444   0.58767   0.55015   0.00000  Uiso   1.00
C105   C     0.08922   0.72223   0.52173   0.00000  Uiso   1.00
C106   C     0.11729   0.28306   0.58420   0.00000  Uiso   1.00
C107   C     0.03717   0.20413   0.57180   0.00000  Uiso   1.00
C108   C     0.05829   0.11026   0.55564   0.00000  Uiso   1.00
C109   C     0.97424   0.04897   0.54627   0.00000  Uiso   1.00
C110   C     0.09665   0.29168   0.61833   0.00000  Uiso   1.00
C111   C     0.16778   0.27144   0.64128   0.00000  Uiso   1.00
C112   C     0.13382   0.28386   0.67109   0.00000  Uiso   1.00
C113   C     0.09004   0.39314   0.57078   0.00000  Uiso   1.00
C114   C     0.15562   0.45821   0.55378   0.00000  Uiso   1.00
C115   C     0.11610   0.55607   0.54356   0.00000  Uiso   1.00
H116   H     0.85148   0.36568   0.60143   0.00000  Uiso   1.00
H117   H     0.77309   0.19894   0.57412   0.00000  Uiso   1.00
H118   H     0.88258   0.36010   0.65976   0.00000  Uiso   1.00
H119   H     0.87041   0.54685   0.57226   0.00000  Uiso   1.00
H120   H     0.73093   0.00014   0.54096   0.00000  Uiso   1.00
H121   H     0.96180   0.34000   0.72152   0.00000  Uiso   1.00
H122   H     0.93615   0.73379   0.53703   0.00000  Uiso   1.00
H123   H     0.19629   0.25850   0.57908   0.00000  Uiso   1.00
H124   H     0.13682   0.08587   0.55055   0.00000  Uiso   1.00
H125   H     0.24630   0.24704   0.63619   0.00000  Uiso   1.00
H126   H     0.23414   0.43378   0.54869   0.00000  Uiso   1.00
H127   H     0.02614   0.90837   0.52183   0.00000  Uiso   1.00
H128   H     0.25701   0.24824   0.70239   0.00000  Uiso   1.00
H129   H     0.23136   0.64202   0.51790   0.00000  Uiso   1.00
O130   O     0.83319   0.84261   0.51304   0.00000  Uiso   1.00
O131   O     0.13609   0.28851   0.74993   0.00000  Uiso   1.00
O132   O     0.10243   0.80515   0.50787   0.00000  Uiso   1.00
N133   N     0.80857   0.00225   0.54037   0.00000  Uiso   1.00
N134   N     0.02441   0.31998   0.70918   0.00000  Uiso   1.00
N135   N     0.00044   0.68815   0.53670   0.00000  Uiso   1.00
N136   N     0.96742   0.95286   0.53007   0.00000  Uiso   1.00
N137   N     0.18326   0.27060   0.69889   0.00000  Uiso   1.00
N138   N     0.15929   0.63877   0.52641   0.00000  Uiso   1.00
C139   C     0.56952   0.15887   0.09631   0.00000  Uiso   1.00
C140   C     0.56430   0.26433   0.07837   0.00000  Uiso   1.00
C141   C     0.64840   0.32549   0.06903   0.00000  Uiso   1.00
C142   C     0.62741   0.41944   0.05286   0.00000  Uiso   1.00
C143   C     0.63474   0.57841   0.02602   0.00000  Uiso   1.00
C144   C     0.50482   0.17678   0.12490   0.00000  Uiso   1.00
C145   C     0.53890   0.16432   0.15468   0.00000  Uiso   1.00
C146   C     0.46783   0.18455   0.17767   0.00000  Uiso   1.00
C147   C     0.38278   0.20752   0.22307   0.00000  Uiso   1.00
C148   C     0.51143   0.07532   0.07736   0.00000  Uiso   1.00
C149   C     0.55106   0.97753   0.06717   0.00000  Uiso   1.00
C150   C     0.48556   0.91233   0.05015   0.00000  Uiso   1.00
C151   C     0.41078   0.77777   0.02173   0.00000  Uiso   1.00
C152   C     0.38271   0.21694   0.08420   0.00000  Uiso   1.00
C153   C     0.46283   0.29587   0.07180   0.00000  Uiso   1.00
C154   C     0.44171   0.38974   0.05564   0.00000  Uiso   1.00
C155   C     0.52576   0.45103   0.04627   0.00000  Uiso   1.00
C156   C     0.40335   0.20832   0.11833   0.00000  Uiso   1.00
C157   C     0.33222   0.22856   0.14128   0.00000  Uiso   1.00
C158   C     0.36618   0.21614   0.17109   0.00000  Uiso   1.00
C159   C     0.40996   0.10686   0.07078   0.00000  Uiso   1.00
C160   C     0.34438   0.04179   0.05378   0.00000  Uiso   1.00
C161   C     0.38390   0.94393   0.04356   0.00000  Uiso   1.00
H162   H     0.64852   0.13432   0.10143   0.00000  Uiso   1.00
H163   H     0.72691   0.30106   0.07412   0.00000  Uiso   1.00
H164   H     0.61742   0.13990   0.15976   0.00000  Uiso   1.00
H165   H     0.62959   0.95315   0.07226   0.00000  Uiso   1.00
H166   H     0.76907   0.49986   0.04096   0.00000  Uiso   1.00
H167   H     0.53820   0.16000   0.22152   0.00000  Uiso   1.00
H168   H     0.56385   0.76621   0.03703   0.00000  Uiso   1.00
H169   H     0.30371   0.24150   0.07908   0.00000  Uiso   1.00
H170   H     0.36318   0.41413   0.05055   0.00000  Uiso   1.00
H171   H     0.25370   0.25296   0.13619   0.00000  Uiso   1.00
H172   H     0.26586   0.06622   0.04869   0.00000  Uiso   1.00
H173   H     0.47386   0.59163   0.02183   0.00000  Uiso   1.00
H174   H     0.24299   0.25176   0.20239   0.00000  Uiso   1.00
H175   H     0.26864   0.85798   0.01790   0.00000  Uiso   1.00
O176   O     0.66681   0.65739   0.01304   0.00000  Uiso   1.00
O177   O     0.36391   0.21149   0.24993   0.00000  Uiso   1.00
O178   O     0.39757   0.69485   0.00787   0.00000  Uiso   1.00
N179   N     0.69143   0.49775   0.04037   0.00000  Uiso   1.00
N180   N     0.47559   0.18002   0.20918   0.00000  Uiso   1.00
N181   N     0.49956   0.81185   0.03670   0.00000  Uiso   1.00
N182   N     0.53258   0.54714   0.03007   0.00000  Uiso   1.00
N183   N     0.31674   0.22940   0.19889   0.00000  Uiso   1.00
N184   N     0.34071   0.86123   0.02641   0.00000  Uiso   1.00
C185   C     0.93048   0.65887   0.09631   0.00000  Uiso   1.00
C186   C     0.93570   0.76433   0.07837   0.00000  Uiso   1.00
C187   C     0.85160   0.82549   0.06903   0.00000  Uiso   1.00
C188   C     0.87259   0.91944   0.05286   0.00000  Uiso   1.00
C189   C     0.86526   0.07841   0.02602   0.00000  Uiso   1.00
C190   C     0.99518   0.67678   0.12490   0.00000  Uiso   1.00
C191   C     0.96110   0.66432   0.15468   0.00000  Uiso   1.00
C192   C     0.03217   0.68455   0.17767   0.00000  Uiso   1.00
C193   C     0.11722   0.70752   0.22307   0.00000  Uiso   1.00
C194   C     0.98857   0.57532   0.07736   0.00000  Uiso   1.00
C195   C     0.94894   0.47753   0.06717   0.00000  Uiso   1.00
C196   C     0.01444   0.41233   0.05015   0.00000  Uiso   1.00
C197   C     0.08922   0.27777   0.02173   0.00000  Uiso   1.00
C198   C     0.11729   0.71694   0.08420   0.00000  Uiso   1.00
C199   C     0.03717   0.79587   0.07180   0.00000  Uiso   1.00
C200   C     0.05829   0.88974   0.05564   0.00000  Uiso   1.00
C201   C     0.97424   0.95103   0.04627   0.00000  Uiso   1.00
C202   C     0.09665   0.70832   0.11833   0.00000  Uiso   1.00
C203   C     0.16778   0.72856   0.14128   0.00000  Uiso   1.00
C204   C     0.13382   0.71614   0.17109   0.00000  Uiso   1.00
C205   C     0.09004   0.60686   0.07078   0.00000  Uiso   1.00
C206   C     0.15562   0.54179   0.05378   0.00000  Uiso   1.00
C207   C     0.11610   0.44393   0.04356   0.00000  Uiso   1.00
H208   H     0.85148   0.63432   0.10143   0.00000  Uiso   1.00
H209   H     0.77309   0.80106   0.07412   0.00000  Uiso   1.00
H210   H     0.88258   0.63990   0.15976   0.00000  Uiso   1.00
H211   H     0.87041   0.45315   0.07226   0.00000  Uiso   1.00
H212   H     0.73093   0.99986   0.04096   0.00000  Uiso   1.00
H213   H     0.96180   0.66000   0.22152   0.00000  Uiso   1.00
H214   H     0.93615   0.26621   0.03703   0.00000  Uiso   1.00
H215   H     0.19629   0.74150   0.07908   0.00000  Uiso   1.00
H216   H     0.13682   0.91413   0.05055   0.00000  Uiso   1.00
H217   H     0.24630   0.75296   0.13619   0.00000  Uiso   1.00
H218   H     0.23414   0.56622   0.04869   0.00000  Uiso   1.00
H219   H     0.02614   0.09163   0.02183   0.00000  Uiso   1.00
H220   H     0.25701   0.75176   0.20239   0.00000  Uiso   1.00
H221   H     0.23136   0.35798   0.01790   0.00000  Uiso   1.00
O222   O     0.83319   0.15739   0.01304   0.00000  Uiso   1.00
O223   O     0.13609   0.71149   0.24993   0.00000  Uiso   1.00
O224   O     0.10243   0.19485   0.00787   0.00000  Uiso   1.00
N225   N     0.80857   0.99775   0.04037   0.00000  Uiso   1.00
N226   N     0.02441   0.68002   0.20918   0.00000  Uiso   1.00
N227   N     0.00044   0.31185   0.03670   0.00000  Uiso   1.00
N228   N     0.96742   0.04714   0.03007   0.00000  Uiso   1.00
N229   N     0.18326   0.72940   0.19889   0.00000  Uiso   1.00
N230   N     0.15929   0.36123   0.02641   0.00000  Uiso   1.00
C231   C     0.56952   0.84113   0.59631   0.00000  Uiso   1.00
C232   C     0.56430   0.73567   0.57837   0.00000  Uiso   1.00
C233   C     0.64840   0.67451   0.56903   0.00000  Uiso   1.00
C234   C     0.62741   0.58056   0.55286   0.00000  Uiso   1.00
C235   C     0.63474   0.42159   0.52602   0.00000  Uiso   1.00
C236   C     0.50482   0.82322   0.62490   0.00000  Uiso   1.00
C237   C     0.53890   0.83568   0.65468   0.00000  Uiso   1.00
C238   C     0.46783   0.81545   0.67767   0.00000  Uiso   1.00
C239   C     0.38278   0.79248   0.72307   0.00000  Uiso   1.00
C240   C     0.51143   0.92468   0.57736   0.00000  Uiso   1.00
C241   C     0.55106   0.02247   0.56717   0.00000  Uiso   1.00
C242   C     0.48556   0.08767   0.55015   0.00000  Uiso   1.00
C243   C     0.41078   0.22223   0.52173   0.00000  Uiso   1.00
C244   C     0.38271   0.78306   0.58420   0.00000  Uiso   1.00
C245   C     0.46283   0.70413   0.57180   0.00000  Uiso   1.00
C246   C     0.44171   0.61026   0.55564   0.00000  Uiso   1.00
C247   C     0.52576   0.54897   0.54627   0.00000  Uiso   1.00
C248   C     0.40335   0.79168   0.61833   0.00000  Uiso   1.00
C249   C     0.33222   0.77144   0.64128   0.00000  Uiso   1.00
C250   C     0.36618   0.78386   0.67109   0.00000  Uiso   1.00
C251   C     0.40996   0.89314   0.57078   0.00000  Uiso   1.00
C252   C     0.34438   0.95821   0.55378   0.00000  Uiso   1.00
C253   C     0.38390   0.05607   0.54356   0.00000  Uiso   1.00
H254   H     0.64852   0.86568   0.60143   0.00000  Uiso   1.00
H255   H     0.72691   0.69894   0.57412   0.00000  Uiso   1.00
H256   H     0.61742   0.86010   0.65976   0.00000  Uiso   1.00
H257   H     0.62959   0.04685   0.57226   0.00000  Uiso   1.00
H258   H     0.76907   0.50014   0.54096   0.00000  Uiso   1.00
H259   H     0.53820   0.84000   0.72152   0.00000  Uiso   1.00
H260   H     0.56385   0.23379   0.53703   0.00000  Uiso   1.00
H261   H     0.30371   0.75850   0.57908   0.00000  Uiso   1.00
H262   H     0.36318   0.58587   0.55055   0.00000  Uiso   1.00
H263   H     0.25370   0.74704   0.63619   0.00000  Uiso   1.00
H264   H     0.26586   0.93378   0.54869   0.00000  Uiso   1.00
H265   H     0.47386   0.40837   0.52183   0.00000  Uiso   1.00
H266   H     0.24299   0.74824   0.70239   0.00000  Uiso   1.00
H267   H     0.26864   0.14202   0.51790   0.00000  Uiso   1.00
O268   O     0.66681   0.34261   0.51304   0.00000  Uiso   1.00
O269   O     0.36391   0.78851   0.74993   0.00000  Uiso   1.00
O270   O     0.39757   0.30515   0.50787   0.00000  Uiso   1.00
N271   N     0.69143   0.50225   0.54037   0.00000  Uiso   1.00
N272   N     0.47559   0.81998   0.70918   0.00000  Uiso   1.00
N273   N     0.49956   0.18815   0.53670   0.00000  Uiso   1.00
N274   N     0.53258   0.45286   0.53007   0.00000  Uiso   1.00
N275   N     0.31674   0.77060   0.69889   0.00000  Uiso   1.00
N276   N     0.34071   0.13877   0.52641   0.00000  Uiso   1.00
C277   C     0.06952   0.65887   0.40369   0.00000  Uiso   1.00
C278   C     0.06430   0.76433   0.42163   0.00000  Uiso   1.00
C279   C     0.14840   0.82549   0.43097   0.00000  Uiso   1.00
C280   C     0.12741   0.91944   0.44714   0.00000  Uiso   1.00
C281   C     0.13474   0.07841   0.47398   0.00000  Uiso   1.00
C282   C     0.00482   0.67678   0.37510   0.00000  Uiso   1.00
C283   C     0.03890   0.66432   0.34532   0.00000  Uiso   1.00
C284   C     0.96783   0.68455   0.32233   0.00000  Uiso   1.00
C285   C     0.88278   0.70752   0.27693   0.00000  Uiso   1.00
C286   C     0.01143   0.57532   0.42264   0.00000  Uiso   1.00
C287   C     0.05106   0.47753   0.43283   0.00000  Uiso   1.00
C288   C     0.98556   0.41233   0.44985   0.00000  Uiso   1.00
C289   C     0.91078   0.27777   0.47827   0.00000  Uiso   1.00
C290   C     0.88271   0.71694   0.41580   0.00000  Uiso   1.00
C291   C     0.96283   0.79587   0.42820   0.00000  Uiso   1.00
C292   C     0.94171   0.88974   0.44436   0.00000  Uiso   1.00
C293   C     0.02576   0.95103   0.45373   0.00000  Uiso   1.00
C294   C     0.90335   0.70832   0.38167   0.00000  Uiso   1.00
C295   C     0.83222   0.72856   0.35872   0.00000  Uiso   1.00
C296   C     0.86618   0.71614   0.32891   0.00000  Uiso   1.00
C297   C     0.90996   0.60686   0.42922   0.00000  Uiso   1.00
C298   C     0.84438   0.54179   0.44622   0.00000  Uiso   1.00
C299   C     0.88390   0.44393   0.45644   0.00000  Uiso   1.00
H300   H     0.14852   0.63432   0.39857   0.00000  Uiso   1.00
H301   H     0.22691   0.80106   0.42588   0.00000  Uiso   1.00
H302   H     0.11742   0.63990   0.34024   0.00000  Uiso   1.00
H303   H     0.12959   0.45315   0.42774   0.00000  Uiso   1.00
H304   H     0.26907   0.99986   0.45904   0.00000  Uiso   1.00
H305   H     0.03820   0.66000   0.27848   0.00000  Uiso   1.00
H306   H     0.06385   0.26621   0.46297   0.00000  Uiso   1.00
H307   H     0.80371   0.74150   0.42092   0.00000  Uiso   1.00
H308   H     0.86318   0.91413   0.44945   0.00000  Uiso   1.00
H309   H     0.75370   0.75296   0.36381   0.00000  Uiso   1.00
H310   H     0.76586   0.56622   0.45131   0.00000  Uiso   1.00
H311   H     0.97386   0.09163   0.47817   0.00000  Uiso   1.00
H312   H     0.74299   0.75176   0.29761   0.00000  Uiso   1.00
H313   H     0.76864   0.35798   0.48210   0.00000  Uiso   1.00
O314   O     0.16681   0.15739   0.48696   0.00000  Uiso   1.00
O315   O     0.86391   0.71149   0.25007   0.00000  Uiso   1.00
O316   O     0.89757   0.19485   0.49213   0.00000  Uiso   1.00
N317   N     0.19143   0.99775   0.45963   0.00000  Uiso   1.00
N318   N     0.97559   0.68002   0.29082   0.00000  Uiso   1.00
N319   N     0.99956   0.31185   0.46330   0.00000  Uiso   1.00
N320   N     0.03258   0.04714   0.46993   0.00000  Uiso   1.00
N321   N     0.81674   0.72940   0.30111   0.00000  Uiso   1.00
N322   N     0.84071   0.36123   0.47359   0.00000  Uiso   1.00
C323   C     0.43048   0.84113   0.90369   0.00000  Uiso   1.00
C324   C     0.43570   0.73567   0.92163   0.00000  Uiso   1.00
C325   C     0.35160   0.67451   0.93097   0.00000  Uiso   1.00
C326   C     0.37259   0.58056   0.94714   0.00000  Uiso   1.00
C327   C     0.36526   0.42159   0.97398   0.00000  Uiso   1.00
C328   C     0.49518   0.82322   0.87510   0.00000  Uiso   1.00
C329   C     0.46110   0.83568   0.84532   0.00000  Uiso   1.00
C330   C     0.53217   0.81545   0.82233   0.00000  Uiso   1.00
C331   C     0.61722   0.79248   0.77693   0.00000  Uiso   1.00
C332   C     0.48857   0.92468   0.92264   0.00000  Uiso   1.00
C333   C     0.44894   0.02247   0.93283   0.00000  Uiso   1.00
C334   C     0.51444   0.08767   0.94985   0.00000  Uiso   1.00
C335   C     0.58922   0.22223   0.97827   0.00000  Uiso   1.00
C336   C     0.61729   0.78306   0.91580   0.00000  Uiso   1.00
C337   C     0.53717   0.70413   0.92820   0.00000  Uiso   1.00
C338   C     0.55829   0.61026   0.94436   0.00000  Uiso   1.00
C339   C     0.47424   0.54897   0.95373   0.00000  Uiso   1.00
C340   C     0.59665   0.79168   0.88167   0.00000  Uiso   1.00
C341   C     0.66778   0.77144   0.85872   0.00000  Uiso   1.00
C342   C     0.63382   0.78386   0.82891   0.00000  Uiso   1.00
C343   C     0.59004   0.89314   0.92922   0.00000  Uiso   1.00
C344   C     0.65562   0.95821   0.94622   0.00000  Uiso   1.00
C345   C     0.61610   0.05607   0.95644   0.00000  Uiso   1.00
H346   H     0.35148   0.86568   0.89857   0.00000  Uiso   1.00
H347   H     0.27309   0.69894   0.92588   0.00000  Uiso   1.00
H348   H     0.38258   0.86010   0.84024   0.00000  Uiso   1.00
H349   H     0.37041   0.04685   0.92774   0.00000  Uiso   1.00
H350   H     0.23093   0.50014   0.95904   0.00000  Uiso   1.00
H351   H     0.46180   0.84000   0.77848   0.00000  Uiso   1.00
H352   H     0.43615   0.23379   0.96297   0.00000  Uiso   1.00
H353   H     0.69629   0.75850   0.92092   0.00000  Uiso   1.00
H354   H     0.63682   0.58587   0.94945   0.00000  Uiso   1.00
H355   H     0.74630   0.74704   0.86381   0.00000  Uiso   1.00
H356   H     0.73414   0.93378   0.95131   0.00000  Uiso   1.00
H357   H     0.52614   0.40837   0.97817   0.00000  Uiso   1.00
H358   H     0.75701   0.74824   0.79761   0.00000  Uiso   1.00
H359   H     0.73136   0.14202   0.98210   0.00000  Uiso   1.00
O360   O     0.33319   0.34261   0.98696   0.00000  Uiso   1.00
O361   O     0.63609   0.78851   0.75007   0.00000  Uiso   1.00
O362   O     0.60243   0.30515   0.99213   0.00000  Uiso   1.00
N363   N     0.30857   0.50225   0.95963   0.00000  Uiso   1.00
N364   N     0.52441   0.81998   0.79082   0.00000  Uiso   1.00
N365   N     0.50044   0.18815   0.96330   0.00000  Uiso   1.00
N366   N     0.46742   0.45286   0.96993   0.00000  Uiso   1.00
N367   N     0.68326   0.77060   0.80111   0.00000  Uiso   1.00
N368   N     0.65929   0.13877   0.97359   0.00000  Uiso   1.00
