data_job_02657
_audit_creation_date              2018-12-19
_audit_creation_method            'Materials Studio'
_symmetry_space_group_name_H-M    'P1'
_symmetry_Int_Tables_number       1
_symmetry_cell_setting            triclinic
loop_
_symmetry_equiv_pos_as_xyz
  x,y,z
_cell_length_a                    18.1080
_cell_length_b                    13.1790
_cell_length_c                    19.0715
_cell_angle_alpha                 90.0000
_cell_angle_beta                  90.0000
_cell_angle_gamma                 90.0000
loop_
_atom_site_label
_atom_site_type_symbol
_atom_site_fract_x
_atom_site_fract_y
_atom_site_fract_z
_atom_site_U_iso_or_equiv
_atom_site_adp_type
_atom_site_occupancy
C1     C     0.71408   0.27544   0.58571   0.00000  Uiso   1.00
C2     C     0.76987   0.30142   0.64285   0.00000  Uiso   1.00
C3     C     0.79404   0.23623   0.69519   0.00000  Uiso   1.00
C4     C     0.84525   0.27442   0.74251   0.00000  Uiso   1.00
C5     C     0.92789   0.29958   0.83201   0.00000  Uiso   1.00
C6     C     0.65259   0.35400   0.59188   0.00000  Uiso   1.00
C7     C     0.57815   0.33301   0.60135   0.00000  Uiso   1.00
C8     C     0.53064   0.41546   0.60574   0.00000  Uiso   1.00
C9     C     0.43119   0.52225   0.61605   0.00000  Uiso   1.00
C10    C     0.75267   0.29683   0.51619   0.00000  Uiso   1.00
C11    C     0.76236   0.22780   0.46202   0.00000  Uiso   1.00
C12    C     0.79909   0.26213   0.40268   0.00000  Uiso   1.00
C13    C     0.85503   0.28016   0.29548   0.00000  Uiso   1.00
C14    C     0.76207   0.45917   0.57666   0.00000  Uiso   1.00
C15    C     0.79593   0.40121   0.63794   0.00000  Uiso   1.00
C16    C     0.84713   0.43950   0.68518   0.00000  Uiso   1.00
C17    C     0.87137   0.37438   0.73758   0.00000  Uiso   1.00
C18    C     0.67865   0.45378   0.58696   0.00000  Uiso   1.00
C19    C     0.63125   0.53628   0.59133   0.00000  Uiso   1.00
C20    C     0.55675   0.51544   0.60081   0.00000  Uiso   1.00
C21    C     0.77874   0.39662   0.51128   0.00000  Uiso   1.00
C22    C     0.81546   0.43107   0.45201   0.00000  Uiso   1.00
C23    C     0.82521   0.36210   0.39775   0.00000  Uiso   1.00
H24    H     0.69379   0.19776   0.58954   0.00000  Uiso   1.00
H25    H     0.77385   0.15901   0.69899   0.00000  Uiso   1.00
H26    H     0.55799   0.25578   0.60515   0.00000  Uiso   1.00
H27    H     0.74218   0.15058   0.46584   0.00000  Uiso   1.00
H28    H     0.87408   0.16008   0.81818   0.00000  Uiso   1.00
H29    H     0.41894   0.36412   0.62029   0.00000  Uiso   1.00
H30    H     0.80733   0.14228   0.32653   0.00000  Uiso   1.00
H31    H     0.78237   0.53686   0.57283   0.00000  Uiso   1.00
H32    H     0.86729   0.51673   0.68136   0.00000  Uiso   1.00
H33    H     0.65144   0.61350   0.58752   0.00000  Uiso   1.00
H34    H     0.83562   0.50829   0.44822   0.00000  Uiso   1.00
H35    H     0.94992   0.45042   0.80388   0.00000  Uiso   1.00
H36    H     0.49478   0.65446   0.60598   0.00000  Uiso   1.00
H37    H     0.88317   0.43262   0.31223   0.00000  Uiso   1.00
O38    O     0.96625   0.28589   0.88274   0.00000  Uiso   1.00
O39    O     0.36913   0.55358   0.62310   0.00000  Uiso   1.00
O40    O     0.87868   0.26254   0.23771   0.00000  Uiso   1.00
N41    N     0.88029   0.23117   0.79991   0.00000  Uiso   1.00
N42    N     0.45476   0.42193   0.61491   0.00000  Uiso   1.00
N43    N     0.81785   0.21454   0.34026   0.00000  Uiso   1.00
N44    N     0.92110   0.38739   0.79221   0.00000  Uiso   1.00
N45    N     0.49557   0.57816   0.60721   0.00000  Uiso   1.00
N46    N     0.85866   0.37077   0.33257   0.00000  Uiso   1.00
C47    C     0.78592   0.22456   0.08571   0.00000  Uiso   1.00
C48    C     0.73013   0.19858   0.14285   0.00000  Uiso   1.00
C49    C     0.70596   0.26377   0.19519   0.00000  Uiso   1.00
C50    C     0.65475   0.22558   0.24251   0.00000  Uiso   1.00
C51    C     0.57211   0.20042   0.33201   0.00000  Uiso   1.00
C52    C     0.84741   0.14600   0.09188   0.00000  Uiso   1.00
C53    C     0.92185   0.16699   0.10135   0.00000  Uiso   1.00
C54    C     0.96936   0.08454   0.10574   0.00000  Uiso   1.00
C55    C     0.06881   0.97775   0.11605   0.00000  Uiso   1.00
C56    C     0.74733   0.20317   0.01619   0.00000  Uiso   1.00
C57    C     0.73764   0.27220   0.96202   0.00000  Uiso   1.00
C58    C     0.70091   0.23787   0.90268   0.00000  Uiso   1.00
C59    C     0.64497   0.21984   0.79548   0.00000  Uiso   1.00
C60    C     0.73793   0.04083   0.07666   0.00000  Uiso   1.00
C61    C     0.70407   0.09879   0.13794   0.00000  Uiso   1.00
C62    C     0.65287   0.06050   0.18518   0.00000  Uiso   1.00
C63    C     0.62863   0.12562   0.23758   0.00000  Uiso   1.00
C64    C     0.82135   0.04622   0.08696   0.00000  Uiso   1.00
C65    C     0.86875   0.96372   0.09133   0.00000  Uiso   1.00
C66    C     0.94325   0.98456   0.10081   0.00000  Uiso   1.00
C67    C     0.72126   0.10338   0.01128   0.00000  Uiso   1.00
C68    C     0.68454   0.06893   0.95201   0.00000  Uiso   1.00
C69    C     0.67479   0.13790   0.89775   0.00000  Uiso   1.00
H70    H     0.80621   0.30224   0.08954   0.00000  Uiso   1.00
H71    H     0.72615   0.34099   0.19899   0.00000  Uiso   1.00
H72    H     0.94201   0.24422   0.10515   0.00000  Uiso   1.00
H73    H     0.75782   0.34942   0.96584   0.00000  Uiso   1.00
H74    H     0.62592   0.33992   0.31818   0.00000  Uiso   1.00
H75    H     0.08106   0.13588   0.12029   0.00000  Uiso   1.00
H76    H     0.69267   0.35772   0.82653   0.00000  Uiso   1.00
H77    H     0.71763   0.96314   0.07283   0.00000  Uiso   1.00
H78    H     0.63271   0.98327   0.18136   0.00000  Uiso   1.00
H79    H     0.84856   0.88650   0.08752   0.00000  Uiso   1.00
H80    H     0.66438   0.99171   0.94822   0.00000  Uiso   1.00
H81    H     0.55008   0.04958   0.30388   0.00000  Uiso   1.00
H82    H     0.00522   0.84554   0.10598   0.00000  Uiso   1.00
H83    H     0.61683   0.06738   0.81223   0.00000  Uiso   1.00
O84    O     0.53375   0.21411   0.38274   0.00000  Uiso   1.00
O85    O     0.13087   0.94642   0.12310   0.00000  Uiso   1.00
O86    O     0.62132   0.23746   0.73771   0.00000  Uiso   1.00
N87    N     0.61971   0.26883   0.29991   0.00000  Uiso   1.00
N88    N     0.04524   0.07807   0.11491   0.00000  Uiso   1.00
N89    N     0.68215   0.28546   0.84026   0.00000  Uiso   1.00
N90    N     0.57890   0.11261   0.29221   0.00000  Uiso   1.00
N91    N     0.00443   0.92184   0.10721   0.00000  Uiso   1.00
N92    N     0.64134   0.12923   0.83257   0.00000  Uiso   1.00
C93    C     0.28592   0.27544   0.91429   0.00000  Uiso   1.00
C94    C     0.23013   0.30142   0.85715   0.00000  Uiso   1.00
C95    C     0.20596   0.23623   0.80481   0.00000  Uiso   1.00
C96    C     0.15475   0.27442   0.75749   0.00000  Uiso   1.00
C97    C     0.07211   0.29958   0.66799   0.00000  Uiso   1.00
C98    C     0.34741   0.35400   0.90812   0.00000  Uiso   1.00
C99    C     0.42185   0.33301   0.89865   0.00000  Uiso   1.00
C100   C     0.46936   0.41546   0.89426   0.00000  Uiso   1.00
C101   C     0.56881   0.52225   0.88395   0.00000  Uiso   1.00
C102   C     0.24733   0.29683   0.98381   0.00000  Uiso   1.00
C103   C     0.23764   0.22780   0.03798   0.00000  Uiso   1.00
C104   C     0.20091   0.26213   0.09732   0.00000  Uiso   1.00
C105   C     0.14497   0.28016   0.20452   0.00000  Uiso   1.00
C106   C     0.23793   0.45917   0.92334   0.00000  Uiso   1.00
C107   C     0.20407   0.40121   0.86206   0.00000  Uiso   1.00
C108   C     0.15287   0.43950   0.81482   0.00000  Uiso   1.00
C109   C     0.12863   0.37438   0.76242   0.00000  Uiso   1.00
C110   C     0.32135   0.45378   0.91304   0.00000  Uiso   1.00
C111   C     0.36875   0.53628   0.90867   0.00000  Uiso   1.00
C112   C     0.44325   0.51544   0.89919   0.00000  Uiso   1.00
C113   C     0.22126   0.39662   0.98872   0.00000  Uiso   1.00
C114   C     0.18454   0.43107   0.04799   0.00000  Uiso   1.00
C115   C     0.17479   0.36210   0.10225   0.00000  Uiso   1.00
H116   H     0.30621   0.19776   0.91046   0.00000  Uiso   1.00
H117   H     0.22615   0.15901   0.80101   0.00000  Uiso   1.00
H118   H     0.44201   0.25578   0.89485   0.00000  Uiso   1.00
H119   H     0.25782   0.15058   0.03416   0.00000  Uiso   1.00
H120   H     0.12592   0.16008   0.68182   0.00000  Uiso   1.00
H121   H     0.58106   0.36412   0.87971   0.00000  Uiso   1.00
H122   H     0.19267   0.14228   0.17347   0.00000  Uiso   1.00
H123   H     0.21763   0.53686   0.92717   0.00000  Uiso   1.00
H124   H     0.13271   0.51673   0.81864   0.00000  Uiso   1.00
H125   H     0.34856   0.61350   0.91248   0.00000  Uiso   1.00
H126   H     0.16438   0.50829   0.05178   0.00000  Uiso   1.00
H127   H     0.05008   0.45042   0.69612   0.00000  Uiso   1.00
H128   H     0.50522   0.65446   0.89402   0.00000  Uiso   1.00
H129   H     0.11683   0.43262   0.18777   0.00000  Uiso   1.00
O130   O     0.03375   0.28589   0.61726   0.00000  Uiso   1.00
O131   O     0.63087   0.55358   0.87690   0.00000  Uiso   1.00
O132   O     0.12132   0.26254   0.26229   0.00000  Uiso   1.00
N133   N     0.11971   0.23117   0.70009   0.00000  Uiso   1.00
N134   N     0.54524   0.42193   0.88509   0.00000  Uiso   1.00
N135   N     0.18215   0.21454   0.15974   0.00000  Uiso   1.00
N136   N     0.07890   0.38739   0.70779   0.00000  Uiso   1.00
N137   N     0.50443   0.57816   0.89279   0.00000  Uiso   1.00
N138   N     0.14134   0.37077   0.16743   0.00000  Uiso   1.00
C139   C     0.21408   0.22456   0.41429   0.00000  Uiso   1.00
C140   C     0.26987   0.19858   0.35715   0.00000  Uiso   1.00
C141   C     0.29404   0.26377   0.30481   0.00000  Uiso   1.00
C142   C     0.34525   0.22558   0.25749   0.00000  Uiso   1.00
C143   C     0.42789   0.20042   0.16799   0.00000  Uiso   1.00
C144   C     0.15259   0.14600   0.40812   0.00000  Uiso   1.00
C145   C     0.07815   0.16699   0.39865   0.00000  Uiso   1.00
C146   C     0.03064   0.08454   0.39426   0.00000  Uiso   1.00
C147   C     0.93119   0.97775   0.38395   0.00000  Uiso   1.00
C148   C     0.25267   0.20317   0.48381   0.00000  Uiso   1.00
C149   C     0.26236   0.27220   0.53798   0.00000  Uiso   1.00
C150   C     0.29909   0.23787   0.59732   0.00000  Uiso   1.00
C151   C     0.35503   0.21984   0.70452   0.00000  Uiso   1.00
C152   C     0.26207   0.04083   0.42334   0.00000  Uiso   1.00
C153   C     0.29593   0.09879   0.36206   0.00000  Uiso   1.00
C154   C     0.34713   0.06050   0.31482   0.00000  Uiso   1.00
C155   C     0.37137   0.12562   0.26242   0.00000  Uiso   1.00
C156   C     0.17865   0.04622   0.41304   0.00000  Uiso   1.00
C157   C     0.13125   0.96372   0.40867   0.00000  Uiso   1.00
C158   C     0.05675   0.98456   0.39919   0.00000  Uiso   1.00
C159   C     0.27874   0.10338   0.48872   0.00000  Uiso   1.00
C160   C     0.31546   0.06893   0.54799   0.00000  Uiso   1.00
C161   C     0.32521   0.13790   0.60225   0.00000  Uiso   1.00
H162   H     0.19379   0.30224   0.41046   0.00000  Uiso   1.00
H163   H     0.27385   0.34099   0.30101   0.00000  Uiso   1.00
H164   H     0.05799   0.24422   0.39485   0.00000  Uiso   1.00
H165   H     0.24218   0.34942   0.53416   0.00000  Uiso   1.00
H166   H     0.37408   0.33992   0.18182   0.00000  Uiso   1.00
H167   H     0.91894   0.13588   0.37971   0.00000  Uiso   1.00
H168   H     0.30733   0.35772   0.67347   0.00000  Uiso   1.00
H169   H     0.28237   0.96314   0.42717   0.00000  Uiso   1.00
H170   H     0.36729   0.98327   0.31864   0.00000  Uiso   1.00
H171   H     0.15144   0.88650   0.41248   0.00000  Uiso   1.00
H172   H     0.33562   0.99171   0.55178   0.00000  Uiso   1.00
H173   H     0.44992   0.04958   0.19612   0.00000  Uiso   1.00
H174   H     0.99478   0.84554   0.39402   0.00000  Uiso   1.00
H175   H     0.38317   0.06738   0.68777   0.00000  Uiso   1.00
O176   O     0.46625   0.21411   0.11726   0.00000  Uiso   1.00
O177   O     0.86913   0.94642   0.37690   0.00000  Uiso   1.00
O178   O     0.37868   0.23746   0.76229   0.00000  Uiso   1.00
N179   N     0.38029   0.26883   0.20009   0.00000  Uiso   1.00
N180   N     0.95476   0.07807   0.38509   0.00000  Uiso   1.00
N181   N     0.31785   0.28546   0.65974   0.00000  Uiso   1.00
N182   N     0.42110   0.11261   0.20779   0.00000  Uiso   1.00
N183   N     0.99557   0.92184   0.39279   0.00000  Uiso   1.00
N184   N     0.35866   0.12923   0.66743   0.00000  Uiso   1.00
C185   C     0.28592   0.72456   0.41429   0.00000  Uiso   1.00
C186   C     0.23013   0.69858   0.35715   0.00000  Uiso   1.00
C187   C     0.20596   0.76377   0.30481   0.00000  Uiso   1.00
C188   C     0.15475   0.72558   0.25749   0.00000  Uiso   1.00
C189   C     0.07211   0.70042   0.16799   0.00000  Uiso   1.00
C190   C     0.34741   0.64600   0.40812   0.00000  Uiso   1.00
C191   C     0.42185   0.66699   0.39865   0.00000  Uiso   1.00
C192   C     0.46936   0.58454   0.39426   0.00000  Uiso   1.00
C193   C     0.56881   0.47775   0.38395   0.00000  Uiso   1.00
C194   C     0.24733   0.70317   0.48381   0.00000  Uiso   1.00
C195   C     0.23764   0.77220   0.53798   0.00000  Uiso   1.00
C196   C     0.20091   0.73787   0.59732   0.00000  Uiso   1.00
C197   C     0.14497   0.71984   0.70452   0.00000  Uiso   1.00
C198   C     0.23793   0.54083   0.42334   0.00000  Uiso   1.00
C199   C     0.20407   0.59879   0.36206   0.00000  Uiso   1.00
C200   C     0.15287   0.56050   0.31482   0.00000  Uiso   1.00
C201   C     0.12863   0.62562   0.26242   0.00000  Uiso   1.00
C202   C     0.32135   0.54622   0.41304   0.00000  Uiso   1.00
C203   C     0.36875   0.46372   0.40867   0.00000  Uiso   1.00
C204   C     0.44325   0.48456   0.39919   0.00000  Uiso   1.00
C205   C     0.22126   0.60338   0.48872   0.00000  Uiso   1.00
C206   C     0.18454   0.56893   0.54799   0.00000  Uiso   1.00
C207   C     0.17479   0.63790   0.60225   0.00000  Uiso   1.00
H208   H     0.30621   0.80224   0.41046   0.00000  Uiso   1.00
H209   H     0.22615   0.84099   0.30101   0.00000  Uiso   1.00
H210   H     0.44201   0.74422   0.39485   0.00000  Uiso   1.00
H211   H     0.25782   0.84942   0.53416   0.00000  Uiso   1.00
H212   H     0.12592   0.83992   0.18182   0.00000  Uiso   1.00
H213   H     0.58106   0.63588   0.37971   0.00000  Uiso   1.00
H214   H     0.19267   0.85772   0.67347   0.00000  Uiso   1.00
H215   H     0.21763   0.46314   0.42717   0.00000  Uiso   1.00
H216   H     0.13271   0.48327   0.31864   0.00000  Uiso   1.00
H217   H     0.34856   0.38650   0.41248   0.00000  Uiso   1.00
H218   H     0.16438   0.49171   0.55178   0.00000  Uiso   1.00
H219   H     0.05008   0.54958   0.19612   0.00000  Uiso   1.00
H220   H     0.50522   0.34554   0.39402   0.00000  Uiso   1.00
H221   H     0.11683   0.56738   0.68777   0.00000  Uiso   1.00
O222   O     0.03375   0.71411   0.11726   0.00000  Uiso   1.00
O223   O     0.63087   0.44642   0.37690   0.00000  Uiso   1.00
O224   O     0.12132   0.73746   0.76229   0.00000  Uiso   1.00
N225   N     0.11971   0.76883   0.20009   0.00000  Uiso   1.00
N226   N     0.54524   0.57807   0.38509   0.00000  Uiso   1.00
N227   N     0.18215   0.78546   0.65974   0.00000  Uiso   1.00
N228   N     0.07890   0.61261   0.20779   0.00000  Uiso   1.00
N229   N     0.50443   0.42184   0.39279   0.00000  Uiso   1.00
N230   N     0.14134   0.62923   0.66743   0.00000  Uiso   1.00
C231   C     0.21408   0.77544   0.91429   0.00000  Uiso   1.00
C232   C     0.26987   0.80142   0.85715   0.00000  Uiso   1.00
C233   C     0.29404   0.73623   0.80481   0.00000  Uiso   1.00
C234   C     0.34525   0.77442   0.75749   0.00000  Uiso   1.00
C235   C     0.42789   0.79958   0.66799   0.00000  Uiso   1.00
C236   C     0.15259   0.85400   0.90812   0.00000  Uiso   1.00
C237   C     0.07815   0.83301   0.89865   0.00000  Uiso   1.00
C238   C     0.03064   0.91546   0.89426   0.00000  Uiso   1.00
C239   C     0.93119   0.02225   0.88395   0.00000  Uiso   1.00
C240   C     0.25267   0.79683   0.98381   0.00000  Uiso   1.00
C241   C     0.26236   0.72780   0.03798   0.00000  Uiso   1.00
C242   C     0.29909   0.76213   0.09732   0.00000  Uiso   1.00
C243   C     0.35503   0.78016   0.20452   0.00000  Uiso   1.00
C244   C     0.26207   0.95917   0.92334   0.00000  Uiso   1.00
C245   C     0.29593   0.90121   0.86206   0.00000  Uiso   1.00
C246   C     0.34713   0.93950   0.81482   0.00000  Uiso   1.00
C247   C     0.37137   0.87438   0.76242   0.00000  Uiso   1.00
C248   C     0.17865   0.95378   0.91304   0.00000  Uiso   1.00
C249   C     0.13125   0.03628   0.90867   0.00000  Uiso   1.00
C250   C     0.05675   0.01544   0.89919   0.00000  Uiso   1.00
C251   C     0.27874   0.89662   0.98872   0.00000  Uiso   1.00
C252   C     0.31546   0.93107   0.04799   0.00000  Uiso   1.00
C253   C     0.32521   0.86210   0.10225   0.00000  Uiso   1.00
H254   H     0.19379   0.69776   0.91046   0.00000  Uiso   1.00
H255   H     0.27385   0.65901   0.80101   0.00000  Uiso   1.00
H256   H     0.05799   0.75578   0.89485   0.00000  Uiso   1.00
H257   H     0.24218   0.65058   0.03416   0.00000  Uiso   1.00
H258   H     0.37408   0.66008   0.68182   0.00000  Uiso   1.00
H259   H     0.91894   0.86412   0.87971   0.00000  Uiso   1.00
H260   H     0.30733   0.64228   0.17347   0.00000  Uiso   1.00
H261   H     0.28237   0.03686   0.92717   0.00000  Uiso   1.00
H262   H     0.36729   0.01673   0.81864   0.00000  Uiso   1.00
H263   H     0.15144   0.11350   0.91248   0.00000  Uiso   1.00
H264   H     0.33562   0.00829   0.05178   0.00000  Uiso   1.00
H265   H     0.44992   0.95042   0.69612   0.00000  Uiso   1.00
H266   H     0.99478   0.15446   0.89402   0.00000  Uiso   1.00
H267   H     0.38317   0.93262   0.18777   0.00000  Uiso   1.00
O268   O     0.46625   0.78589   0.61726   0.00000  Uiso   1.00
O269   O     0.86913   0.05358   0.87690   0.00000  Uiso   1.00
O270   O     0.37868   0.76254   0.26229   0.00000  Uiso   1.00
N271   N     0.38029   0.73117   0.70009   0.00000  Uiso   1.00
N272   N     0.95476   0.92193   0.88509   0.00000  Uiso   1.00
N273   N     0.31785   0.71454   0.15974   0.00000  Uiso   1.00
N274   N     0.42110   0.88739   0.70779   0.00000  Uiso   1.00
N275   N     0.99557   0.07816   0.89279   0.00000  Uiso   1.00
N276   N     0.35866   0.87077   0.16743   0.00000  Uiso   1.00
C277   C     0.71408   0.72456   0.08571   0.00000  Uiso   1.00
C278   C     0.76987   0.69858   0.14285   0.00000  Uiso   1.00
C279   C     0.79404   0.76377   0.19519   0.00000  Uiso   1.00
C280   C     0.84525   0.72558   0.24251   0.00000  Uiso   1.00
C281   C     0.92789   0.70042   0.33201   0.00000  Uiso   1.00
C282   C     0.65259   0.64600   0.09188   0.00000  Uiso   1.00
C283   C     0.57815   0.66699   0.10135   0.00000  Uiso   1.00
C284   C     0.53064   0.58454   0.10574   0.00000  Uiso   1.00
C285   C     0.43119   0.47775   0.11605   0.00000  Uiso   1.00
C286   C     0.75267   0.70317   0.01619   0.00000  Uiso   1.00
C287   C     0.76236   0.77220   0.96202   0.00000  Uiso   1.00
C288   C     0.79909   0.73787   0.90268   0.00000  Uiso   1.00
C289   C     0.85503   0.71984   0.79548   0.00000  Uiso   1.00
C290   C     0.76207   0.54083   0.07666   0.00000  Uiso   1.00
C291   C     0.79593   0.59879   0.13794   0.00000  Uiso   1.00
C292   C     0.84713   0.56050   0.18518   0.00000  Uiso   1.00
C293   C     0.87137   0.62562   0.23758   0.00000  Uiso   1.00
C294   C     0.67865   0.54622   0.08696   0.00000  Uiso   1.00
C295   C     0.63125   0.46372   0.09133   0.00000  Uiso   1.00
C296   C     0.55675   0.48456   0.10081   0.00000  Uiso   1.00
C297   C     0.77874   0.60338   0.01128   0.00000  Uiso   1.00
C298   C     0.81546   0.56893   0.95201   0.00000  Uiso   1.00
C299   C     0.82521   0.63790   0.89775   0.00000  Uiso   1.00
H300   H     0.69379   0.80224   0.08954   0.00000  Uiso   1.00
H301   H     0.77385   0.84099   0.19899   0.00000  Uiso   1.00
H302   H     0.55799   0.74422   0.10515   0.00000  Uiso   1.00
H303   H     0.74218   0.84942   0.96584   0.00000  Uiso   1.00
H304   H     0.87408   0.83992   0.31818   0.00000  Uiso   1.00
H305   H     0.41894   0.63588   0.12029   0.00000  Uiso   1.00
H306   H     0.80733   0.85772   0.82653   0.00000  Uiso   1.00
H307   H     0.78237   0.46314   0.07283   0.00000  Uiso   1.00
H308   H     0.86729   0.48327   0.18136   0.00000  Uiso   1.00
H309   H     0.65144   0.38650   0.08752   0.00000  Uiso   1.00
H310   H     0.83562   0.49171   0.94822   0.00000  Uiso   1.00
H311   H     0.94992   0.54958   0.30388   0.00000  Uiso   1.00
H312   H     0.49478   0.34554   0.10598   0.00000  Uiso   1.00
H313   H     0.88317   0.56738   0.81223   0.00000  Uiso   1.00
O314   O     0.96625   0.71411   0.38274   0.00000  Uiso   1.00
O315   O     0.36913   0.44642   0.12310   0.00000  Uiso   1.00
O316   O     0.87868   0.73746   0.73771   0.00000  Uiso   1.00
N317   N     0.88029   0.76883   0.29991   0.00000  Uiso   1.00
N318   N     0.45476   0.57807   0.11491   0.00000  Uiso   1.00
N319   N     0.81785   0.78546   0.84026   0.00000  Uiso   1.00
N320   N     0.92110   0.61261   0.29221   0.00000  Uiso   1.00
N321   N     0.49557   0.42184   0.10721   0.00000  Uiso   1.00
N322   N     0.85866   0.62923   0.83257   0.00000  Uiso   1.00
C323   C     0.78592   0.77544   0.58571   0.00000  Uiso   1.00
C324   C     0.73013   0.80142   0.64285   0.00000  Uiso   1.00
C325   C     0.70596   0.73623   0.69519   0.00000  Uiso   1.00
C326   C     0.65475   0.77442   0.74251   0.00000  Uiso   1.00
C327   C     0.57211   0.79958   0.83201   0.00000  Uiso   1.00
C328   C     0.84741   0.85400   0.59188   0.00000  Uiso   1.00
C329   C     0.92185   0.83301   0.60135   0.00000  Uiso   1.00
C330   C     0.96936   0.91546   0.60574   0.00000  Uiso   1.00
C331   C     0.06881   0.02225   0.61605   0.00000  Uiso   1.00
C332   C     0.74733   0.79683   0.51619   0.00000  Uiso   1.00
C333   C     0.73764   0.72780   0.46202   0.00000  Uiso   1.00
C334   C     0.70091   0.76213   0.40268   0.00000  Uiso   1.00
C335   C     0.64497   0.78016   0.29548   0.00000  Uiso   1.00
C336   C     0.73793   0.95917   0.57666   0.00000  Uiso   1.00
C337   C     0.70407   0.90121   0.63794   0.00000  Uiso   1.00
C338   C     0.65287   0.93950   0.68518   0.00000  Uiso   1.00
C339   C     0.62863   0.87438   0.73758   0.00000  Uiso   1.00
C340   C     0.82135   0.95378   0.58696   0.00000  Uiso   1.00
C341   C     0.86875   0.03628   0.59133   0.00000  Uiso   1.00
C342   C     0.94325   0.01544   0.60081   0.00000  Uiso   1.00
C343   C     0.72126   0.89662   0.51128   0.00000  Uiso   1.00
C344   C     0.68454   0.93107   0.45201   0.00000  Uiso   1.00
C345   C     0.67479   0.86210   0.39775   0.00000  Uiso   1.00
H346   H     0.80621   0.69776   0.58954   0.00000  Uiso   1.00
H347   H     0.72615   0.65901   0.69899   0.00000  Uiso   1.00
H348   H     0.94201   0.75578   0.60515   0.00000  Uiso   1.00
H349   H     0.75782   0.65058   0.46584   0.00000  Uiso   1.00
H350   H     0.62592   0.66008   0.81818   0.00000  Uiso   1.00
H351   H     0.08106   0.86412   0.62029   0.00000  Uiso   1.00
H352   H     0.69267   0.64228   0.32653   0.00000  Uiso   1.00
H353   H     0.71763   0.03686   0.57283   0.00000  Uiso   1.00
H354   H     0.63271   0.01673   0.68136   0.00000  Uiso   1.00
H355   H     0.84856   0.11350   0.58752   0.00000  Uiso   1.00
H356   H     0.66438   0.00829   0.44822   0.00000  Uiso   1.00
H357   H     0.55008   0.95042   0.80388   0.00000  Uiso   1.00
H358   H     0.00522   0.15446   0.60598   0.00000  Uiso   1.00
H359   H     0.61683   0.93262   0.31223   0.00000  Uiso   1.00
O360   O     0.53375   0.78589   0.88274   0.00000  Uiso   1.00
O361   O     0.13087   0.05358   0.62310   0.00000  Uiso   1.00
O362   O     0.62132   0.76254   0.23771   0.00000  Uiso   1.00
N363   N     0.61971   0.73117   0.79991   0.00000  Uiso   1.00
N364   N     0.04524   0.92193   0.61491   0.00000  Uiso   1.00
N365   N     0.68215   0.71454   0.34026   0.00000  Uiso   1.00
N366   N     0.57890   0.88739   0.79221   0.00000  Uiso   1.00
N367   N     0.00443   0.07816   0.60721   0.00000  Uiso   1.00
N368   N     0.64134   0.87077   0.33257   0.00000  Uiso   1.00
