data_job_00636
_audit_creation_date              2018-12-19
_audit_creation_method            'Materials Studio'
_symmetry_space_group_name_H-M    'P1'
_symmetry_Int_Tables_number       1
_symmetry_cell_setting            triclinic
loop_
_symmetry_equiv_pos_as_xyz
  x,y,z
_cell_length_a                    19.6199
_cell_length_b                    7.9449
_cell_length_c                    17.2559
_cell_angle_alpha                 90.0000
_cell_angle_beta                  67.6079
_cell_angle_gamma                 90.0000
loop_
_atom_site_label
_atom_site_type_symbol
_atom_site_fract_x
_atom_site_fract_y
_atom_site_fract_z
_atom_site_U_iso_or_equiv
_atom_site_adp_type
_atom_site_occupancy
C1     C     0.77489   0.17374   0.10623   0.00000  Uiso   1.00
C2     C     0.84819   0.18351   0.11752   0.00000  Uiso   1.00
C3     C     0.89672   0.05081   0.10798   0.00000  Uiso   1.00
C4     C     0.96087   0.08544   0.12107   0.00000  Uiso   1.00
C5     C     0.07238   0.07601   0.13533   0.00000  Uiso   1.00
C6     C     0.71651   0.23590   0.18829   0.00000  Uiso   1.00
C7     C     0.65433   0.14725   0.23824   0.00000  Uiso   1.00
C8     C     0.60763   0.22600   0.31090   0.00000  Uiso   1.00
C9     C     0.51467   0.29796   0.43499   0.00000  Uiso   1.00
C10    C     0.77891   0.30567   0.04045   0.00000  Uiso   1.00
C11    C     0.76918   0.27571   0.96609   0.00000  Uiso   1.00
C12    C     0.77500   0.41321   0.91428   0.00000  Uiso   1.00
C13    C     0.77893   0.59349   0.80882   0.00000  Uiso   1.00
C14    C     0.80252   0.47122   0.14645   0.00000  Uiso   1.00
C15    C     0.86319   0.34509   0.13937   0.00000  Uiso   1.00
C16    C     0.92729   0.37993   0.15248   0.00000  Uiso   1.00
C17    C     0.97591   0.24731   0.14296   0.00000  Uiso   1.00
C18    C     0.73151   0.39747   0.21014   0.00000  Uiso   1.00
C19    C     0.68489   0.47637   0.28274   0.00000  Uiso   1.00
C20    C     0.62266   0.38787   0.33279   0.00000  Uiso   1.00
C21    C     0.79392   0.46725   0.06229   0.00000  Uiso   1.00
C22    C     0.79974   0.60482   0.01059   0.00000  Uiso   1.00
C23    C     0.79002   0.57507   0.93617   0.00000  Uiso   1.00
H24    H     0.76321   0.04795   0.08922   0.00000  Uiso   1.00
H25    H     0.88509   0.92578   0.09108   0.00000  Uiso   1.00
H26    H     0.64273   0.02223   0.22131   0.00000  Uiso   1.00
H27    H     0.75757   0.15065   0.94921   0.00000  Uiso   1.00
H28    H     0.02682   0.86158   0.10280   0.00000  Uiso   1.00
H29    H     0.51577   0.06496   0.37739   0.00000  Uiso   1.00
H30    H     0.75793   0.33577   0.80360   0.00000  Uiso   1.00
H31    H     0.81420   0.59702   0.16346   0.00000  Uiso   1.00
H32    H     0.93888   0.50498   0.16939   0.00000  Uiso   1.00
H33    H     0.69651   0.60141   0.29962   0.00000  Uiso   1.00
H34    H     0.81135   0.72984   0.02752   0.00000  Uiso   1.00
H35    H     0.07048   0.33168   0.16636   0.00000  Uiso   1.00
H36    H     0.55943   0.53505   0.44095   0.00000  Uiso   1.00
H37    H     0.80159   0.80586   0.86716   0.00000  Uiso   1.00
O38    O     0.12974   0.02617   0.13717   0.00000  Uiso   1.00
O39    O     0.45926   0.29299   0.49741   0.00000  Uiso   1.00
O40    O     0.77696   0.64829   0.74461   0.00000  Uiso   1.00
N41    N     0.01999   0.98486   0.11693   0.00000  Uiso   1.00
N42    N     0.54220   0.17499   0.37366   0.00000  Uiso   1.00
N43    N     0.76857   0.42818   0.83723   0.00000  Uiso   1.00
N44    N     0.04348   0.23781   0.15113   0.00000  Uiso   1.00
N45    N     0.56569   0.42794   0.40786   0.00000  Uiso   1.00
N46    N     0.79207   0.68114   0.87143   0.00000  Uiso   1.00
C47    C     0.22511   0.67374   0.39377   0.00000  Uiso   1.00
C48    C     0.15181   0.68351   0.38248   0.00000  Uiso   1.00
C49    C     0.10328   0.55081   0.39202   0.00000  Uiso   1.00
C50    C     0.03913   0.58544   0.37893   0.00000  Uiso   1.00
C51    C     0.92762   0.57601   0.36467   0.00000  Uiso   1.00
C52    C     0.28349   0.73590   0.31171   0.00000  Uiso   1.00
C53    C     0.34567   0.64725   0.26176   0.00000  Uiso   1.00
C54    C     0.39237   0.72600   0.18910   0.00000  Uiso   1.00
C55    C     0.48533   0.79796   0.06501   0.00000  Uiso   1.00
C56    C     0.22109   0.80567   0.45955   0.00000  Uiso   1.00
C57    C     0.23082   0.77571   0.53391   0.00000  Uiso   1.00
C58    C     0.22500   0.91321   0.58572   0.00000  Uiso   1.00
C59    C     0.22107   0.09349   0.69118   0.00000  Uiso   1.00
C60    C     0.19748   0.97122   0.35355   0.00000  Uiso   1.00
C61    C     0.13681   0.84509   0.36063   0.00000  Uiso   1.00
C62    C     0.07271   0.87993   0.34752   0.00000  Uiso   1.00
C63    C     0.02409   0.74731   0.35704   0.00000  Uiso   1.00
C64    C     0.26849   0.89747   0.28986   0.00000  Uiso   1.00
C65    C     0.31511   0.97637   0.21726   0.00000  Uiso   1.00
C66    C     0.37734   0.88787   0.16721   0.00000  Uiso   1.00
C67    C     0.20608   0.96725   0.43771   0.00000  Uiso   1.00
C68    C     0.20026   0.10482   0.48941   0.00000  Uiso   1.00
C69    C     0.20998   0.07507   0.56383   0.00000  Uiso   1.00
H70    H     0.23679   0.54795   0.41078   0.00000  Uiso   1.00
H71    H     0.11491   0.42578   0.40892   0.00000  Uiso   1.00
H72    H     0.35727   0.52223   0.27869   0.00000  Uiso   1.00
H73    H     0.24243   0.65065   0.55079   0.00000  Uiso   1.00
H74    H     0.97318   0.36158   0.39720   0.00000  Uiso   1.00
H75    H     0.48423   0.56496   0.12261   0.00000  Uiso   1.00
H76    H     0.24207   0.83577   0.69640   0.00000  Uiso   1.00
H77    H     0.18580   0.09702   0.33654   0.00000  Uiso   1.00
H78    H     0.06112   0.00498   0.33061   0.00000  Uiso   1.00
H79    H     0.30349   0.10141   0.20038   0.00000  Uiso   1.00
H80    H     0.18865   0.22984   0.47248   0.00000  Uiso   1.00
H81    H     0.92952   0.83168   0.33364   0.00000  Uiso   1.00
H82    H     0.44057   0.03505   0.05905   0.00000  Uiso   1.00
H83    H     0.19841   0.30586   0.63284   0.00000  Uiso   1.00
O84    O     0.87026   0.52617   0.36283   0.00000  Uiso   1.00
O85    O     0.54074   0.79299   0.00259   0.00000  Uiso   1.00
O86    O     0.22304   0.14829   0.75539   0.00000  Uiso   1.00
N87    N     0.98001   0.48486   0.38307   0.00000  Uiso   1.00
N88    N     0.45780   0.67499   0.12634   0.00000  Uiso   1.00
N89    N     0.23143   0.92818   0.66277   0.00000  Uiso   1.00
N90    N     0.95652   0.73781   0.34887   0.00000  Uiso   1.00
N91    N     0.43431   0.92794   0.09214   0.00000  Uiso   1.00
N92    N     0.20793   0.18114   0.62857   0.00000  Uiso   1.00
C93    C     0.22511   0.82626   0.89377   0.00000  Uiso   1.00
C94    C     0.15181   0.81649   0.88248   0.00000  Uiso   1.00
C95    C     0.10328   0.94919   0.89202   0.00000  Uiso   1.00
C96    C     0.03913   0.91456   0.87893   0.00000  Uiso   1.00
C97    C     0.92762   0.92399   0.86467   0.00000  Uiso   1.00
C98    C     0.28349   0.76410   0.81171   0.00000  Uiso   1.00
C99    C     0.34567   0.85275   0.76176   0.00000  Uiso   1.00
C100   C     0.39237   0.77400   0.68910   0.00000  Uiso   1.00
C101   C     0.48533   0.70204   0.56501   0.00000  Uiso   1.00
C102   C     0.22109   0.69433   0.95955   0.00000  Uiso   1.00
C103   C     0.23082   0.72429   0.03391   0.00000  Uiso   1.00
C104   C     0.22500   0.58679   0.08572   0.00000  Uiso   1.00
C105   C     0.22107   0.40651   0.19118   0.00000  Uiso   1.00
C106   C     0.19748   0.52878   0.85355   0.00000  Uiso   1.00
C107   C     0.13681   0.65491   0.86063   0.00000  Uiso   1.00
C108   C     0.07271   0.62007   0.84752   0.00000  Uiso   1.00
C109   C     0.02409   0.75269   0.85704   0.00000  Uiso   1.00
C110   C     0.26849   0.60253   0.78986   0.00000  Uiso   1.00
C111   C     0.31511   0.52363   0.71726   0.00000  Uiso   1.00
C112   C     0.37734   0.61213   0.66721   0.00000  Uiso   1.00
C113   C     0.20608   0.53275   0.93771   0.00000  Uiso   1.00
C114   C     0.20026   0.39518   0.98941   0.00000  Uiso   1.00
C115   C     0.20998   0.42493   0.06383   0.00000  Uiso   1.00
H116   H     0.23679   0.95205   0.91078   0.00000  Uiso   1.00
H117   H     0.11491   0.07422   0.90892   0.00000  Uiso   1.00
H118   H     0.35727   0.97777   0.77869   0.00000  Uiso   1.00
H119   H     0.24243   0.84935   0.05079   0.00000  Uiso   1.00
H120   H     0.97318   0.13842   0.89720   0.00000  Uiso   1.00
H121   H     0.48423   0.93504   0.62261   0.00000  Uiso   1.00
H122   H     0.24207   0.66423   0.19640   0.00000  Uiso   1.00
H123   H     0.18580   0.40298   0.83654   0.00000  Uiso   1.00
H124   H     0.06112   0.49502   0.83061   0.00000  Uiso   1.00
H125   H     0.30349   0.39859   0.70038   0.00000  Uiso   1.00
H126   H     0.18865   0.27016   0.97248   0.00000  Uiso   1.00
H127   H     0.92952   0.66832   0.83364   0.00000  Uiso   1.00
H128   H     0.44057   0.46495   0.55905   0.00000  Uiso   1.00
H129   H     0.19841   0.19414   0.13284   0.00000  Uiso   1.00
O130   O     0.87026   0.97383   0.86283   0.00000  Uiso   1.00
O131   O     0.54074   0.70701   0.50259   0.00000  Uiso   1.00
O132   O     0.22304   0.35171   0.25539   0.00000  Uiso   1.00
N133   N     0.98001   0.01514   0.88307   0.00000  Uiso   1.00
N134   N     0.45780   0.82501   0.62634   0.00000  Uiso   1.00
N135   N     0.23143   0.57182   0.16277   0.00000  Uiso   1.00
N136   N     0.95652   0.76219   0.84887   0.00000  Uiso   1.00
N137   N     0.43431   0.57206   0.59214   0.00000  Uiso   1.00
N138   N     0.20793   0.31886   0.12857   0.00000  Uiso   1.00
C139   C     0.77489   0.32626   0.60623   0.00000  Uiso   1.00
C140   C     0.84819   0.31649   0.61752   0.00000  Uiso   1.00
C141   C     0.89672   0.44919   0.60798   0.00000  Uiso   1.00
C142   C     0.96087   0.41456   0.62107   0.00000  Uiso   1.00
C143   C     0.07238   0.42399   0.63533   0.00000  Uiso   1.00
C144   C     0.71651   0.26410   0.68829   0.00000  Uiso   1.00
C145   C     0.65433   0.35275   0.73824   0.00000  Uiso   1.00
C146   C     0.60763   0.27400   0.81090   0.00000  Uiso   1.00
C147   C     0.51467   0.20204   0.93499   0.00000  Uiso   1.00
C148   C     0.77891   0.19433   0.54045   0.00000  Uiso   1.00
C149   C     0.76918   0.22429   0.46609   0.00000  Uiso   1.00
C150   C     0.77500   0.08679   0.41428   0.00000  Uiso   1.00
C151   C     0.77893   0.90651   0.30882   0.00000  Uiso   1.00
C152   C     0.80252   0.02878   0.64645   0.00000  Uiso   1.00
C153   C     0.86319   0.15491   0.63937   0.00000  Uiso   1.00
C154   C     0.92729   0.12007   0.65248   0.00000  Uiso   1.00
C155   C     0.97591   0.25269   0.64296   0.00000  Uiso   1.00
C156   C     0.73151   0.10253   0.71014   0.00000  Uiso   1.00
C157   C     0.68489   0.02363   0.78274   0.00000  Uiso   1.00
C158   C     0.62266   0.11213   0.83279   0.00000  Uiso   1.00
C159   C     0.79392   0.03275   0.56229   0.00000  Uiso   1.00
C160   C     0.79974   0.89518   0.51059   0.00000  Uiso   1.00
C161   C     0.79002   0.92493   0.43617   0.00000  Uiso   1.00
H162   H     0.76321   0.45205   0.58922   0.00000  Uiso   1.00
H163   H     0.88509   0.57422   0.59108   0.00000  Uiso   1.00
H164   H     0.64273   0.47777   0.72131   0.00000  Uiso   1.00
H165   H     0.75757   0.34935   0.44921   0.00000  Uiso   1.00
H166   H     0.02682   0.63842   0.60280   0.00000  Uiso   1.00
H167   H     0.51577   0.43504   0.87739   0.00000  Uiso   1.00
H168   H     0.75793   0.16423   0.30360   0.00000  Uiso   1.00
H169   H     0.81420   0.90298   0.66346   0.00000  Uiso   1.00
H170   H     0.93888   0.99502   0.66939   0.00000  Uiso   1.00
H171   H     0.69651   0.89859   0.79962   0.00000  Uiso   1.00
H172   H     0.81135   0.77016   0.52752   0.00000  Uiso   1.00
H173   H     0.07048   0.16832   0.66636   0.00000  Uiso   1.00
H174   H     0.55943   0.96495   0.94095   0.00000  Uiso   1.00
H175   H     0.80159   0.69414   0.36716   0.00000  Uiso   1.00
O176   O     0.12974   0.47383   0.63717   0.00000  Uiso   1.00
O177   O     0.45926   0.20701   0.99741   0.00000  Uiso   1.00
O178   O     0.77696   0.85171   0.24461   0.00000  Uiso   1.00
N179   N     0.01999   0.51514   0.61693   0.00000  Uiso   1.00
N180   N     0.54220   0.32501   0.87366   0.00000  Uiso   1.00
N181   N     0.76857   0.07182   0.33723   0.00000  Uiso   1.00
N182   N     0.04348   0.26219   0.65113   0.00000  Uiso   1.00
N183   N     0.56569   0.07206   0.90786   0.00000  Uiso   1.00
N184   N     0.79207   0.81886   0.37143   0.00000  Uiso   1.00
