data_job_04525
_audit_creation_date              2018-12-19
_audit_creation_method            'Materials Studio'
_symmetry_space_group_name_H-M    'P1'
_symmetry_Int_Tables_number       1
_symmetry_cell_setting            triclinic
loop_
_symmetry_equiv_pos_as_xyz
  x,y,z
_cell_length_a                    24.4904
_cell_length_b                    12.2962
_cell_length_c                    16.6228
_cell_angle_alpha                 89.5418
_cell_angle_beta                  89.2371
_cell_angle_gamma                 92.8787
loop_
_atom_site_label
_atom_site_type_symbol
_atom_site_fract_x
_atom_site_fract_y
_atom_site_fract_z
_atom_site_U_iso_or_equiv
_atom_site_adp_type
_atom_site_occupancy
C1     C     0.32098   0.63026   0.91259   0.00000  Uiso   1.00
C2     C     0.30399   0.65442   0.82661   0.00000  Uiso   1.00
C3     C     0.25130   0.64220   0.79716   0.00000  Uiso   1.00
C4     C     0.24419   0.66862   0.71675   0.00000  Uiso   1.00
C5     C     0.21111   0.70040   0.59071   0.00000  Uiso   1.00
C6     C     0.36548   0.54824   0.90598   0.00000  Uiso   1.00
C7     C     0.36448   0.44676   0.94328   0.00000  Uiso   1.00
C8     C     0.40914   0.38381   0.92968   0.00000  Uiso   1.00
C9     C     0.47154   0.25079   0.92691   0.00000  Uiso   1.00
C10    C     0.34905   0.73515   0.94319   0.00000  Uiso   1.00
C11    C     0.33426   0.79081   0.01178   0.00000  Uiso   1.00
C12    C     0.36509   0.88521   0.02951   0.00000  Uiso   1.00
C13    C     0.40198   0.04238   0.08451   0.00000  Uiso   1.00
C14    C     0.40206   0.69890   0.82214   0.00000  Uiso   1.00
C15    C     0.34803   0.69170   0.77749   0.00000  Uiso   1.00
C16    C     0.34100   0.71815   0.69709   0.00000  Uiso   1.00
C17    C     0.28831   0.70597   0.66753   0.00000  Uiso   1.00
C18    C     0.40952   0.58552   0.85686   0.00000  Uiso   1.00
C19    C     0.45419   0.52271   0.84320   0.00000  Uiso   1.00
C20    C     0.45326   0.42116   0.88046   0.00000  Uiso   1.00
C21    C     0.39309   0.77244   0.89406   0.00000  Uiso   1.00
C22    C     0.42396   0.86676   0.91170   0.00000  Uiso   1.00
C23    C     0.40921   0.92255   0.98030   0.00000  Uiso   1.00
H24    H     0.28670   0.60123   0.95084   0.00000  Uiso   1.00
H25    H     0.21723   0.61334   0.83520   0.00000  Uiso   1.00
H26    H     0.33040   0.41794   0.98130   0.00000  Uiso   1.00
H27    H     0.30017   0.76193   0.04978   0.00000  Uiso   1.00
H28    H     0.15963   0.64316   0.68532   0.00000  Uiso   1.00
H29    H     0.39827   0.23117   0.99340   0.00000  Uiso   1.00
H30    H     0.33453   0.95655   0.13781   0.00000  Uiso   1.00
H31    H     0.43635   0.72793   0.78389   0.00000  Uiso   1.00
H32    H     0.37509   0.74699   0.65909   0.00000  Uiso   1.00
H33    H     0.48826   0.55159   0.80519   0.00000  Uiso   1.00
H34    H     0.45803   0.89558   0.87367   0.00000  Uiso   1.00
H35    H     0.28776   0.75164   0.54238   0.00000  Uiso   1.00
H36    H     0.52640   0.33965   0.85046   0.00000  Uiso   1.00
H37    H     0.46266   0.06502   0.99487   0.00000  Uiso   1.00
O38    O     0.18070   0.70762   0.53476   0.00000  Uiso   1.00
O39    O     0.49378   0.16711   0.93896   0.00000  Uiso   1.00
O40    O     0.41016   0.11879   0.12842   0.00000  Uiso   1.00
N41    N     0.19819   0.66610   0.66881   0.00000  Uiso   1.00
N42    N     0.42130   0.28090   0.95683   0.00000  Uiso   1.00
N43    N     0.36172   0.95905   0.09186   0.00000  Uiso   1.00
N44    N     0.26714   0.72447   0.59190   0.00000  Uiso   1.00
N45    N     0.49024   0.33927   0.87992   0.00000  Uiso   1.00
N46    N     0.43066   0.01742   0.01494   0.00000  Uiso   1.00
C47    C     0.32360   0.27085   0.56796   0.00000  Uiso   1.00
C48    C     0.30839   0.24315   0.65525   0.00000  Uiso   1.00
C49    C     0.25633   0.24457   0.68912   0.00000  Uiso   1.00
C50    C     0.25088   0.21665   0.77003   0.00000  Uiso   1.00
C51    C     0.22040   0.17800   0.89869   0.00000  Uiso   1.00
C52    C     0.36812   0.36194   0.57095   0.00000  Uiso   1.00
C53    C     0.36629   0.46324   0.53393   0.00000  Uiso   1.00
C54    C     0.41113   0.53530   0.54387   0.00000  Uiso   1.00
C55    C     0.47341   0.68106   0.54160   0.00000  Uiso   1.00
C56    C     0.35111   0.17173   0.53486   0.00000  Uiso   1.00
C57    C     0.33499   0.11310   0.46748   0.00000  Uiso   1.00
C58    C     0.36552   0.02504   0.44702   0.00000  Uiso   1.00
C59    C     0.40140   0.87546   0.38871   0.00000  Uiso   1.00
C60    C     0.40650   0.21871   0.65141   0.00000  Uiso   1.00
C61    C     0.35341   0.21484   0.70058   0.00000  Uiso   1.00
C62    C     0.34804   0.18689   0.78145   0.00000  Uiso   1.00
C63    C     0.29598   0.18827   0.81544   0.00000  Uiso   1.00
C64    C     0.41314   0.33363   0.61628   0.00000  Uiso   1.00
C65    C     0.45800   0.40556   0.62626   0.00000  Uiso   1.00
C66    C     0.45623   0.50694   0.58927   0.00000  Uiso   1.00
C67    C     0.39614   0.14341   0.58019   0.00000  Uiso   1.00
C68    C     0.42670   0.05542   0.55982   0.00000  Uiso   1.00
C69    C     0.41063   0.99667   0.49243   0.00000  Uiso   1.00
H70    H     0.28856   0.29290   0.53267   0.00000  Uiso   1.00
H71    H     0.22150   0.26650   0.65403   0.00000  Uiso   1.00
H72    H     0.33144   0.48512   0.49885   0.00000  Uiso   1.00
H73    H     0.30015   0.13504   0.43242   0.00000  Uiso   1.00
H74    H     0.16701   0.22479   0.80857   0.00000  Uiso   1.00
H75    H     0.39884   0.68575   0.48136   0.00000  Uiso   1.00
H76    H     0.33286   0.94754   0.34127   0.00000  Uiso   1.00
H77    H     0.44155   0.19667   0.68670   0.00000  Uiso   1.00
H78    H     0.38289   0.16499   0.81651   0.00000  Uiso   1.00
H79    H     0.49283   0.38362   0.66134   0.00000  Uiso   1.00
H80    H     0.46154   0.03354   0.59491   0.00000  Uiso   1.00
H81    H     0.29800   0.14240   0.94045   0.00000  Uiso   1.00
H82    H     0.52983   0.60337   0.61324   0.00000  Uiso   1.00
H83    H     0.46385   0.86515   0.47315   0.00000  Uiso   1.00
O84    O     0.19116   0.16452   0.95713   0.00000  Uiso   1.00
O85    O     0.49532   0.76929   0.52783   0.00000  Uiso   1.00
O86    O     0.40874   0.80076   0.34404   0.00000  Uiso   1.00
N87    N     0.20589   0.20972   0.82179   0.00000  Uiso   1.00
N88    N     0.42263   0.64071   0.51588   0.00000  Uiso   1.00
N89    N     0.36095   0.95055   0.38489   0.00000  Uiso   1.00
N90    N     0.27637   0.16539   0.89275   0.00000  Uiso   1.00
N91    N     0.49312   0.59638   0.58684   0.00000  Uiso   1.00
N92    N     0.43144   0.90622   0.45586   0.00000  Uiso   1.00
C93    C     0.19247   0.60755   0.06546   0.00000  Uiso   1.00
C94    C     0.20592   0.63553   0.15242   0.00000  Uiso   1.00
C95    C     0.25738   0.63530   0.18635   0.00000  Uiso   1.00
C96    C     0.26117   0.66328   0.26691   0.00000  Uiso   1.00
C97    C     0.28904   0.70253   0.39511   0.00000  Uiso   1.00
C98    C     0.14840   0.51547   0.06956   0.00000  Uiso   1.00
C99    C     0.15151   0.41431   0.03382   0.00000  Uiso   1.00
C100   C     0.10688   0.34123   0.04462   0.00000  Uiso   1.00
C101   C     0.04545   0.19412   0.04413   0.00000  Uiso   1.00
C102   C     0.16499   0.70598   0.03109   0.00000  Uiso   1.00
C103   C     0.18203   0.76499   0.96298   0.00000  Uiso   1.00
C104   C     0.15136   0.85230   0.94138   0.00000  Uiso   1.00
C105   C     0.11569   0.00098   0.88116   0.00000  Uiso   1.00
C106   C     0.10769   0.65766   0.14818   0.00000  Uiso   1.00
C107   C     0.15986   0.66274   0.19734   0.00000  Uiso   1.00
C108   C     0.16357   0.69074   0.27787   0.00000  Uiso   1.00
C109   C     0.21503   0.69055   0.31192   0.00000  Uiso   1.00
C110   C     0.10235   0.54268   0.11449   0.00000  Uiso   1.00
C111   C     0.05771   0.46974   0.12534   0.00000  Uiso   1.00
C112   C     0.06074   0.36850   0.08963   0.00000  Uiso   1.00
C113   C     0.11894   0.73320   0.07601   0.00000  Uiso   1.00
C114   C     0.08823   0.82043   0.05451   0.00000  Uiso   1.00
C115   C     0.10523   0.87956   0.98639   0.00000  Uiso   1.00
H116   H     0.22832   0.58635   0.03048   0.00000  Uiso   1.00
H117   H     0.29301   0.61422   0.15157   0.00000  Uiso   1.00
H118   H     0.18715   0.39327   0.99905   0.00000  Uiso   1.00
H119   H     0.21767   0.74390   0.92823   0.00000  Uiso   1.00
H120   H     0.34441   0.65708   0.30563   0.00000  Uiso   1.00
H121   H     0.12120   0.19121   0.98402   0.00000  Uiso   1.00
H122   H     0.18556   0.93058   0.83468   0.00000  Uiso   1.00
H123   H     0.07183   0.67884   0.18315   0.00000  Uiso   1.00
H124   H     0.12793   0.71179   0.31262   0.00000  Uiso   1.00
H125   H     0.02208   0.49084   0.16011   0.00000  Uiso   1.00
H126   H     0.05260   0.84146   0.08929   0.00000  Uiso   1.00
H127   H     0.21042   0.73627   0.43636   0.00000  Uiso   1.00
H128   H     0.98722   0.27040   0.11474   0.00000  Uiso   1.00
H129   H     0.05158   0.00976   0.96540   0.00000  Uiso   1.00
O130   O     0.31714   0.71664   0.45342   0.00000  Uiso   1.00
O131   O     0.02430   0.10545   0.03146   0.00000  Uiso   1.00
O132   O     0.10874   0.07548   0.83553   0.00000  Uiso   1.00
N133   N     0.30518   0.67122   0.31863   0.00000  Uiso   1.00
N134   N     0.09650   0.23565   0.01795   0.00000  Uiso   1.00
N135   N     0.15666   0.92688   0.87832   0.00000  Uiso   1.00
N136   N     0.23308   0.71383   0.38897   0.00000  Uiso   1.00
N137   N     0.02440   0.27826   0.08829   0.00000  Uiso   1.00
N138   N     0.08456   0.96949   0.94866   0.00000  Uiso   1.00
C139   C     0.17925   0.26894   0.42557   0.00000  Uiso   1.00
C140   C     0.19591   0.24544   0.33897   0.00000  Uiso   1.00
C141   C     0.24852   0.25749   0.30699   0.00000  Uiso   1.00
C142   C     0.25532   0.23177   0.22642   0.00000  Uiso   1.00
C143   C     0.28793   0.20089   0.09905   0.00000  Uiso   1.00
C144   C     0.13493   0.35141   0.42050   0.00000  Uiso   1.00
C145   C     0.13626   0.45256   0.45708   0.00000  Uiso   1.00
C146   C     0.09171   0.51603   0.44515   0.00000  Uiso   1.00
C147   C     0.02961   0.64964   0.44442   0.00000  Uiso   1.00
C148   C     0.15106   0.16397   0.45816   0.00000  Uiso   1.00
C149   C     0.16594   0.10753   0.52642   0.00000  Uiso   1.00
C150   C     0.13496   0.01320   0.54621   0.00000  Uiso   1.00
C151   C     0.09792   0.85578   0.60396   0.00000  Uiso   1.00
C152   C     0.09776   0.20182   0.33935   0.00000  Uiso   1.00
C153   C     0.15165   0.20899   0.29213   0.00000  Uiso   1.00
C154   C     0.15837   0.18324   0.21159   0.00000  Uiso   1.00
C155   C     0.21098   0.19525   0.17950   0.00000  Uiso   1.00
C156   C     0.09067   0.31496   0.37367   0.00000  Uiso   1.00
C157   C     0.04610   0.37830   0.36169   0.00000  Uiso   1.00
C158   C     0.04737   0.47952   0.39823   0.00000  Uiso   1.00
C159   C     0.10680   0.12752   0.41133   0.00000  Uiso   1.00
C160   C     0.07579   0.03327   0.43102   0.00000  Uiso   1.00
C161   C     0.09062   0.97668   0.49930   0.00000  Uiso   1.00
H162   H     0.21370   0.29732   0.46203   0.00000  Uiso   1.00
H163   H     0.28277   0.28572   0.34325   0.00000  Uiso   1.00
H164   H     0.17051   0.48074   0.49333   0.00000  Uiso   1.00
H165   H     0.20019   0.13576   0.56265   0.00000  Uiso   1.00
H166   H     0.33981   0.25681   0.19089   0.00000  Uiso   1.00
H167   H     0.10311   0.66802   0.50736   0.00000  Uiso   1.00
H168   H     0.16570   0.94056   0.65355   0.00000  Uiso   1.00
H169   H     0.06330   0.17344   0.30289   0.00000  Uiso   1.00
H170   H     0.12411   0.15503   0.17536   0.00000  Uiso   1.00
H171   H     0.01186   0.35006   0.32544   0.00000  Uiso   1.00
H172   H     0.04154   0.00508   0.39477   0.00000  Uiso   1.00
H173   H     0.21104   0.15075   0.05463   0.00000  Uiso   1.00
H174   H     0.97434   0.56195   0.37110   0.00000  Uiso   1.00
H175   H     0.03693   0.83449   0.51729   0.00000  Uiso   1.00
O176   O     0.31814   0.19394   0.04174   0.00000  Uiso   1.00
O177   O     0.00759   0.73341   0.45695   0.00000  Uiso   1.00
O178   O     0.08971   0.77901   0.64874   0.00000  Uiso   1.00
N179   N     0.30116   0.23435   0.17633   0.00000  Uiso   1.00
N180   N     0.07987   0.61881   0.47220   0.00000  Uiso   1.00
N181   N     0.13837   0.93872   0.60888   0.00000  Uiso   1.00
N182   N     0.23187   0.17728   0.10301   0.00000  Uiso   1.00
N183   N     0.01057   0.56174   0.39887   0.00000  Uiso   1.00
N184   N     0.06908   0.88164   0.53556   0.00000  Uiso   1.00
C185   C     0.67902   0.36974   0.08741   0.00000  Uiso   1.00
C186   C     0.69601   0.34558   0.17339   0.00000  Uiso   1.00
C187   C     0.74870   0.35780   0.20284   0.00000  Uiso   1.00
C188   C     0.75581   0.33138   0.28325   0.00000  Uiso   1.00
C189   C     0.78889   0.29960   0.40929   0.00000  Uiso   1.00
C190   C     0.63452   0.45176   0.09402   0.00000  Uiso   1.00
C191   C     0.63551   0.55324   0.05672   0.00000  Uiso   1.00
C192   C     0.59086   0.61619   0.07032   0.00000  Uiso   1.00
C193   C     0.52846   0.74921   0.07309   0.00000  Uiso   1.00
C194   C     0.65095   0.26485   0.05681   0.00000  Uiso   1.00
C195   C     0.66574   0.20919   0.98822   0.00000  Uiso   1.00
C196   C     0.63491   0.11479   0.97049   0.00000  Uiso   1.00
C197   C     0.59802   0.95762   0.91549   0.00000  Uiso   1.00
C198   C     0.59794   0.30110   0.17786   0.00000  Uiso   1.00
C199   C     0.65197   0.30830   0.22251   0.00000  Uiso   1.00
C200   C     0.65900   0.28185   0.30291   0.00000  Uiso   1.00
C201   C     0.71169   0.29403   0.33247   0.00000  Uiso   1.00
C202   C     0.59048   0.41448   0.14314   0.00000  Uiso   1.00
C203   C     0.54581   0.47729   0.15680   0.00000  Uiso   1.00
C204   C     0.54674   0.57884   0.11954   0.00000  Uiso   1.00
C205   C     0.60691   0.22756   0.10594   0.00000  Uiso   1.00
C206   C     0.57604   0.13324   0.08830   0.00000  Uiso   1.00
C207   C     0.59079   0.07745   0.01970   0.00000  Uiso   1.00
H208   H     0.71330   0.39877   0.04916   0.00000  Uiso   1.00
H209   H     0.78277   0.38666   0.16480   0.00000  Uiso   1.00
H210   H     0.66960   0.58206   0.01870   0.00000  Uiso   1.00
H211   H     0.69983   0.23807   0.95022   0.00000  Uiso   1.00
H212   H     0.84037   0.35684   0.31468   0.00000  Uiso   1.00
H213   H     0.60173   0.76883   0.00660   0.00000  Uiso   1.00
H214   H     0.66547   0.04345   0.86219   0.00000  Uiso   1.00
H215   H     0.56365   0.27207   0.21611   0.00000  Uiso   1.00
H216   H     0.62491   0.25301   0.34091   0.00000  Uiso   1.00
H217   H     0.51174   0.44841   0.19481   0.00000  Uiso   1.00
H218   H     0.54197   0.10442   0.12633   0.00000  Uiso   1.00
H219   H     0.71224   0.24836   0.45762   0.00000  Uiso   1.00
H220   H     0.47360   0.66035   0.14954   0.00000  Uiso   1.00
H221   H     0.53734   0.93498   0.00513   0.00000  Uiso   1.00
O222   O     0.81930   0.29238   0.46524   0.00000  Uiso   1.00
O223   O     0.50622   0.83289   0.06104   0.00000  Uiso   1.00
O224   O     0.58984   0.88121   0.87158   0.00000  Uiso   1.00
N225   N     0.80181   0.33390   0.33119   0.00000  Uiso   1.00
N226   N     0.57870   0.71910   0.04317   0.00000  Uiso   1.00
N227   N     0.63828   0.04095   0.90814   0.00000  Uiso   1.00
N228   N     0.73286   0.27553   0.40810   0.00000  Uiso   1.00
N229   N     0.50976   0.66073   0.12008   0.00000  Uiso   1.00
N230   N     0.56934   0.98258   0.98506   0.00000  Uiso   1.00
C231   C     0.67640   0.72915   0.43204   0.00000  Uiso   1.00
C232   C     0.69161   0.75685   0.34475   0.00000  Uiso   1.00
C233   C     0.74367   0.75543   0.31088   0.00000  Uiso   1.00
C234   C     0.74912   0.78335   0.22997   0.00000  Uiso   1.00
C235   C     0.77960   0.82200   0.10131   0.00000  Uiso   1.00
C236   C     0.63188   0.63806   0.42905   0.00000  Uiso   1.00
C237   C     0.63371   0.53676   0.46607   0.00000  Uiso   1.00
C238   C     0.58887   0.46470   0.45613   0.00000  Uiso   1.00
C239   C     0.52659   0.31894   0.45840   0.00000  Uiso   1.00
C240   C     0.64889   0.82827   0.46514   0.00000  Uiso   1.00
C241   C     0.66501   0.88690   0.53252   0.00000  Uiso   1.00
C242   C     0.63448   0.97496   0.55298   0.00000  Uiso   1.00
C243   C     0.59860   0.12454   0.61129   0.00000  Uiso   1.00
C244   C     0.59350   0.78129   0.34859   0.00000  Uiso   1.00
C245   C     0.64659   0.78516   0.29942   0.00000  Uiso   1.00
C246   C     0.65196   0.81311   0.21855   0.00000  Uiso   1.00
C247   C     0.70402   0.81173   0.18456   0.00000  Uiso   1.00
C248   C     0.58686   0.66637   0.38372   0.00000  Uiso   1.00
C249   C     0.54200   0.59444   0.37374   0.00000  Uiso   1.00
C250   C     0.54377   0.49306   0.41073   0.00000  Uiso   1.00
C251   C     0.60386   0.85659   0.41981   0.00000  Uiso   1.00
C252   C     0.57330   0.94458   0.44018   0.00000  Uiso   1.00
C253   C     0.58937   0.00333   0.50757   0.00000  Uiso   1.00
H254   H     0.71144   0.70710   0.46733   0.00000  Uiso   1.00
H255   H     0.77850   0.73350   0.34597   0.00000  Uiso   1.00
H256   H     0.66856   0.51488   0.50115   0.00000  Uiso   1.00
H257   H     0.69985   0.86496   0.56758   0.00000  Uiso   1.00
H258   H     0.83299   0.77521   0.19143   0.00000  Uiso   1.00
H259   H     0.60116   0.31425   0.51864   0.00000  Uiso   1.00
H260   H     0.66714   0.05246   0.65873   0.00000  Uiso   1.00
H261   H     0.55845   0.80333   0.31330   0.00000  Uiso   1.00
H262   H     0.61711   0.83501   0.18349   0.00000  Uiso   1.00
H263   H     0.50717   0.61638   0.33866   0.00000  Uiso   1.00
H264   H     0.53846   0.96646   0.40509   0.00000  Uiso   1.00
H265   H     0.70200   0.85760   0.05955   0.00000  Uiso   1.00
H266   H     0.47017   0.39663   0.38676   0.00000  Uiso   1.00
H267   H     0.53615   0.13485   0.52685   0.00000  Uiso   1.00
O268   O     0.80884   0.83548   0.04287   0.00000  Uiso   1.00
O269   O     0.50468   0.23071   0.47217   0.00000  Uiso   1.00
O270   O     0.59126   0.19924   0.65596   0.00000  Uiso   1.00
N271   N     0.79411   0.79028   0.17821   0.00000  Uiso   1.00
N272   N     0.57737   0.35929   0.48412   0.00000  Uiso   1.00
N273   N     0.63905   0.04945   0.61511   0.00000  Uiso   1.00
N274   N     0.72363   0.83461   0.10725   0.00000  Uiso   1.00
N275   N     0.50688   0.40362   0.41316   0.00000  Uiso   1.00
N276   N     0.56856   0.09378   0.54414   0.00000  Uiso   1.00
C277   C     0.80753   0.39245   0.93454   0.00000  Uiso   1.00
C278   C     0.79408   0.36447   0.84758   0.00000  Uiso   1.00
C279   C     0.74262   0.36470   0.81365   0.00000  Uiso   1.00
C280   C     0.73883   0.33672   0.73309   0.00000  Uiso   1.00
C281   C     0.71096   0.29747   0.60489   0.00000  Uiso   1.00
C282   C     0.85160   0.48453   0.93044   0.00000  Uiso   1.00
C283   C     0.84849   0.58569   0.96618   0.00000  Uiso   1.00
C284   C     0.89312   0.65877   0.95538   0.00000  Uiso   1.00
C285   C     0.95455   0.80588   0.95587   0.00000  Uiso   1.00
C286   C     0.83501   0.29402   0.96891   0.00000  Uiso   1.00
C287   C     0.81797   0.23501   0.03702   0.00000  Uiso   1.00
C288   C     0.84864   0.14770   0.05862   0.00000  Uiso   1.00
C289   C     0.88431   0.99902   0.11884   0.00000  Uiso   1.00
C290   C     0.89231   0.34234   0.85182   0.00000  Uiso   1.00
C291   C     0.84014   0.33726   0.80266   0.00000  Uiso   1.00
C292   C     0.83643   0.30926   0.72213   0.00000  Uiso   1.00
C293   C     0.78497   0.30945   0.68808   0.00000  Uiso   1.00
C294   C     0.89765   0.45732   0.88551   0.00000  Uiso   1.00
C295   C     0.94229   0.53026   0.87466   0.00000  Uiso   1.00
C296   C     0.93926   0.63150   0.91037   0.00000  Uiso   1.00
C297   C     0.88106   0.26680   0.92399   0.00000  Uiso   1.00
C298   C     0.91177   0.17957   0.94549   0.00000  Uiso   1.00
C299   C     0.89477   0.12044   0.01361   0.00000  Uiso   1.00
H300   H     0.77168   0.41365   0.96952   0.00000  Uiso   1.00
H301   H     0.70699   0.38578   0.84843   0.00000  Uiso   1.00
H302   H     0.81285   0.60673   0.00095   0.00000  Uiso   1.00
H303   H     0.78233   0.25610   0.07177   0.00000  Uiso   1.00
H304   H     0.65559   0.34292   0.69437   0.00000  Uiso   1.00
H305   H     0.87880   0.80879   0.01598   0.00000  Uiso   1.00
H306   H     0.81444   0.06942   0.16532   0.00000  Uiso   1.00
H307   H     0.92817   0.32116   0.81685   0.00000  Uiso   1.00
H308   H     0.87207   0.28821   0.68738   0.00000  Uiso   1.00
H309   H     0.97792   0.50916   0.83989   0.00000  Uiso   1.00
H310   H     0.94740   0.15854   0.91071   0.00000  Uiso   1.00
H311   H     0.78958   0.26373   0.56364   0.00000  Uiso   1.00
H312   H     0.01278   0.72960   0.88526   0.00000  Uiso   1.00
H313   H     0.94842   0.99024   0.03460   0.00000  Uiso   1.00
O314   O     0.68286   0.28336   0.54658   0.00000  Uiso   1.00
O315   O     0.97570   0.89455   0.96854   0.00000  Uiso   1.00
O316   O     0.89126   0.92452   0.16447   0.00000  Uiso   1.00
N317   N     0.69482   0.32878   0.68137   0.00000  Uiso   1.00
N318   N     0.90350   0.76435   0.98205   0.00000  Uiso   1.00
N319   N     0.84334   0.07312   0.12168   0.00000  Uiso   1.00
N320   N     0.76692   0.28617   0.61103   0.00000  Uiso   1.00
N321   N     0.97560   0.72174   0.91171   0.00000  Uiso   1.00
N322   N     0.91544   0.03051   0.05134   0.00000  Uiso   1.00
C323   C     0.82075   0.73106   0.57443   0.00000  Uiso   1.00
C324   C     0.80409   0.75456   0.66103   0.00000  Uiso   1.00
C325   C     0.75148   0.74251   0.69301   0.00000  Uiso   1.00
C326   C     0.74468   0.76823   0.77358   0.00000  Uiso   1.00
C327   C     0.71207   0.79911   0.90095   0.00000  Uiso   1.00
C328   C     0.86507   0.64859   0.57950   0.00000  Uiso   1.00
C329   C     0.86374   0.54744   0.54292   0.00000  Uiso   1.00
C330   C     0.90829   0.48397   0.55485   0.00000  Uiso   1.00
C331   C     0.97039   0.35036   0.55558   0.00000  Uiso   1.00
C332   C     0.84894   0.83603   0.54184   0.00000  Uiso   1.00
C333   C     0.83406   0.89247   0.47358   0.00000  Uiso   1.00
C334   C     0.86504   0.98680   0.45379   0.00000  Uiso   1.00
C335   C     0.90208   0.14422   0.39604   0.00000  Uiso   1.00
C336   C     0.90224   0.79818   0.66065   0.00000  Uiso   1.00
C337   C     0.84835   0.79101   0.70787   0.00000  Uiso   1.00
C338   C     0.84163   0.81676   0.78841   0.00000  Uiso   1.00
C339   C     0.78902   0.80475   0.82050   0.00000  Uiso   1.00
C340   C     0.90933   0.68504   0.62633   0.00000  Uiso   1.00
C341   C     0.95390   0.62170   0.63831   0.00000  Uiso   1.00
C342   C     0.95263   0.52048   0.60177   0.00000  Uiso   1.00
C343   C     0.89320   0.87248   0.58867   0.00000  Uiso   1.00
C344   C     0.92421   0.96673   0.56898   0.00000  Uiso   1.00
C345   C     0.90938   0.02332   0.50070   0.00000  Uiso   1.00
H346   H     0.78630   0.70268   0.53797   0.00000  Uiso   1.00
H347   H     0.71723   0.71428   0.65675   0.00000  Uiso   1.00
H348   H     0.82949   0.51926   0.50667   0.00000  Uiso   1.00
H349   H     0.79981   0.86424   0.43735   0.00000  Uiso   1.00
H350   H     0.66019   0.74319   0.80911   0.00000  Uiso   1.00
H351   H     0.89689   0.33198   0.49264   0.00000  Uiso   1.00
H352   H     0.83430   0.05944   0.34645   0.00000  Uiso   1.00
H353   H     0.93670   0.82656   0.69711   0.00000  Uiso   1.00
H354   H     0.87589   0.84497   0.82464   0.00000  Uiso   1.00
H355   H     0.98814   0.64994   0.67456   0.00000  Uiso   1.00
H356   H     0.95846   0.99492   0.60523   0.00000  Uiso   1.00
H357   H     0.78896   0.84925   0.94537   0.00000  Uiso   1.00
H358   H     0.02566   0.43805   0.62890   0.00000  Uiso   1.00
H359   H     0.96307   0.16551   0.48271   0.00000  Uiso   1.00
O360   O     0.68186   0.80606   0.95826   0.00000  Uiso   1.00
O361   O     0.99241   0.26659   0.54305   0.00000  Uiso   1.00
O362   O     0.91029   0.22099   0.35126   0.00000  Uiso   1.00
N363   N     0.69884   0.76565   0.82367   0.00000  Uiso   1.00
N364   N     0.92013   0.38119   0.52780   0.00000  Uiso   1.00
N365   N     0.86163   0.06128   0.39112   0.00000  Uiso   1.00
N366   N     0.76813   0.82272   0.89699   0.00000  Uiso   1.00
N367   N     0.98943   0.43826   0.60113   0.00000  Uiso   1.00
N368   N     0.93092   0.11836   0.46444   0.00000  Uiso   1.00
