data_job_03289
_audit_creation_date              2018-12-19
_audit_creation_method            'Materials Studio'
_symmetry_space_group_name_H-M    'P1'
_symmetry_Int_Tables_number       1
_symmetry_cell_setting            triclinic
loop_
_symmetry_equiv_pos_as_xyz
  x,y,z
_cell_length_a                    41.8409
_cell_length_b                    7.1940
_cell_length_c                    30.1179
_cell_angle_alpha                 90.0000
_cell_angle_beta                  90.0000
_cell_angle_gamma                 90.0000
loop_
_atom_site_label
_atom_site_type_symbol
_atom_site_fract_x
_atom_site_fract_y
_atom_site_fract_z
_atom_site_U_iso_or_equiv
_atom_site_adp_type
_atom_site_occupancy
C1     C     0.59087   0.89510   0.03880   0.00000  Uiso   1.00
C2     C     0.62401   0.82154   0.02716   0.00000  Uiso   1.00
C3     C     0.65196   0.92529   0.02629   0.00000  Uiso   1.00
C4     C     0.67984   0.83233   0.01481   0.00000  Uiso   1.00
C5     C     0.73131   0.74701   0.99826   0.00000  Uiso   1.00
C6     C     0.56957   0.84900   0.99923   0.00000  Uiso   1.00
C7     C     0.55174   0.97583   0.97488   0.00000  Uiso   1.00
C8     C     0.53379   0.90597   0.93989   0.00000  Uiso   1.00
C9     C     0.50072   0.86326   0.88000   0.00000  Uiso   1.00
C10    C     0.57890   0.77520   0.07710   0.00000  Uiso   1.00
C11    C     0.56891   0.83998   0.11823   0.00000  Uiso   1.00
C12    C     0.55881   0.70798   0.14879   0.00000  Uiso   1.00
C13    C     0.54023   0.55070   0.20981   0.00000  Uiso   1.00
C14    C     0.59067   0.54551   0.01995   0.00000  Uiso   1.00
C15    C     0.62390   0.63166   0.01692   0.00000  Uiso   1.00
C16    C     0.65174   0.53851   0.00543   0.00000  Uiso   1.00
C17    C     0.67973   0.64210   0.00455   0.00000  Uiso   1.00
C18    C     0.56946   0.65912   0.98898   0.00000  Uiso   1.00
C19    C     0.55152   0.58905   0.95402   0.00000  Uiso   1.00
C20    C     0.53368   0.71574   0.92963   0.00000  Uiso   1.00
C21    C     0.57879   0.58532   0.06686   0.00000  Uiso   1.00
C22    C     0.56870   0.45320   0.09736   0.00000  Uiso   1.00
C23    C     0.55870   0.51776   0.13853   0.00000  Uiso   1.00
H24    H     0.59095   0.04293   0.04678   0.00000  Uiso   1.00
H25    H     0.65204   0.07224   0.03422   0.00000  Uiso   1.00
H26    H     0.55183   0.12276   0.98282   0.00000  Uiso   1.00
H27    H     0.56900   0.98693   0.12614   0.00000  Uiso   1.00
H28    H     0.71971   0.02101   0.01576   0.00000  Uiso   1.00
H29    H     0.50841   0.12753   0.90739   0.00000  Uiso   1.00
H30    H     0.54462   0.84110   0.20962   0.00000  Uiso   1.00
H31    H     0.59058   0.39768   0.01197   0.00000  Uiso   1.00
H32    H     0.65165   0.39157   0.99750   0.00000  Uiso   1.00
H33    H     0.55144   0.44210   0.94610   0.00000  Uiso   1.00
H34    H     0.56861   0.30627   0.08943   0.00000  Uiso   1.00
H35    H     0.71939   0.46855   0.98596   0.00000  Uiso   1.00
H36    H     0.50810   0.57508   0.87759   0.00000  Uiso   1.00
H37    H     0.54431   0.28865   0.17982   0.00000  Uiso   1.00
O38    O     0.75973   0.75242   0.99196   0.00000  Uiso   1.00
O39    O     0.48251   0.89217   0.84979   0.00000  Uiso   1.00
O40    O     0.53002   0.51639   0.24630   0.00000  Uiso   1.00
N41    N     0.71126   0.89181   0.01074   0.00000  Uiso   1.00
N42    N     0.51371   0.99142   0.90942   0.00000  Uiso   1.00
N43    N     0.54755   0.72363   0.19197   0.00000  Uiso   1.00
N44    N     0.71109   0.59454   0.99471   0.00000  Uiso   1.00
N45    N     0.51354   0.69414   0.89338   0.00000  Uiso   1.00
N46    N     0.54738   0.42636   0.17594   0.00000  Uiso   1.00
C47    C     0.90913   0.10490   0.03880   0.00000  Uiso   1.00
C48    C     0.87599   0.17846   0.02716   0.00000  Uiso   1.00
C49    C     0.84804   0.07471   0.02629   0.00000  Uiso   1.00
C50    C     0.82016   0.16767   0.01481   0.00000  Uiso   1.00
C51    C     0.76869   0.25299   0.99826   0.00000  Uiso   1.00
C52    C     0.93043   0.15100   0.99923   0.00000  Uiso   1.00
C53    C     0.94826   0.02417   0.97488   0.00000  Uiso   1.00
C54    C     0.96621   0.09403   0.93989   0.00000  Uiso   1.00
C55    C     0.99928   0.13674   0.88000   0.00000  Uiso   1.00
C56    C     0.92110   0.22480   0.07710   0.00000  Uiso   1.00
C57    C     0.93109   0.16002   0.11823   0.00000  Uiso   1.00
C58    C     0.94119   0.29202   0.14879   0.00000  Uiso   1.00
C59    C     0.95977   0.44930   0.20981   0.00000  Uiso   1.00
C60    C     0.90933   0.45449   0.01995   0.00000  Uiso   1.00
C61    C     0.87610   0.36834   0.01692   0.00000  Uiso   1.00
C62    C     0.84826   0.46149   0.00543   0.00000  Uiso   1.00
C63    C     0.82027   0.35790   0.00455   0.00000  Uiso   1.00
C64    C     0.93054   0.34088   0.98898   0.00000  Uiso   1.00
C65    C     0.94848   0.41095   0.95402   0.00000  Uiso   1.00
C66    C     0.96632   0.28426   0.92963   0.00000  Uiso   1.00
C67    C     0.92121   0.41468   0.06686   0.00000  Uiso   1.00
C68    C     0.93130   0.54680   0.09736   0.00000  Uiso   1.00
C69    C     0.94130   0.48224   0.13853   0.00000  Uiso   1.00
H70    H     0.90905   0.95707   0.04678   0.00000  Uiso   1.00
H71    H     0.84796   0.92776   0.03422   0.00000  Uiso   1.00
H72    H     0.94817   0.87724   0.98282   0.00000  Uiso   1.00
H73    H     0.93100   0.01307   0.12614   0.00000  Uiso   1.00
H74    H     0.78029   0.97899   0.01576   0.00000  Uiso   1.00
H75    H     0.99159   0.87247   0.90739   0.00000  Uiso   1.00
H76    H     0.95538   0.15890   0.20962   0.00000  Uiso   1.00
H77    H     0.90942   0.60232   0.01197   0.00000  Uiso   1.00
H78    H     0.84835   0.60843   0.99750   0.00000  Uiso   1.00
H79    H     0.94856   0.55790   0.94610   0.00000  Uiso   1.00
H80    H     0.93139   0.69373   0.08943   0.00000  Uiso   1.00
H81    H     0.78061   0.53145   0.98596   0.00000  Uiso   1.00
H82    H     0.99190   0.42492   0.87759   0.00000  Uiso   1.00
H83    H     0.95569   0.71135   0.17982   0.00000  Uiso   1.00
O84    O     0.74027   0.24758   0.99196   0.00000  Uiso   1.00
O85    O     0.01749   0.10783   0.84979   0.00000  Uiso   1.00
O86    O     0.96998   0.48361   0.24630   0.00000  Uiso   1.00
N87    N     0.78874   0.10819   0.01074   0.00000  Uiso   1.00
N88    N     0.98629   0.00858   0.90942   0.00000  Uiso   1.00
N89    N     0.95245   0.27637   0.19197   0.00000  Uiso   1.00
N90    N     0.78891   0.40546   0.99471   0.00000  Uiso   1.00
N91    N     0.98646   0.30586   0.89338   0.00000  Uiso   1.00
N92    N     0.95262   0.57364   0.17594   0.00000  Uiso   1.00
C93    C     0.90913   0.39510   0.46120   0.00000  Uiso   1.00
C94    C     0.87599   0.32154   0.47284   0.00000  Uiso   1.00
C95    C     0.84804   0.42529   0.47371   0.00000  Uiso   1.00
C96    C     0.82016   0.33233   0.48519   0.00000  Uiso   1.00
C97    C     0.76869   0.24701   0.50174   0.00000  Uiso   1.00
C98    C     0.93043   0.34900   0.50077   0.00000  Uiso   1.00
C99    C     0.94826   0.47583   0.52512   0.00000  Uiso   1.00
C100   C     0.96621   0.40597   0.56011   0.00000  Uiso   1.00
C101   C     0.99928   0.36326   0.62000   0.00000  Uiso   1.00
C102   C     0.92110   0.27520   0.42290   0.00000  Uiso   1.00
C103   C     0.93109   0.33998   0.38177   0.00000  Uiso   1.00
C104   C     0.94119   0.20798   0.35121   0.00000  Uiso   1.00
C105   C     0.95977   0.05070   0.29019   0.00000  Uiso   1.00
C106   C     0.90933   0.04551   0.48005   0.00000  Uiso   1.00
C107   C     0.87610   0.13166   0.48308   0.00000  Uiso   1.00
C108   C     0.84826   0.03851   0.49457   0.00000  Uiso   1.00
C109   C     0.82027   0.14210   0.49545   0.00000  Uiso   1.00
C110   C     0.93054   0.15912   0.51102   0.00000  Uiso   1.00
C111   C     0.94848   0.08905   0.54598   0.00000  Uiso   1.00
C112   C     0.96632   0.21574   0.57037   0.00000  Uiso   1.00
C113   C     0.92121   0.08532   0.43314   0.00000  Uiso   1.00
C114   C     0.93130   0.95320   0.40264   0.00000  Uiso   1.00
C115   C     0.94130   0.01776   0.36147   0.00000  Uiso   1.00
H116   H     0.90905   0.54293   0.45322   0.00000  Uiso   1.00
H117   H     0.84796   0.57224   0.46578   0.00000  Uiso   1.00
H118   H     0.94817   0.62276   0.51718   0.00000  Uiso   1.00
H119   H     0.93100   0.48693   0.37386   0.00000  Uiso   1.00
H120   H     0.78029   0.52101   0.48424   0.00000  Uiso   1.00
H121   H     0.99159   0.62753   0.59261   0.00000  Uiso   1.00
H122   H     0.95538   0.34110   0.29038   0.00000  Uiso   1.00
H123   H     0.90942   0.89768   0.48803   0.00000  Uiso   1.00
H124   H     0.84835   0.89157   0.50250   0.00000  Uiso   1.00
H125   H     0.94856   0.94210   0.55390   0.00000  Uiso   1.00
H126   H     0.93139   0.80627   0.41057   0.00000  Uiso   1.00
H127   H     0.78061   0.96855   0.51404   0.00000  Uiso   1.00
H128   H     0.99190   0.07508   0.62241   0.00000  Uiso   1.00
H129   H     0.95569   0.78865   0.32018   0.00000  Uiso   1.00
O130   O     0.74027   0.25242   0.50804   0.00000  Uiso   1.00
O131   O     0.01749   0.39217   0.65021   0.00000  Uiso   1.00
O132   O     0.96998   0.01639   0.25370   0.00000  Uiso   1.00
N133   N     0.78874   0.39181   0.48926   0.00000  Uiso   1.00
N134   N     0.98629   0.49142   0.59058   0.00000  Uiso   1.00
N135   N     0.95245   0.22363   0.30803   0.00000  Uiso   1.00
N136   N     0.78891   0.09454   0.50529   0.00000  Uiso   1.00
N137   N     0.98646   0.19414   0.60662   0.00000  Uiso   1.00
N138   N     0.95262   0.92636   0.32406   0.00000  Uiso   1.00
C139   C     0.59087   0.60490   0.46120   0.00000  Uiso   1.00
C140   C     0.62401   0.67846   0.47284   0.00000  Uiso   1.00
C141   C     0.65196   0.57471   0.47371   0.00000  Uiso   1.00
C142   C     0.67984   0.66767   0.48519   0.00000  Uiso   1.00
C143   C     0.73131   0.75299   0.50174   0.00000  Uiso   1.00
C144   C     0.56957   0.65100   0.50077   0.00000  Uiso   1.00
C145   C     0.55174   0.52417   0.52512   0.00000  Uiso   1.00
C146   C     0.53379   0.59403   0.56011   0.00000  Uiso   1.00
C147   C     0.50072   0.63674   0.62000   0.00000  Uiso   1.00
C148   C     0.57890   0.72480   0.42290   0.00000  Uiso   1.00
C149   C     0.56891   0.66002   0.38177   0.00000  Uiso   1.00
C150   C     0.55881   0.79202   0.35121   0.00000  Uiso   1.00
C151   C     0.54023   0.94930   0.29019   0.00000  Uiso   1.00
C152   C     0.59067   0.95449   0.48005   0.00000  Uiso   1.00
C153   C     0.62390   0.86834   0.48308   0.00000  Uiso   1.00
C154   C     0.65174   0.96149   0.49457   0.00000  Uiso   1.00
C155   C     0.67973   0.85790   0.49545   0.00000  Uiso   1.00
C156   C     0.56946   0.84088   0.51102   0.00000  Uiso   1.00
C157   C     0.55152   0.91095   0.54598   0.00000  Uiso   1.00
C158   C     0.53368   0.78426   0.57037   0.00000  Uiso   1.00
C159   C     0.57879   0.91468   0.43314   0.00000  Uiso   1.00
C160   C     0.56870   0.04680   0.40264   0.00000  Uiso   1.00
C161   C     0.55870   0.98224   0.36147   0.00000  Uiso   1.00
H162   H     0.59095   0.45707   0.45322   0.00000  Uiso   1.00
H163   H     0.65204   0.42776   0.46578   0.00000  Uiso   1.00
H164   H     0.55183   0.37724   0.51718   0.00000  Uiso   1.00
H165   H     0.56900   0.51307   0.37386   0.00000  Uiso   1.00
H166   H     0.71971   0.47899   0.48424   0.00000  Uiso   1.00
H167   H     0.50841   0.37247   0.59261   0.00000  Uiso   1.00
H168   H     0.54462   0.65890   0.29038   0.00000  Uiso   1.00
H169   H     0.59058   0.10232   0.48803   0.00000  Uiso   1.00
H170   H     0.65165   0.10843   0.50250   0.00000  Uiso   1.00
H171   H     0.55144   0.05790   0.55390   0.00000  Uiso   1.00
H172   H     0.56861   0.19373   0.41057   0.00000  Uiso   1.00
H173   H     0.71939   0.03145   0.51404   0.00000  Uiso   1.00
H174   H     0.50810   0.92492   0.62241   0.00000  Uiso   1.00
H175   H     0.54431   0.21135   0.32018   0.00000  Uiso   1.00
O176   O     0.75973   0.74758   0.50804   0.00000  Uiso   1.00
O177   O     0.48251   0.60783   0.65021   0.00000  Uiso   1.00
O178   O     0.53002   0.98361   0.25370   0.00000  Uiso   1.00
N179   N     0.71126   0.60819   0.48926   0.00000  Uiso   1.00
N180   N     0.51371   0.50858   0.59058   0.00000  Uiso   1.00
N181   N     0.54755   0.77637   0.30803   0.00000  Uiso   1.00
N182   N     0.71109   0.90546   0.50529   0.00000  Uiso   1.00
N183   N     0.51354   0.80586   0.60662   0.00000  Uiso   1.00
N184   N     0.54738   0.07364   0.32406   0.00000  Uiso   1.00
C185   C     0.40913   0.10490   0.96120   0.00000  Uiso   1.00
C186   C     0.37599   0.17846   0.97284   0.00000  Uiso   1.00
C187   C     0.34804   0.07471   0.97371   0.00000  Uiso   1.00
C188   C     0.32016   0.16767   0.98519   0.00000  Uiso   1.00
C189   C     0.26869   0.25299   0.00174   0.00000  Uiso   1.00
C190   C     0.43043   0.15100   0.00077   0.00000  Uiso   1.00
C191   C     0.44826   0.02417   0.02512   0.00000  Uiso   1.00
C192   C     0.46621   0.09403   0.06011   0.00000  Uiso   1.00
C193   C     0.49928   0.13674   0.12000   0.00000  Uiso   1.00
C194   C     0.42110   0.22480   0.92290   0.00000  Uiso   1.00
C195   C     0.43109   0.16002   0.88177   0.00000  Uiso   1.00
C196   C     0.44119   0.29202   0.85121   0.00000  Uiso   1.00
C197   C     0.45977   0.44930   0.79019   0.00000  Uiso   1.00
C198   C     0.40933   0.45449   0.98005   0.00000  Uiso   1.00
C199   C     0.37610   0.36834   0.98308   0.00000  Uiso   1.00
C200   C     0.34826   0.46149   0.99457   0.00000  Uiso   1.00
C201   C     0.32027   0.35790   0.99545   0.00000  Uiso   1.00
C202   C     0.43054   0.34088   0.01102   0.00000  Uiso   1.00
C203   C     0.44848   0.41095   0.04598   0.00000  Uiso   1.00
C204   C     0.46632   0.28426   0.07037   0.00000  Uiso   1.00
C205   C     0.42121   0.41468   0.93314   0.00000  Uiso   1.00
C206   C     0.43130   0.54680   0.90264   0.00000  Uiso   1.00
C207   C     0.44130   0.48224   0.86147   0.00000  Uiso   1.00
H208   H     0.40905   0.95707   0.95322   0.00000  Uiso   1.00
H209   H     0.34796   0.92776   0.96578   0.00000  Uiso   1.00
H210   H     0.44817   0.87724   0.01718   0.00000  Uiso   1.00
H211   H     0.43100   0.01307   0.87386   0.00000  Uiso   1.00
H212   H     0.28029   0.97899   0.98424   0.00000  Uiso   1.00
H213   H     0.49159   0.87247   0.09261   0.00000  Uiso   1.00
H214   H     0.45538   0.15890   0.79038   0.00000  Uiso   1.00
H215   H     0.40942   0.60232   0.98803   0.00000  Uiso   1.00
H216   H     0.34835   0.60843   0.00250   0.00000  Uiso   1.00
H217   H     0.44856   0.55790   0.05390   0.00000  Uiso   1.00
H218   H     0.43139   0.69373   0.91057   0.00000  Uiso   1.00
H219   H     0.28061   0.53145   0.01404   0.00000  Uiso   1.00
H220   H     0.49190   0.42492   0.12241   0.00000  Uiso   1.00
H221   H     0.45569   0.71135   0.82018   0.00000  Uiso   1.00
O222   O     0.24027   0.24758   0.00804   0.00000  Uiso   1.00
O223   O     0.51749   0.10783   0.15021   0.00000  Uiso   1.00
O224   O     0.46998   0.48361   0.75370   0.00000  Uiso   1.00
N225   N     0.28874   0.10819   0.98926   0.00000  Uiso   1.00
N226   N     0.48629   0.00858   0.09058   0.00000  Uiso   1.00
N227   N     0.45245   0.27637   0.80803   0.00000  Uiso   1.00
N228   N     0.28891   0.40546   0.00529   0.00000  Uiso   1.00
N229   N     0.48646   0.30586   0.10662   0.00000  Uiso   1.00
N230   N     0.45262   0.57364   0.82406   0.00000  Uiso   1.00
C231   C     0.09087   0.89510   0.96120   0.00000  Uiso   1.00
C232   C     0.12401   0.82154   0.97284   0.00000  Uiso   1.00
C233   C     0.15196   0.92529   0.97371   0.00000  Uiso   1.00
C234   C     0.17984   0.83233   0.98519   0.00000  Uiso   1.00
C235   C     0.23131   0.74701   0.00174   0.00000  Uiso   1.00
C236   C     0.06957   0.84900   0.00077   0.00000  Uiso   1.00
C237   C     0.05174   0.97583   0.02512   0.00000  Uiso   1.00
C238   C     0.03379   0.90597   0.06011   0.00000  Uiso   1.00
C239   C     0.00072   0.86326   0.12000   0.00000  Uiso   1.00
C240   C     0.07890   0.77520   0.92290   0.00000  Uiso   1.00
C241   C     0.06891   0.83998   0.88177   0.00000  Uiso   1.00
C242   C     0.05881   0.70798   0.85121   0.00000  Uiso   1.00
C243   C     0.04023   0.55070   0.79019   0.00000  Uiso   1.00
C244   C     0.09067   0.54551   0.98005   0.00000  Uiso   1.00
C245   C     0.12390   0.63166   0.98308   0.00000  Uiso   1.00
C246   C     0.15174   0.53851   0.99457   0.00000  Uiso   1.00
C247   C     0.17973   0.64210   0.99545   0.00000  Uiso   1.00
C248   C     0.06946   0.65912   0.01102   0.00000  Uiso   1.00
C249   C     0.05152   0.58905   0.04598   0.00000  Uiso   1.00
C250   C     0.03368   0.71574   0.07037   0.00000  Uiso   1.00
C251   C     0.07879   0.58532   0.93314   0.00000  Uiso   1.00
C252   C     0.06870   0.45320   0.90264   0.00000  Uiso   1.00
C253   C     0.05870   0.51776   0.86147   0.00000  Uiso   1.00
H254   H     0.09095   0.04293   0.95322   0.00000  Uiso   1.00
H255   H     0.15204   0.07224   0.96578   0.00000  Uiso   1.00
H256   H     0.05183   0.12276   0.01718   0.00000  Uiso   1.00
H257   H     0.06900   0.98693   0.87386   0.00000  Uiso   1.00
H258   H     0.21971   0.02101   0.98424   0.00000  Uiso   1.00
H259   H     0.00841   0.12753   0.09261   0.00000  Uiso   1.00
H260   H     0.04462   0.84110   0.79038   0.00000  Uiso   1.00
H261   H     0.09058   0.39768   0.98803   0.00000  Uiso   1.00
H262   H     0.15165   0.39157   0.00250   0.00000  Uiso   1.00
H263   H     0.05144   0.44210   0.05390   0.00000  Uiso   1.00
H264   H     0.06861   0.30627   0.91057   0.00000  Uiso   1.00
H265   H     0.21939   0.46855   0.01404   0.00000  Uiso   1.00
H266   H     0.00810   0.57508   0.12241   0.00000  Uiso   1.00
H267   H     0.04431   0.28865   0.82018   0.00000  Uiso   1.00
O268   O     0.25973   0.75242   0.00804   0.00000  Uiso   1.00
O269   O     0.98251   0.89217   0.15021   0.00000  Uiso   1.00
O270   O     0.03002   0.51639   0.75370   0.00000  Uiso   1.00
N271   N     0.21126   0.89181   0.98926   0.00000  Uiso   1.00
N272   N     0.01371   0.99142   0.09058   0.00000  Uiso   1.00
N273   N     0.04755   0.72363   0.80803   0.00000  Uiso   1.00
N274   N     0.21109   0.59454   0.00529   0.00000  Uiso   1.00
N275   N     0.01354   0.69414   0.10662   0.00000  Uiso   1.00
N276   N     0.04738   0.42636   0.82406   0.00000  Uiso   1.00
C277   C     0.09087   0.60490   0.53880   0.00000  Uiso   1.00
C278   C     0.12401   0.67846   0.52716   0.00000  Uiso   1.00
C279   C     0.15196   0.57471   0.52629   0.00000  Uiso   1.00
C280   C     0.17984   0.66767   0.51481   0.00000  Uiso   1.00
C281   C     0.23131   0.75299   0.49826   0.00000  Uiso   1.00
C282   C     0.06957   0.65100   0.49923   0.00000  Uiso   1.00
C283   C     0.05174   0.52417   0.47488   0.00000  Uiso   1.00
C284   C     0.03379   0.59403   0.43989   0.00000  Uiso   1.00
C285   C     0.00072   0.63674   0.38000   0.00000  Uiso   1.00
C286   C     0.07890   0.72480   0.57710   0.00000  Uiso   1.00
C287   C     0.06891   0.66002   0.61823   0.00000  Uiso   1.00
C288   C     0.05881   0.79202   0.64879   0.00000  Uiso   1.00
C289   C     0.04023   0.94930   0.70981   0.00000  Uiso   1.00
C290   C     0.09067   0.95449   0.51995   0.00000  Uiso   1.00
C291   C     0.12390   0.86834   0.51692   0.00000  Uiso   1.00
C292   C     0.15174   0.96149   0.50543   0.00000  Uiso   1.00
C293   C     0.17973   0.85790   0.50455   0.00000  Uiso   1.00
C294   C     0.06946   0.84088   0.48898   0.00000  Uiso   1.00
C295   C     0.05152   0.91095   0.45402   0.00000  Uiso   1.00
C296   C     0.03368   0.78426   0.42963   0.00000  Uiso   1.00
C297   C     0.07879   0.91468   0.56686   0.00000  Uiso   1.00
C298   C     0.06870   0.04680   0.59736   0.00000  Uiso   1.00
C299   C     0.05870   0.98224   0.63853   0.00000  Uiso   1.00
H300   H     0.09095   0.45707   0.54678   0.00000  Uiso   1.00
H301   H     0.15204   0.42776   0.53422   0.00000  Uiso   1.00
H302   H     0.05183   0.37724   0.48282   0.00000  Uiso   1.00
H303   H     0.06900   0.51307   0.62614   0.00000  Uiso   1.00
H304   H     0.21971   0.47899   0.51576   0.00000  Uiso   1.00
H305   H     0.00841   0.37247   0.40739   0.00000  Uiso   1.00
H306   H     0.04462   0.65890   0.70962   0.00000  Uiso   1.00
H307   H     0.09058   0.10232   0.51197   0.00000  Uiso   1.00
H308   H     0.15165   0.10843   0.49750   0.00000  Uiso   1.00
H309   H     0.05144   0.05790   0.44610   0.00000  Uiso   1.00
H310   H     0.06861   0.19373   0.58943   0.00000  Uiso   1.00
H311   H     0.21939   0.03145   0.48596   0.00000  Uiso   1.00
H312   H     0.00810   0.92492   0.37759   0.00000  Uiso   1.00
H313   H     0.04431   0.21135   0.67982   0.00000  Uiso   1.00
O314   O     0.25973   0.74758   0.49196   0.00000  Uiso   1.00
O315   O     0.98251   0.60783   0.34979   0.00000  Uiso   1.00
O316   O     0.03002   0.98361   0.74630   0.00000  Uiso   1.00
N317   N     0.21126   0.60819   0.51074   0.00000  Uiso   1.00
N318   N     0.01371   0.50858   0.40942   0.00000  Uiso   1.00
N319   N     0.04755   0.77637   0.69197   0.00000  Uiso   1.00
N320   N     0.21109   0.90546   0.49471   0.00000  Uiso   1.00
N321   N     0.01354   0.80586   0.39338   0.00000  Uiso   1.00
N322   N     0.04738   0.07364   0.67594   0.00000  Uiso   1.00
C323   C     0.40913   0.39510   0.53880   0.00000  Uiso   1.00
C324   C     0.37599   0.32154   0.52716   0.00000  Uiso   1.00
C325   C     0.34804   0.42529   0.52629   0.00000  Uiso   1.00
C326   C     0.32016   0.33233   0.51481   0.00000  Uiso   1.00
C327   C     0.26869   0.24701   0.49826   0.00000  Uiso   1.00
C328   C     0.43043   0.34900   0.49923   0.00000  Uiso   1.00
C329   C     0.44826   0.47583   0.47488   0.00000  Uiso   1.00
C330   C     0.46621   0.40597   0.43989   0.00000  Uiso   1.00
C331   C     0.49928   0.36326   0.38000   0.00000  Uiso   1.00
C332   C     0.42110   0.27520   0.57710   0.00000  Uiso   1.00
C333   C     0.43109   0.33998   0.61823   0.00000  Uiso   1.00
C334   C     0.44119   0.20798   0.64879   0.00000  Uiso   1.00
C335   C     0.45977   0.05070   0.70981   0.00000  Uiso   1.00
C336   C     0.40933   0.04551   0.51995   0.00000  Uiso   1.00
C337   C     0.37610   0.13166   0.51692   0.00000  Uiso   1.00
C338   C     0.34826   0.03851   0.50543   0.00000  Uiso   1.00
C339   C     0.32027   0.14210   0.50455   0.00000  Uiso   1.00
C340   C     0.43054   0.15912   0.48898   0.00000  Uiso   1.00
C341   C     0.44848   0.08905   0.45402   0.00000  Uiso   1.00
C342   C     0.46632   0.21574   0.42963   0.00000  Uiso   1.00
C343   C     0.42121   0.08532   0.56686   0.00000  Uiso   1.00
C344   C     0.43130   0.95320   0.59736   0.00000  Uiso   1.00
C345   C     0.44130   0.01776   0.63853   0.00000  Uiso   1.00
H346   H     0.40905   0.54293   0.54678   0.00000  Uiso   1.00
H347   H     0.34796   0.57224   0.53422   0.00000  Uiso   1.00
H348   H     0.44817   0.62276   0.48282   0.00000  Uiso   1.00
H349   H     0.43100   0.48693   0.62614   0.00000  Uiso   1.00
H350   H     0.28029   0.52101   0.51576   0.00000  Uiso   1.00
H351   H     0.49159   0.62753   0.40739   0.00000  Uiso   1.00
H352   H     0.45538   0.34110   0.70962   0.00000  Uiso   1.00
H353   H     0.40942   0.89768   0.51197   0.00000  Uiso   1.00
H354   H     0.34835   0.89157   0.49750   0.00000  Uiso   1.00
H355   H     0.44856   0.94210   0.44610   0.00000  Uiso   1.00
H356   H     0.43139   0.80627   0.58943   0.00000  Uiso   1.00
H357   H     0.28061   0.96855   0.48596   0.00000  Uiso   1.00
H358   H     0.49190   0.07508   0.37759   0.00000  Uiso   1.00
H359   H     0.45569   0.78865   0.67982   0.00000  Uiso   1.00
O360   O     0.24027   0.25242   0.49196   0.00000  Uiso   1.00
O361   O     0.51749   0.39217   0.34979   0.00000  Uiso   1.00
O362   O     0.46998   0.01639   0.74630   0.00000  Uiso   1.00
N363   N     0.28874   0.39181   0.51074   0.00000  Uiso   1.00
N364   N     0.48629   0.49142   0.40942   0.00000  Uiso   1.00
N365   N     0.45245   0.22363   0.69197   0.00000  Uiso   1.00
N366   N     0.28891   0.09454   0.49471   0.00000  Uiso   1.00
N367   N     0.48646   0.19414   0.39338   0.00000  Uiso   1.00
N368   N     0.45262   0.92636   0.67594   0.00000  Uiso   1.00
