data_job_01720
_audit_creation_date              2018-12-19
_audit_creation_method            'Materials Studio'
_symmetry_space_group_name_H-M    'P1'
_symmetry_Int_Tables_number       1
_symmetry_cell_setting            triclinic
loop_
_symmetry_equiv_pos_as_xyz
  x,y,z
_cell_length_a                    15.1633
_cell_length_b                    9.9535
_cell_length_c                    27.7866
_cell_angle_alpha                 90.0000
_cell_angle_beta                  128.5666
_cell_angle_gamma                 90.0000
loop_
_atom_site_label
_atom_site_type_symbol
_atom_site_fract_x
_atom_site_fract_y
_atom_site_fract_z
_atom_site_U_iso_or_equiv
_atom_site_adp_type
_atom_site_occupancy
C1     C     0.66121   0.24146   0.20910   0.00000  Uiso   1.00
C2     C     0.76153   0.16090   0.26185   0.00000  Uiso   1.00
C3     C     0.79470   0.15068   0.32089   0.00000  Uiso   1.00
C4     C     0.88877   0.07209   0.36255   0.00000  Uiso   1.00
C5     C     0.03564   0.95708   0.44703   0.00000  Uiso   1.00
C6     C     0.70858   0.33810   0.18773   0.00000  Uiso   1.00
C7     C     0.69721   0.47686   0.18444   0.00000  Uiso   1.00
C8     C     0.74669   0.54744   0.16370   0.00000  Uiso   1.00
C9     C     0.81128   0.70753   0.13307   0.00000  Uiso   1.00
C10    C     0.58758   0.14221   0.15647   0.00000  Uiso   1.00
C11    C     0.47447   0.11629   0.12689   0.00000  Uiso   1.00
C12    C     0.42208   0.02197   0.07981   0.00000  Uiso   1.00
C13    C     0.29881   0.87791   0.00064   0.00000  Uiso   1.00
C14    C     0.76928   0.12007   0.17809   0.00000  Uiso   1.00
C15    C     0.82023   0.09497   0.24501   0.00000  Uiso   1.00
C16    C     0.91426   0.01637   0.28659   0.00000  Uiso   1.00
C17    C     0.94757   0.00603   0.34568   0.00000  Uiso   1.00
C18    C     0.76727   0.27217   0.17089   0.00000  Uiso   1.00
C19    C     0.81677   0.34256   0.15014   0.00000  Uiso   1.00
C20    C     0.80549   0.48139   0.14683   0.00000  Uiso   1.00
C21    C     0.64628   0.07627   0.13963   0.00000  Uiso   1.00
C22    C     0.59404   0.98198   0.09259   0.00000  Uiso   1.00
C23    C     0.48088   0.95592   0.06294   0.00000  Uiso   1.00
H24    H     0.61551   0.29280   0.22221   0.00000  Uiso   1.00
H25    H     0.74926   0.20173   0.33391   0.00000  Uiso   1.00
H26    H     0.65177   0.52786   0.19747   0.00000  Uiso   1.00
H27    H     0.42908   0.16734   0.13993   0.00000  Uiso   1.00
H28    H     0.92345   0.07172   0.45032   0.00000  Uiso   1.00
H29    H     0.71787   0.75938   0.16263   0.00000  Uiso   1.00
H30    H     0.24826   0.99915   0.04129   0.00000  Uiso   1.00
H31    H     0.81498   0.06874   0.16498   0.00000  Uiso   1.00
H32    H     0.95967   0.96536   0.27354   0.00000  Uiso   1.00
H33    H     0.86219   0.29150   0.13711   0.00000  Uiso   1.00
H34    H     0.63949   0.93098   0.07957   0.00000  Uiso   1.00
H35    H     0.09424   0.87988   0.40133   0.00000  Uiso   1.00
H36    H     0.88864   0.56754   0.11364   0.00000  Uiso   1.00
H37    H     0.41905   0.80731   0.99229   0.00000  Uiso   1.00
O38    O     0.10045   0.91188   0.49828   0.00000  Uiso   1.00
O39    O     0.83071   0.81405   0.12083   0.00000  Uiso   1.00
O40    O     0.21461   0.81665   0.96163   0.00000  Uiso   1.00
N41    N     0.94378   0.04073   0.42389   0.00000  Uiso   1.00
N42    N     0.75158   0.68366   0.15493   0.00000  Uiso   1.00
N43    N     0.31253   0.97294   0.04147   0.00000  Uiso   1.00
N44    N     0.03567   0.93750   0.39753   0.00000  Uiso   1.00
N45    N     0.84348   0.58043   0.12856   0.00000  Uiso   1.00
N46    N     0.40443   0.86971   0.01510   0.00000  Uiso   1.00
C47    C     0.33879   0.24146   0.29090   0.00000  Uiso   1.00
C48    C     0.23847   0.16090   0.23815   0.00000  Uiso   1.00
C49    C     0.20530   0.15068   0.17911   0.00000  Uiso   1.00
C50    C     0.11123   0.07209   0.13745   0.00000  Uiso   1.00
C51    C     0.96436   0.95708   0.05297   0.00000  Uiso   1.00
C52    C     0.29142   0.33810   0.31227   0.00000  Uiso   1.00
C53    C     0.30279   0.47686   0.31556   0.00000  Uiso   1.00
C54    C     0.25331   0.54744   0.33630   0.00000  Uiso   1.00
C55    C     0.18872   0.70753   0.36693   0.00000  Uiso   1.00
C56    C     0.41242   0.14221   0.34353   0.00000  Uiso   1.00
C57    C     0.52553   0.11629   0.37311   0.00000  Uiso   1.00
C58    C     0.57792   0.02197   0.42019   0.00000  Uiso   1.00
C59    C     0.70119   0.87791   0.49936   0.00000  Uiso   1.00
C60    C     0.23072   0.12007   0.32191   0.00000  Uiso   1.00
C61    C     0.17977   0.09497   0.25499   0.00000  Uiso   1.00
C62    C     0.08574   0.01637   0.21341   0.00000  Uiso   1.00
C63    C     0.05243   0.00603   0.15432   0.00000  Uiso   1.00
C64    C     0.23273   0.27217   0.32911   0.00000  Uiso   1.00
C65    C     0.18323   0.34256   0.34986   0.00000  Uiso   1.00
C66    C     0.19451   0.48139   0.35317   0.00000  Uiso   1.00
C67    C     0.35372   0.07627   0.36037   0.00000  Uiso   1.00
C68    C     0.40596   0.98198   0.40741   0.00000  Uiso   1.00
C69    C     0.51912   0.95592   0.43706   0.00000  Uiso   1.00
H70    H     0.38449   0.29280   0.27779   0.00000  Uiso   1.00
H71    H     0.25074   0.20173   0.16609   0.00000  Uiso   1.00
H72    H     0.34823   0.52786   0.30253   0.00000  Uiso   1.00
H73    H     0.57092   0.16734   0.36007   0.00000  Uiso   1.00
H74    H     0.07655   0.07172   0.04968   0.00000  Uiso   1.00
H75    H     0.28213   0.75938   0.33737   0.00000  Uiso   1.00
H76    H     0.75174   0.99915   0.45871   0.00000  Uiso   1.00
H77    H     0.18502   0.06874   0.33502   0.00000  Uiso   1.00
H78    H     0.04033   0.96536   0.22646   0.00000  Uiso   1.00
H79    H     0.13781   0.29150   0.36289   0.00000  Uiso   1.00
H80    H     0.36051   0.93098   0.42043   0.00000  Uiso   1.00
H81    H     0.90576   0.87988   0.09867   0.00000  Uiso   1.00
H82    H     0.11136   0.56754   0.38636   0.00000  Uiso   1.00
H83    H     0.58095   0.80731   0.50771   0.00000  Uiso   1.00
O84    O     0.89955   0.91188   0.00172   0.00000  Uiso   1.00
O85    O     0.16929   0.81405   0.37917   0.00000  Uiso   1.00
O86    O     0.78539   0.81665   0.53837   0.00000  Uiso   1.00
N87    N     0.05622   0.04073   0.07611   0.00000  Uiso   1.00
N88    N     0.24842   0.68366   0.34507   0.00000  Uiso   1.00
N89    N     0.68747   0.97294   0.45853   0.00000  Uiso   1.00
N90    N     0.96433   0.93750   0.10247   0.00000  Uiso   1.00
N91    N     0.15652   0.58043   0.37144   0.00000  Uiso   1.00
N92    N     0.59557   0.86971   0.48490   0.00000  Uiso   1.00
C93    C     0.33879   0.75854   0.79090   0.00000  Uiso   1.00
C94    C     0.23847   0.83910   0.73815   0.00000  Uiso   1.00
C95    C     0.20530   0.84932   0.67911   0.00000  Uiso   1.00
C96    C     0.11123   0.92791   0.63745   0.00000  Uiso   1.00
C97    C     0.96436   0.04292   0.55297   0.00000  Uiso   1.00
C98    C     0.29142   0.66190   0.81227   0.00000  Uiso   1.00
C99    C     0.30279   0.52314   0.81556   0.00000  Uiso   1.00
C100   C     0.25331   0.45256   0.83630   0.00000  Uiso   1.00
C101   C     0.18872   0.29247   0.86693   0.00000  Uiso   1.00
C102   C     0.41242   0.85779   0.84353   0.00000  Uiso   1.00
C103   C     0.52553   0.88371   0.87311   0.00000  Uiso   1.00
C104   C     0.57792   0.97803   0.92019   0.00000  Uiso   1.00
C105   C     0.70119   0.12209   0.99936   0.00000  Uiso   1.00
C106   C     0.23072   0.87993   0.82191   0.00000  Uiso   1.00
C107   C     0.17977   0.90503   0.75499   0.00000  Uiso   1.00
C108   C     0.08574   0.98363   0.71341   0.00000  Uiso   1.00
C109   C     0.05243   0.99397   0.65432   0.00000  Uiso   1.00
C110   C     0.23273   0.72783   0.82911   0.00000  Uiso   1.00
C111   C     0.18323   0.65744   0.84986   0.00000  Uiso   1.00
C112   C     0.19451   0.51861   0.85317   0.00000  Uiso   1.00
C113   C     0.35372   0.92373   0.86037   0.00000  Uiso   1.00
C114   C     0.40596   0.01802   0.90741   0.00000  Uiso   1.00
C115   C     0.51912   0.04408   0.93706   0.00000  Uiso   1.00
H116   H     0.38449   0.70720   0.77779   0.00000  Uiso   1.00
H117   H     0.25074   0.79827   0.66609   0.00000  Uiso   1.00
H118   H     0.34823   0.47214   0.80253   0.00000  Uiso   1.00
H119   H     0.57092   0.83266   0.86007   0.00000  Uiso   1.00
H120   H     0.07655   0.92828   0.54968   0.00000  Uiso   1.00
H121   H     0.28213   0.24062   0.83737   0.00000  Uiso   1.00
H122   H     0.75174   0.00085   0.95871   0.00000  Uiso   1.00
H123   H     0.18502   0.93126   0.83502   0.00000  Uiso   1.00
H124   H     0.04033   0.03464   0.72646   0.00000  Uiso   1.00
H125   H     0.13781   0.70850   0.86289   0.00000  Uiso   1.00
H126   H     0.36051   0.06902   0.92043   0.00000  Uiso   1.00
H127   H     0.90576   0.12012   0.59867   0.00000  Uiso   1.00
H128   H     0.11136   0.43246   0.88636   0.00000  Uiso   1.00
H129   H     0.58095   0.19269   0.00771   0.00000  Uiso   1.00
O130   O     0.89955   0.08812   0.50172   0.00000  Uiso   1.00
O131   O     0.16929   0.18595   0.87917   0.00000  Uiso   1.00
O132   O     0.78539   0.18335   0.03837   0.00000  Uiso   1.00
N133   N     0.05622   0.95927   0.57611   0.00000  Uiso   1.00
N134   N     0.24842   0.31634   0.84507   0.00000  Uiso   1.00
N135   N     0.68747   0.02706   0.95853   0.00000  Uiso   1.00
N136   N     0.96433   0.06250   0.60247   0.00000  Uiso   1.00
N137   N     0.15652   0.41957   0.87144   0.00000  Uiso   1.00
N138   N     0.59557   0.13029   0.98490   0.00000  Uiso   1.00
C139   C     0.66121   0.75854   0.70910   0.00000  Uiso   1.00
C140   C     0.76153   0.83910   0.76185   0.00000  Uiso   1.00
C141   C     0.79470   0.84932   0.82089   0.00000  Uiso   1.00
C142   C     0.88877   0.92791   0.86255   0.00000  Uiso   1.00
C143   C     0.03564   0.04292   0.94703   0.00000  Uiso   1.00
C144   C     0.70858   0.66190   0.68773   0.00000  Uiso   1.00
C145   C     0.69721   0.52314   0.68444   0.00000  Uiso   1.00
C146   C     0.74669   0.45256   0.66370   0.00000  Uiso   1.00
C147   C     0.81128   0.29247   0.63307   0.00000  Uiso   1.00
C148   C     0.58758   0.85779   0.65647   0.00000  Uiso   1.00
C149   C     0.47447   0.88371   0.62689   0.00000  Uiso   1.00
C150   C     0.42208   0.97803   0.57981   0.00000  Uiso   1.00
C151   C     0.29881   0.12209   0.50064   0.00000  Uiso   1.00
C152   C     0.76928   0.87993   0.67809   0.00000  Uiso   1.00
C153   C     0.82023   0.90503   0.74501   0.00000  Uiso   1.00
C154   C     0.91426   0.98363   0.78659   0.00000  Uiso   1.00
C155   C     0.94757   0.99397   0.84568   0.00000  Uiso   1.00
C156   C     0.76727   0.72783   0.67089   0.00000  Uiso   1.00
C157   C     0.81677   0.65744   0.65014   0.00000  Uiso   1.00
C158   C     0.80549   0.51861   0.64683   0.00000  Uiso   1.00
C159   C     0.64628   0.92373   0.63963   0.00000  Uiso   1.00
C160   C     0.59404   0.01802   0.59259   0.00000  Uiso   1.00
C161   C     0.48088   0.04408   0.56294   0.00000  Uiso   1.00
H162   H     0.61551   0.70720   0.72221   0.00000  Uiso   1.00
H163   H     0.74926   0.79827   0.83391   0.00000  Uiso   1.00
H164   H     0.65177   0.47214   0.69747   0.00000  Uiso   1.00
H165   H     0.42908   0.83266   0.63993   0.00000  Uiso   1.00
H166   H     0.92345   0.92828   0.95032   0.00000  Uiso   1.00
H167   H     0.71787   0.24062   0.66263   0.00000  Uiso   1.00
H168   H     0.24826   0.00085   0.54129   0.00000  Uiso   1.00
H169   H     0.81498   0.93126   0.66498   0.00000  Uiso   1.00
H170   H     0.95967   0.03464   0.77354   0.00000  Uiso   1.00
H171   H     0.86219   0.70850   0.63711   0.00000  Uiso   1.00
H172   H     0.63949   0.06902   0.57957   0.00000  Uiso   1.00
H173   H     0.09424   0.12012   0.90133   0.00000  Uiso   1.00
H174   H     0.88864   0.43246   0.61364   0.00000  Uiso   1.00
H175   H     0.41905   0.19269   0.49229   0.00000  Uiso   1.00
O176   O     0.10045   0.08812   0.99828   0.00000  Uiso   1.00
O177   O     0.83071   0.18595   0.62083   0.00000  Uiso   1.00
O178   O     0.21461   0.18335   0.46163   0.00000  Uiso   1.00
N179   N     0.94378   0.95927   0.92389   0.00000  Uiso   1.00
N180   N     0.75158   0.31634   0.65493   0.00000  Uiso   1.00
N181   N     0.31253   0.02706   0.54147   0.00000  Uiso   1.00
N182   N     0.03567   0.06250   0.89753   0.00000  Uiso   1.00
N183   N     0.84348   0.41957   0.62856   0.00000  Uiso   1.00
N184   N     0.40443   0.13029   0.51510   0.00000  Uiso   1.00
