data_job_00831
_audit_creation_date              2018-12-19
_audit_creation_method            'Materials Studio'
_symmetry_space_group_name_H-M    'P1'
_symmetry_Int_Tables_number       1
_symmetry_cell_setting            triclinic
loop_
_symmetry_equiv_pos_as_xyz
  x,y,z
_cell_length_a                    14.8321
_cell_length_b                    18.8284
_cell_length_c                    21.2969
_cell_angle_alpha                 90.0000
_cell_angle_beta                  90.0000
_cell_angle_gamma                 90.0000
loop_
_atom_site_label
_atom_site_type_symbol
_atom_site_fract_x
_atom_site_fract_y
_atom_site_fract_z
_atom_site_U_iso_or_equiv
_atom_site_adp_type
_atom_site_occupancy
C1     C     0.00757   0.27088   0.62135   0.00000  Uiso   1.00
C2     C     0.91997   0.29488   0.65225   0.00000  Uiso   1.00
C3     C     0.91038   0.35258   0.69224   0.00000  Uiso   1.00
C4     C     0.82462   0.36573   0.71563   0.00000  Uiso   1.00
C5     C     0.69978   0.40952   0.76608   0.00000  Uiso   1.00
C6     C     0.02082   0.19359   0.64065   0.00000  Uiso   1.00
C7     C     0.09603   0.16613   0.67087   0.00000  Uiso   1.00
C8     C     0.09517   0.09402   0.68449   0.00000  Uiso   1.00
C9     C     0.12692   0.98055   0.71688   0.00000  Uiso   1.00
C10    C     0.98924   0.26987   0.55090   0.00000  Uiso   1.00
C11    C     0.03792   0.30654   0.50567   0.00000  Uiso   1.00
C12    C     0.01049   0.29864   0.44373   0.00000  Uiso   1.00
C13    C     0.99322   0.30361   0.33678   0.00000  Uiso   1.00
C14    C     0.87231   0.19164   0.59179   0.00000  Uiso   1.00
C15    C     0.84650   0.25183   0.63619   0.00000  Uiso   1.00
C16    C     0.76073   0.26490   0.65953   0.00000  Uiso   1.00
C17    C     0.75102   0.32262   0.69955   0.00000  Uiso   1.00
C18    C     0.94735   0.15055   0.62459   0.00000  Uiso   1.00
C19    C     0.94638   0.07846   0.63816   0.00000  Uiso   1.00
C20    C     0.02157   0.05090   0.66841   0.00000  Uiso   1.00
C21    C     0.91577   0.22683   0.53484   0.00000  Uiso   1.00
C22    C     0.88826   0.21887   0.47296   0.00000  Uiso   1.00
C23    C     0.93689   0.25552   0.42764   0.00000  Uiso   1.00
H24    H     0.06477   0.30439   0.63385   0.00000  Uiso   1.00
H25    H     0.96726   0.38587   0.70466   0.00000  Uiso   1.00
H26    H     0.15288   0.19946   0.68329   0.00000  Uiso   1.00
H27    H     0.09477   0.33984   0.51811   0.00000  Uiso   1.00
H28    H     0.82675   0.45721   0.77610   0.00000  Uiso   1.00
H29    H     0.21815   0.06414   0.73102   0.00000  Uiso   1.00
H30    H     0.09563   0.36017   0.38271   0.00000  Uiso   1.00
H31    H     0.81511   0.15812   0.57928   0.00000  Uiso   1.00
H32    H     0.70389   0.23158   0.64709   0.00000  Uiso   1.00
H33    H     0.88952   0.04517   0.62573   0.00000  Uiso   1.00
H34    H     0.83141   0.18555   0.46055   0.00000  Uiso   1.00
H35    H     0.61299   0.33199   0.72938   0.00000  Uiso   1.00
H36    H     0.00440   0.93891   0.68430   0.00000  Uiso   1.00
H37    H     0.88187   0.23494   0.33599   0.00000  Uiso   1.00
O38    O     0.65122   0.44555   0.79835   0.00000  Uiso   1.00
O39    O     0.16474   0.92985   0.73919   0.00000  Uiso   1.00
O40    O     0.00398   0.31824   0.28222   0.00000  Uiso   1.00
N41    N     0.79170   0.41767   0.75578   0.00000  Uiso   1.00
N42    N     0.15764   0.05017   0.71365   0.00000  Uiso   1.00
N43    N     0.04310   0.32692   0.38801   0.00000  Uiso   1.00
N44    N     0.67668   0.35029   0.73065   0.00000  Uiso   1.00
N45    N     0.04262   0.98278   0.68851   0.00000  Uiso   1.00
N46    N     0.92808   0.25954   0.36287   0.00000  Uiso   1.00
C47    C     0.49243   0.72912   0.62135   0.00000  Uiso   1.00
C48    C     0.58003   0.70512   0.65225   0.00000  Uiso   1.00
C49    C     0.58962   0.64742   0.69224   0.00000  Uiso   1.00
C50    C     0.67538   0.63427   0.71563   0.00000  Uiso   1.00
C51    C     0.80022   0.59048   0.76608   0.00000  Uiso   1.00
C52    C     0.47918   0.80641   0.64065   0.00000  Uiso   1.00
C53    C     0.40397   0.83387   0.67087   0.00000  Uiso   1.00
C54    C     0.40483   0.90598   0.68449   0.00000  Uiso   1.00
C55    C     0.37308   0.01945   0.71688   0.00000  Uiso   1.00
C56    C     0.51076   0.73013   0.55090   0.00000  Uiso   1.00
C57    C     0.46208   0.69346   0.50567   0.00000  Uiso   1.00
C58    C     0.48951   0.70136   0.44373   0.00000  Uiso   1.00
C59    C     0.50678   0.69639   0.33678   0.00000  Uiso   1.00
C60    C     0.62769   0.80836   0.59179   0.00000  Uiso   1.00
C61    C     0.65350   0.74817   0.63619   0.00000  Uiso   1.00
C62    C     0.73927   0.73510   0.65953   0.00000  Uiso   1.00
C63    C     0.74898   0.67738   0.69955   0.00000  Uiso   1.00
C64    C     0.55265   0.84945   0.62459   0.00000  Uiso   1.00
C65    C     0.55362   0.92154   0.63816   0.00000  Uiso   1.00
C66    C     0.47843   0.94910   0.66841   0.00000  Uiso   1.00
C67    C     0.58423   0.77317   0.53484   0.00000  Uiso   1.00
C68    C     0.61174   0.78113   0.47296   0.00000  Uiso   1.00
C69    C     0.56311   0.74448   0.42764   0.00000  Uiso   1.00
H70    H     0.43523   0.69561   0.63385   0.00000  Uiso   1.00
H71    H     0.53274   0.61413   0.70466   0.00000  Uiso   1.00
H72    H     0.34712   0.80054   0.68329   0.00000  Uiso   1.00
H73    H     0.40523   0.66016   0.51811   0.00000  Uiso   1.00
H74    H     0.67325   0.54279   0.77610   0.00000  Uiso   1.00
H75    H     0.28185   0.93586   0.73102   0.00000  Uiso   1.00
H76    H     0.40437   0.63983   0.38271   0.00000  Uiso   1.00
H77    H     0.68489   0.84188   0.57928   0.00000  Uiso   1.00
H78    H     0.79611   0.76842   0.64709   0.00000  Uiso   1.00
H79    H     0.61048   0.95483   0.62573   0.00000  Uiso   1.00
H80    H     0.66859   0.81445   0.46055   0.00000  Uiso   1.00
H81    H     0.88701   0.66801   0.72938   0.00000  Uiso   1.00
H82    H     0.49560   0.06109   0.68430   0.00000  Uiso   1.00
H83    H     0.61813   0.76506   0.33599   0.00000  Uiso   1.00
O84    O     0.84878   0.55445   0.79835   0.00000  Uiso   1.00
O85    O     0.33526   0.07015   0.73919   0.00000  Uiso   1.00
O86    O     0.49602   0.68176   0.28222   0.00000  Uiso   1.00
N87    N     0.70830   0.58233   0.75578   0.00000  Uiso   1.00
N88    N     0.34236   0.94983   0.71365   0.00000  Uiso   1.00
N89    N     0.45690   0.67308   0.38801   0.00000  Uiso   1.00
N90    N     0.82332   0.64971   0.73065   0.00000  Uiso   1.00
N91    N     0.45738   0.01722   0.68851   0.00000  Uiso   1.00
N92    N     0.57192   0.74046   0.36287   0.00000  Uiso   1.00
C93    C     0.49243   0.77088   0.87865   0.00000  Uiso   1.00
C94    C     0.58003   0.79488   0.84775   0.00000  Uiso   1.00
C95    C     0.58962   0.85258   0.80776   0.00000  Uiso   1.00
C96    C     0.67538   0.86573   0.78437   0.00000  Uiso   1.00
C97    C     0.80022   0.90952   0.73392   0.00000  Uiso   1.00
C98    C     0.47918   0.69359   0.85935   0.00000  Uiso   1.00
C99    C     0.40397   0.66613   0.82913   0.00000  Uiso   1.00
C100   C     0.40483   0.59402   0.81551   0.00000  Uiso   1.00
C101   C     0.37308   0.48055   0.78312   0.00000  Uiso   1.00
C102   C     0.51076   0.76987   0.94910   0.00000  Uiso   1.00
C103   C     0.46208   0.80654   0.99433   0.00000  Uiso   1.00
C104   C     0.48951   0.79864   0.05627   0.00000  Uiso   1.00
C105   C     0.50678   0.80361   0.16322   0.00000  Uiso   1.00
C106   C     0.62769   0.69164   0.90821   0.00000  Uiso   1.00
C107   C     0.65350   0.75183   0.86381   0.00000  Uiso   1.00
C108   C     0.73927   0.76490   0.84047   0.00000  Uiso   1.00
C109   C     0.74898   0.82262   0.80045   0.00000  Uiso   1.00
C110   C     0.55265   0.65055   0.87541   0.00000  Uiso   1.00
C111   C     0.55362   0.57846   0.86184   0.00000  Uiso   1.00
C112   C     0.47843   0.55090   0.83159   0.00000  Uiso   1.00
C113   C     0.58423   0.72683   0.96516   0.00000  Uiso   1.00
C114   C     0.61174   0.71887   0.02704   0.00000  Uiso   1.00
C115   C     0.56311   0.75552   0.07236   0.00000  Uiso   1.00
H116   H     0.43523   0.80439   0.86615   0.00000  Uiso   1.00
H117   H     0.53274   0.88587   0.79534   0.00000  Uiso   1.00
H118   H     0.34712   0.69946   0.81671   0.00000  Uiso   1.00
H119   H     0.40523   0.83984   0.98189   0.00000  Uiso   1.00
H120   H     0.67325   0.95721   0.72390   0.00000  Uiso   1.00
H121   H     0.28185   0.56414   0.76898   0.00000  Uiso   1.00
H122   H     0.40437   0.86017   0.11729   0.00000  Uiso   1.00
H123   H     0.68489   0.65812   0.92072   0.00000  Uiso   1.00
H124   H     0.79611   0.73158   0.85291   0.00000  Uiso   1.00
H125   H     0.61048   0.54517   0.87427   0.00000  Uiso   1.00
H126   H     0.66859   0.68555   0.03945   0.00000  Uiso   1.00
H127   H     0.88701   0.83199   0.77062   0.00000  Uiso   1.00
H128   H     0.49560   0.43891   0.81570   0.00000  Uiso   1.00
H129   H     0.61813   0.73494   0.16401   0.00000  Uiso   1.00
O130   O     0.84878   0.94555   0.70165   0.00000  Uiso   1.00
O131   O     0.33526   0.42985   0.76081   0.00000  Uiso   1.00
O132   O     0.49602   0.81824   0.21778   0.00000  Uiso   1.00
N133   N     0.70830   0.91767   0.74422   0.00000  Uiso   1.00
N134   N     0.34236   0.55017   0.78635   0.00000  Uiso   1.00
N135   N     0.45690   0.82692   0.11199   0.00000  Uiso   1.00
N136   N     0.82332   0.85029   0.76935   0.00000  Uiso   1.00
N137   N     0.45738   0.48278   0.81149   0.00000  Uiso   1.00
N138   N     0.57192   0.75954   0.13713   0.00000  Uiso   1.00
C139   C     0.00757   0.22912   0.87865   0.00000  Uiso   1.00
C140   C     0.91997   0.20512   0.84775   0.00000  Uiso   1.00
C141   C     0.91038   0.14742   0.80776   0.00000  Uiso   1.00
C142   C     0.82462   0.13427   0.78437   0.00000  Uiso   1.00
C143   C     0.69978   0.09048   0.73392   0.00000  Uiso   1.00
C144   C     0.02082   0.30641   0.85935   0.00000  Uiso   1.00
C145   C     0.09603   0.33387   0.82913   0.00000  Uiso   1.00
C146   C     0.09517   0.40598   0.81551   0.00000  Uiso   1.00
C147   C     0.12692   0.51945   0.78312   0.00000  Uiso   1.00
C148   C     0.98924   0.23013   0.94910   0.00000  Uiso   1.00
C149   C     0.03792   0.19346   0.99433   0.00000  Uiso   1.00
C150   C     0.01049   0.20136   0.05627   0.00000  Uiso   1.00
C151   C     0.99322   0.19639   0.16322   0.00000  Uiso   1.00
C152   C     0.87231   0.30836   0.90821   0.00000  Uiso   1.00
C153   C     0.84650   0.24817   0.86381   0.00000  Uiso   1.00
C154   C     0.76073   0.23510   0.84047   0.00000  Uiso   1.00
C155   C     0.75102   0.17738   0.80045   0.00000  Uiso   1.00
C156   C     0.94735   0.34945   0.87541   0.00000  Uiso   1.00
C157   C     0.94638   0.42154   0.86184   0.00000  Uiso   1.00
C158   C     0.02157   0.44910   0.83159   0.00000  Uiso   1.00
C159   C     0.91577   0.27317   0.96516   0.00000  Uiso   1.00
C160   C     0.88826   0.28113   0.02704   0.00000  Uiso   1.00
C161   C     0.93689   0.24448   0.07236   0.00000  Uiso   1.00
H162   H     0.06477   0.19561   0.86615   0.00000  Uiso   1.00
H163   H     0.96726   0.11413   0.79534   0.00000  Uiso   1.00
H164   H     0.15288   0.30054   0.81671   0.00000  Uiso   1.00
H165   H     0.09477   0.16016   0.98189   0.00000  Uiso   1.00
H166   H     0.82675   0.04279   0.72390   0.00000  Uiso   1.00
H167   H     0.21815   0.43586   0.76898   0.00000  Uiso   1.00
H168   H     0.09563   0.13983   0.11729   0.00000  Uiso   1.00
H169   H     0.81511   0.34188   0.92072   0.00000  Uiso   1.00
H170   H     0.70389   0.26842   0.85291   0.00000  Uiso   1.00
H171   H     0.88952   0.45483   0.87427   0.00000  Uiso   1.00
H172   H     0.83141   0.31445   0.03945   0.00000  Uiso   1.00
H173   H     0.61299   0.16801   0.77062   0.00000  Uiso   1.00
H174   H     0.00440   0.56109   0.81570   0.00000  Uiso   1.00
H175   H     0.88187   0.26506   0.16401   0.00000  Uiso   1.00
O176   O     0.65122   0.05445   0.70165   0.00000  Uiso   1.00
O177   O     0.16474   0.57015   0.76081   0.00000  Uiso   1.00
O178   O     0.00398   0.18176   0.21778   0.00000  Uiso   1.00
N179   N     0.79170   0.08233   0.74422   0.00000  Uiso   1.00
N180   N     0.15764   0.44983   0.78635   0.00000  Uiso   1.00
N181   N     0.04310   0.17308   0.11199   0.00000  Uiso   1.00
N182   N     0.67668   0.14971   0.76935   0.00000  Uiso   1.00
N183   N     0.04262   0.51722   0.81149   0.00000  Uiso   1.00
N184   N     0.92808   0.24046   0.13713   0.00000  Uiso   1.00
C185   C     0.99243   0.72912   0.37865   0.00000  Uiso   1.00
C186   C     0.08003   0.70512   0.34775   0.00000  Uiso   1.00
C187   C     0.08962   0.64742   0.30776   0.00000  Uiso   1.00
C188   C     0.17538   0.63427   0.28437   0.00000  Uiso   1.00
C189   C     0.30022   0.59048   0.23392   0.00000  Uiso   1.00
C190   C     0.97918   0.80641   0.35935   0.00000  Uiso   1.00
C191   C     0.90397   0.83387   0.32913   0.00000  Uiso   1.00
C192   C     0.90483   0.90598   0.31551   0.00000  Uiso   1.00
C193   C     0.87308   0.01945   0.28312   0.00000  Uiso   1.00
C194   C     0.01076   0.73013   0.44910   0.00000  Uiso   1.00
C195   C     0.96208   0.69346   0.49433   0.00000  Uiso   1.00
C196   C     0.98951   0.70136   0.55627   0.00000  Uiso   1.00
C197   C     0.00678   0.69639   0.66322   0.00000  Uiso   1.00
C198   C     0.12769   0.80836   0.40821   0.00000  Uiso   1.00
C199   C     0.15350   0.74817   0.36381   0.00000  Uiso   1.00
C200   C     0.23927   0.73510   0.34047   0.00000  Uiso   1.00
C201   C     0.24898   0.67738   0.30045   0.00000  Uiso   1.00
C202   C     0.05265   0.84945   0.37541   0.00000  Uiso   1.00
C203   C     0.05362   0.92154   0.36184   0.00000  Uiso   1.00
C204   C     0.97843   0.94910   0.33159   0.00000  Uiso   1.00
C205   C     0.08423   0.77317   0.46516   0.00000  Uiso   1.00
C206   C     0.11174   0.78113   0.52704   0.00000  Uiso   1.00
C207   C     0.06311   0.74448   0.57236   0.00000  Uiso   1.00
H208   H     0.93523   0.69561   0.36615   0.00000  Uiso   1.00
H209   H     0.03274   0.61413   0.29534   0.00000  Uiso   1.00
H210   H     0.84712   0.80054   0.31671   0.00000  Uiso   1.00
H211   H     0.90523   0.66016   0.48189   0.00000  Uiso   1.00
H212   H     0.17325   0.54279   0.22390   0.00000  Uiso   1.00
H213   H     0.78185   0.93586   0.26898   0.00000  Uiso   1.00
H214   H     0.90437   0.63983   0.61729   0.00000  Uiso   1.00
H215   H     0.18489   0.84188   0.42072   0.00000  Uiso   1.00
H216   H     0.29611   0.76842   0.35291   0.00000  Uiso   1.00
H217   H     0.11048   0.95483   0.37427   0.00000  Uiso   1.00
H218   H     0.16859   0.81445   0.53945   0.00000  Uiso   1.00
H219   H     0.38701   0.66801   0.27062   0.00000  Uiso   1.00
H220   H     0.99560   0.06109   0.31570   0.00000  Uiso   1.00
H221   H     0.11813   0.76506   0.66401   0.00000  Uiso   1.00
O222   O     0.34878   0.55445   0.20165   0.00000  Uiso   1.00
O223   O     0.83526   0.07015   0.26081   0.00000  Uiso   1.00
O224   O     0.99602   0.68176   0.71778   0.00000  Uiso   1.00
N225   N     0.20830   0.58233   0.24422   0.00000  Uiso   1.00
N226   N     0.84236   0.94983   0.28635   0.00000  Uiso   1.00
N227   N     0.95690   0.67308   0.61199   0.00000  Uiso   1.00
N228   N     0.32332   0.64971   0.26935   0.00000  Uiso   1.00
N229   N     0.95738   0.01722   0.31149   0.00000  Uiso   1.00
N230   N     0.07192   0.74046   0.63713   0.00000  Uiso   1.00
C231   C     0.50757   0.27088   0.37865   0.00000  Uiso   1.00
C232   C     0.41997   0.29488   0.34775   0.00000  Uiso   1.00
C233   C     0.41038   0.35258   0.30776   0.00000  Uiso   1.00
C234   C     0.32462   0.36573   0.28437   0.00000  Uiso   1.00
C235   C     0.19978   0.40952   0.23392   0.00000  Uiso   1.00
C236   C     0.52082   0.19359   0.35935   0.00000  Uiso   1.00
C237   C     0.59603   0.16613   0.32913   0.00000  Uiso   1.00
C238   C     0.59517   0.09402   0.31551   0.00000  Uiso   1.00
C239   C     0.62692   0.98055   0.28312   0.00000  Uiso   1.00
C240   C     0.48924   0.26987   0.44910   0.00000  Uiso   1.00
C241   C     0.53792   0.30654   0.49433   0.00000  Uiso   1.00
C242   C     0.51049   0.29864   0.55627   0.00000  Uiso   1.00
C243   C     0.49322   0.30361   0.66322   0.00000  Uiso   1.00
C244   C     0.37231   0.19164   0.40821   0.00000  Uiso   1.00
C245   C     0.34650   0.25183   0.36381   0.00000  Uiso   1.00
C246   C     0.26073   0.26490   0.34047   0.00000  Uiso   1.00
C247   C     0.25102   0.32262   0.30045   0.00000  Uiso   1.00
C248   C     0.44735   0.15055   0.37541   0.00000  Uiso   1.00
C249   C     0.44638   0.07846   0.36184   0.00000  Uiso   1.00
C250   C     0.52157   0.05090   0.33159   0.00000  Uiso   1.00
C251   C     0.41577   0.22683   0.46516   0.00000  Uiso   1.00
C252   C     0.38826   0.21887   0.52704   0.00000  Uiso   1.00
C253   C     0.43689   0.25552   0.57236   0.00000  Uiso   1.00
H254   H     0.56477   0.30439   0.36615   0.00000  Uiso   1.00
H255   H     0.46726   0.38587   0.29534   0.00000  Uiso   1.00
H256   H     0.65288   0.19946   0.31671   0.00000  Uiso   1.00
H257   H     0.59477   0.33984   0.48189   0.00000  Uiso   1.00
H258   H     0.32675   0.45721   0.22390   0.00000  Uiso   1.00
H259   H     0.71815   0.06414   0.26898   0.00000  Uiso   1.00
H260   H     0.59563   0.36017   0.61729   0.00000  Uiso   1.00
H261   H     0.31511   0.15812   0.42072   0.00000  Uiso   1.00
H262   H     0.20389   0.23158   0.35291   0.00000  Uiso   1.00
H263   H     0.38952   0.04517   0.37427   0.00000  Uiso   1.00
H264   H     0.33141   0.18555   0.53945   0.00000  Uiso   1.00
H265   H     0.11299   0.33199   0.27062   0.00000  Uiso   1.00
H266   H     0.50440   0.93891   0.31570   0.00000  Uiso   1.00
H267   H     0.38187   0.23494   0.66401   0.00000  Uiso   1.00
O268   O     0.15122   0.44555   0.20165   0.00000  Uiso   1.00
O269   O     0.66474   0.92985   0.26081   0.00000  Uiso   1.00
O270   O     0.50398   0.31824   0.71778   0.00000  Uiso   1.00
N271   N     0.29170   0.41767   0.24422   0.00000  Uiso   1.00
N272   N     0.65764   0.05017   0.28635   0.00000  Uiso   1.00
N273   N     0.54310   0.32692   0.61199   0.00000  Uiso   1.00
N274   N     0.17668   0.35029   0.26935   0.00000  Uiso   1.00
N275   N     0.54262   0.98278   0.31149   0.00000  Uiso   1.00
N276   N     0.42808   0.25954   0.63713   0.00000  Uiso   1.00
C277   C     0.50757   0.22912   0.12135   0.00000  Uiso   1.00
C278   C     0.41997   0.20512   0.15225   0.00000  Uiso   1.00
C279   C     0.41038   0.14742   0.19224   0.00000  Uiso   1.00
C280   C     0.32462   0.13427   0.21563   0.00000  Uiso   1.00
C281   C     0.19978   0.09048   0.26608   0.00000  Uiso   1.00
C282   C     0.52082   0.30641   0.14065   0.00000  Uiso   1.00
C283   C     0.59603   0.33387   0.17087   0.00000  Uiso   1.00
C284   C     0.59517   0.40598   0.18449   0.00000  Uiso   1.00
C285   C     0.62692   0.51945   0.21688   0.00000  Uiso   1.00
C286   C     0.48924   0.23013   0.05090   0.00000  Uiso   1.00
C287   C     0.53792   0.19346   0.00567   0.00000  Uiso   1.00
C288   C     0.51049   0.20136   0.94373   0.00000  Uiso   1.00
C289   C     0.49322   0.19639   0.83678   0.00000  Uiso   1.00
C290   C     0.37231   0.30836   0.09179   0.00000  Uiso   1.00
C291   C     0.34650   0.24817   0.13619   0.00000  Uiso   1.00
C292   C     0.26073   0.23510   0.15953   0.00000  Uiso   1.00
C293   C     0.25102   0.17738   0.19955   0.00000  Uiso   1.00
C294   C     0.44735   0.34945   0.12459   0.00000  Uiso   1.00
C295   C     0.44638   0.42154   0.13816   0.00000  Uiso   1.00
C296   C     0.52157   0.44910   0.16841   0.00000  Uiso   1.00
C297   C     0.41577   0.27317   0.03484   0.00000  Uiso   1.00
C298   C     0.38826   0.28113   0.97296   0.00000  Uiso   1.00
C299   C     0.43689   0.24448   0.92764   0.00000  Uiso   1.00
H300   H     0.56477   0.19561   0.13385   0.00000  Uiso   1.00
H301   H     0.46726   0.11413   0.20466   0.00000  Uiso   1.00
H302   H     0.65288   0.30054   0.18329   0.00000  Uiso   1.00
H303   H     0.59477   0.16016   0.01811   0.00000  Uiso   1.00
H304   H     0.32675   0.04279   0.27610   0.00000  Uiso   1.00
H305   H     0.71815   0.43586   0.23102   0.00000  Uiso   1.00
H306   H     0.59563   0.13983   0.88271   0.00000  Uiso   1.00
H307   H     0.31511   0.34188   0.07928   0.00000  Uiso   1.00
H308   H     0.20389   0.26842   0.14709   0.00000  Uiso   1.00
H309   H     0.38952   0.45483   0.12573   0.00000  Uiso   1.00
H310   H     0.33141   0.31445   0.96055   0.00000  Uiso   1.00
H311   H     0.11299   0.16801   0.22938   0.00000  Uiso   1.00
H312   H     0.50440   0.56109   0.18430   0.00000  Uiso   1.00
H313   H     0.38187   0.26506   0.83599   0.00000  Uiso   1.00
O314   O     0.15122   0.05445   0.29835   0.00000  Uiso   1.00
O315   O     0.66474   0.57015   0.23919   0.00000  Uiso   1.00
O316   O     0.50398   0.18176   0.78222   0.00000  Uiso   1.00
N317   N     0.29170   0.08233   0.25578   0.00000  Uiso   1.00
N318   N     0.65764   0.44983   0.21365   0.00000  Uiso   1.00
N319   N     0.54310   0.17308   0.88801   0.00000  Uiso   1.00
N320   N     0.17668   0.14971   0.23065   0.00000  Uiso   1.00
N321   N     0.54262   0.51722   0.18851   0.00000  Uiso   1.00
N322   N     0.42808   0.24046   0.86287   0.00000  Uiso   1.00
C323   C     0.99243   0.77088   0.12135   0.00000  Uiso   1.00
C324   C     0.08003   0.79488   0.15225   0.00000  Uiso   1.00
C325   C     0.08962   0.85258   0.19224   0.00000  Uiso   1.00
C326   C     0.17538   0.86573   0.21563   0.00000  Uiso   1.00
C327   C     0.30022   0.90952   0.26608   0.00000  Uiso   1.00
C328   C     0.97918   0.69359   0.14065   0.00000  Uiso   1.00
C329   C     0.90397   0.66613   0.17087   0.00000  Uiso   1.00
C330   C     0.90483   0.59402   0.18449   0.00000  Uiso   1.00
C331   C     0.87308   0.48055   0.21688   0.00000  Uiso   1.00
C332   C     0.01076   0.76987   0.05090   0.00000  Uiso   1.00
C333   C     0.96208   0.80654   0.00567   0.00000  Uiso   1.00
C334   C     0.98951   0.79864   0.94373   0.00000  Uiso   1.00
C335   C     0.00678   0.80361   0.83678   0.00000  Uiso   1.00
C336   C     0.12769   0.69164   0.09179   0.00000  Uiso   1.00
C337   C     0.15350   0.75183   0.13619   0.00000  Uiso   1.00
C338   C     0.23927   0.76490   0.15953   0.00000  Uiso   1.00
C339   C     0.24898   0.82262   0.19955   0.00000  Uiso   1.00
C340   C     0.05265   0.65055   0.12459   0.00000  Uiso   1.00
C341   C     0.05362   0.57846   0.13816   0.00000  Uiso   1.00
C342   C     0.97843   0.55090   0.16841   0.00000  Uiso   1.00
C343   C     0.08423   0.72683   0.03484   0.00000  Uiso   1.00
C344   C     0.11174   0.71887   0.97296   0.00000  Uiso   1.00
C345   C     0.06311   0.75552   0.92764   0.00000  Uiso   1.00
H346   H     0.93523   0.80439   0.13385   0.00000  Uiso   1.00
H347   H     0.03274   0.88587   0.20466   0.00000  Uiso   1.00
H348   H     0.84712   0.69946   0.18329   0.00000  Uiso   1.00
H349   H     0.90523   0.83984   0.01811   0.00000  Uiso   1.00
H350   H     0.17325   0.95721   0.27610   0.00000  Uiso   1.00
H351   H     0.78185   0.56414   0.23102   0.00000  Uiso   1.00
H352   H     0.90437   0.86017   0.88271   0.00000  Uiso   1.00
H353   H     0.18489   0.65812   0.07928   0.00000  Uiso   1.00
H354   H     0.29611   0.73158   0.14709   0.00000  Uiso   1.00
H355   H     0.11048   0.54517   0.12573   0.00000  Uiso   1.00
H356   H     0.16859   0.68555   0.96055   0.00000  Uiso   1.00
H357   H     0.38701   0.83199   0.22938   0.00000  Uiso   1.00
H358   H     0.99560   0.43891   0.18430   0.00000  Uiso   1.00
H359   H     0.11813   0.73494   0.83599   0.00000  Uiso   1.00
O360   O     0.34878   0.94555   0.29835   0.00000  Uiso   1.00
O361   O     0.83526   0.42985   0.23919   0.00000  Uiso   1.00
O362   O     0.99602   0.81824   0.78222   0.00000  Uiso   1.00
N363   N     0.20830   0.91767   0.25578   0.00000  Uiso   1.00
N364   N     0.84236   0.55017   0.21365   0.00000  Uiso   1.00
N365   N     0.95690   0.82692   0.88801   0.00000  Uiso   1.00
N366   N     0.32332   0.85029   0.23065   0.00000  Uiso   1.00
N367   N     0.95738   0.48278   0.18851   0.00000  Uiso   1.00
N368   N     0.07192   0.75954   0.86287   0.00000  Uiso   1.00
