data_job_05235
_audit_creation_date              2018-12-19
_audit_creation_method            'Materials Studio'
_symmetry_space_group_name_H-M    'P1'
_symmetry_Int_Tables_number       1
_symmetry_cell_setting            triclinic
loop_
_symmetry_equiv_pos_as_xyz
  x,y,z
_cell_length_a                    17.4666
_cell_length_b                    14.7141
_cell_length_c                    22.4161
_cell_angle_alpha                 90.0000
_cell_angle_beta                  90.4758
_cell_angle_gamma                 90.0000
loop_
_atom_site_label
_atom_site_type_symbol
_atom_site_fract_x
_atom_site_fract_y
_atom_site_fract_z
_atom_site_U_iso_or_equiv
_atom_site_adp_type
_atom_site_occupancy
C1     C     0.24257   0.83018   0.75645   0.00000  Uiso   1.00
C2     C     0.20475   0.73892   0.76928   0.00000  Uiso   1.00
C3     C     0.12926   0.72624   0.78621   0.00000  Uiso   1.00
C4     C     0.10562   0.63740   0.79586   0.00000  Uiso   1.00
C5     C     0.03928   0.50687   0.81688   0.00000  Uiso   1.00
C6     C     0.31215   0.83567   0.79785   0.00000  Uiso   1.00
C7     C     0.32695   0.90435   0.83878   0.00000  Uiso   1.00
C8     C     0.39371   0.89696   0.87248   0.00000  Uiso   1.00
C9     C     0.49413   0.91668   0.93781   0.00000  Uiso   1.00
C10    C     0.27405   0.82329   0.69337   0.00000  Uiso   1.00
C11    C     0.25683   0.88156   0.64646   0.00000  Uiso   1.00
C12    C     0.29154   0.86376   0.59220   0.00000  Uiso   1.00
C13    C     0.33280   0.86425   0.49531   0.00000  Uiso   1.00
C14    C     0.33483   0.69496   0.74350   0.00000  Uiso   1.00
C15    C     0.25487   0.66547   0.76225   0.00000  Uiso   1.00
C16    C     0.23133   0.57663   0.77188   0.00000  Uiso   1.00
C17    C     0.15581   0.56382   0.78881   0.00000  Uiso   1.00
C18    C     0.36226   0.76223   0.79081   0.00000  Uiso   1.00
C19    C     0.42902   0.75474   0.82445   0.00000  Uiso   1.00
C20    C     0.44392   0.82338   0.86543   0.00000  Uiso   1.00
C21    C     0.32416   0.74984   0.68633   0.00000  Uiso   1.00
C22    C     0.35890   0.73195   0.63213   0.00000  Uiso   1.00
C23    C     0.34174   0.79018   0.58515   0.00000  Uiso   1.00
H24    H     0.20356   0.88736   0.76193   0.00000  Uiso   1.00
H25    H     0.09050   0.78309   0.79165   0.00000  Uiso   1.00
H26    H     0.28816   0.96118   0.84421   0.00000  Uiso   1.00
H27    H     0.21805   0.93839   0.65192   0.00000  Uiso   1.00
H28    H     0.98725   0.63510   0.82152   0.00000  Uiso   1.00
H29    H     0.40405   0.01063   0.93233   0.00000  Uiso   1.00
H30    H     0.25621   0.96258   0.52685   0.00000  Uiso   1.00
H31    H     0.37385   0.63778   0.73803   0.00000  Uiso   1.00
H32    H     0.27013   0.51980   0.76643   0.00000  Uiso   1.00
H33    H     0.46779   0.69790   0.81900   0.00000  Uiso   1.00
H34    H     0.39768   0.67511   0.62670   0.00000  Uiso   1.00
H35    H     0.13304   0.42141   0.80105   0.00000  Uiso   1.00
H36    H     0.54984   0.79694   0.91187   0.00000  Uiso   1.00
H37    H     0.40200   0.74888   0.50638   0.00000  Uiso   1.00
O38    O     0.98885   0.45516   0.83042   0.00000  Uiso   1.00
O39    O     0.53567   0.94784   0.97580   0.00000  Uiso   1.00
O40    O     0.34171   0.88480   0.44381   0.00000  Uiso   1.00
N41    N     0.03579   0.60100   0.81279   0.00000  Uiso   1.00
N42    N     0.42547   0.95208   0.91641   0.00000  Uiso   1.00
N43    N     0.28727   0.90718   0.53731   0.00000  Uiso   1.00
N44    N     0.11424   0.48601   0.80178   0.00000  Uiso   1.00
N45    N     0.50392   0.83710   0.90539   0.00000  Uiso   1.00
N46    N     0.36572   0.79219   0.52630   0.00000  Uiso   1.00
C47    C     0.75377   0.27718   0.74807   0.00000  Uiso   1.00
C48    C     0.81113   0.20265   0.76383   0.00000  Uiso   1.00
C49    C     0.88746   0.21593   0.77915   0.00000  Uiso   1.00
C50    C     0.93049   0.13894   0.79202   0.00000  Uiso   1.00
C51    C     0.02446   0.03646   0.81683   0.00000  Uiso   1.00
C52    C     0.72231   0.25338   0.68636   0.00000  Uiso   1.00
C53    C     0.72395   0.30932   0.63654   0.00000  Uiso   1.00
C54    C     0.69219   0.27504   0.58420   0.00000  Uiso   1.00
C55    C     0.64821   0.25135   0.48875   0.00000  Uiso   1.00
C56    C     0.68723   0.26563   0.79101   0.00000  Uiso   1.00
C57    C     0.65935   0.33188   0.82918   0.00000  Uiso   1.00
C58    C     0.59805   0.30792   0.86494   0.00000  Uiso   1.00
C59    C     0.49960   0.30325   0.93197   0.00000  Uiso   1.00
C60    C     0.69445   0.11684   0.74370   0.00000  Uiso   1.00
C61    C     0.77891   0.11556   0.76146   0.00000  Uiso   1.00
C62    C     0.82183   0.03853   0.77432   0.00000  Uiso   1.00
C63    C     0.89821   0.05170   0.78965   0.00000  Uiso   1.00
C64    C     0.69009   0.16629   0.68399   0.00000  Uiso   1.00
C65    C     0.65831   0.13193   0.63171   0.00000  Uiso   1.00
C66    C     0.65990   0.18780   0.58183   0.00000  Uiso   1.00
C67    C     0.65500   0.17854   0.78864   0.00000  Uiso   1.00
C68    C     0.59372   0.15448   0.82435   0.00000  Uiso   1.00
C69    C     0.56576   0.22068   0.86256   0.00000  Uiso   1.00
H70    H     0.77886   0.34498   0.74991   0.00000  Uiso   1.00
H71    H     0.91238   0.28334   0.78097   0.00000  Uiso   1.00
H72    H     0.74888   0.37672   0.63839   0.00000  Uiso   1.00
H73    H     0.68430   0.39927   0.83100   0.00000  Uiso   1.00
H74    H     0.04621   0.17658   0.81434   0.00000  Uiso   1.00
H75    H     0.70144   0.37349   0.51371   0.00000  Uiso   1.00
H76    H     0.56526   0.42105   0.91986   0.00000  Uiso   1.00
H77    H     0.66936   0.04903   0.74186   0.00000  Uiso   1.00
H78    H     0.79688   0.97115   0.77248   0.00000  Uiso   1.00
H79    H     0.63338   0.06453   0.62990   0.00000  Uiso   1.00
H80    H     0.56880   0.08708   0.82250   0.00000  Uiso   1.00
H81    H     0.95246   0.92320   0.80744   0.00000  Uiso   1.00
H82    H     0.60769   0.12011   0.50681   0.00000  Uiso   1.00
H83    H     0.47152   0.16766   0.91296   0.00000  Uiso   1.00
O84    O     0.08520   0.00399   0.83116   0.00000  Uiso   1.00
O85    O     0.63286   0.26234   0.43675   0.00000  Uiso   1.00
O86    O     0.45421   0.32473   0.96961   0.00000  Uiso   1.00
N87    N     0.00664   0.12764   0.80853   0.00000  Uiso   1.00
N88    N     0.68431   0.31173   0.52745   0.00000  Uiso   1.00
N89    N     0.55699   0.35620   0.90716   0.00000  Uiso   1.00
N90    N     0.95620   0.99129   0.80482   0.00000  Uiso   1.00
N91    N     0.63387   0.17539   0.52374   0.00000  Uiso   1.00
N92    N     0.50654   0.21986   0.90345   0.00000  Uiso   1.00
C93    C     0.29185   0.66980   0.25619   0.00000  Uiso   1.00
C94    C     0.32963   0.76109   0.24335   0.00000  Uiso   1.00
C95    C     0.40513   0.77381   0.22643   0.00000  Uiso   1.00
C96    C     0.42874   0.86266   0.21678   0.00000  Uiso   1.00
C97    C     0.49504   0.99323   0.19581   0.00000  Uiso   1.00
C98    C     0.26040   0.67670   0.31928   0.00000  Uiso   1.00
C99    C     0.27767   0.61847   0.36620   0.00000  Uiso   1.00
C100   C     0.24298   0.63628   0.42047   0.00000  Uiso   1.00
C101   C     0.20175   0.63581   0.51737   0.00000  Uiso   1.00
C102   C     0.22227   0.66426   0.21481   0.00000  Uiso   1.00
C103   C     0.20748   0.59554   0.17390   0.00000  Uiso   1.00
C104   C     0.14069   0.60287   0.14022   0.00000  Uiso   1.00
C105   C     0.04026   0.58307   0.07491   0.00000  Uiso   1.00
C106   C     0.19954   0.80498   0.26913   0.00000  Uiso   1.00
C107   C     0.27949   0.83450   0.25038   0.00000  Uiso   1.00
C108   C     0.30300   0.92336   0.24076   0.00000  Uiso   1.00
C109   C     0.37851   0.93621   0.22383   0.00000  Uiso   1.00
C110   C     0.21026   0.75012   0.32631   0.00000  Uiso   1.00
C111   C     0.17554   0.76802   0.38052   0.00000  Uiso   1.00
C112   C     0.19275   0.70983   0.42751   0.00000  Uiso   1.00
C113   C     0.17213   0.73768   0.22184   0.00000  Uiso   1.00
C114   C     0.10535   0.74510   0.18822   0.00000  Uiso   1.00
C115   C     0.09046   0.67642   0.14727   0.00000  Uiso   1.00
H116   H     0.33089   0.61264   0.25071   0.00000  Uiso   1.00
H117   H     0.44391   0.71697   0.22100   0.00000  Uiso   1.00
H118   H     0.31646   0.56165   0.36074   0.00000  Uiso   1.00
H119   H     0.24629   0.53874   0.16847   0.00000  Uiso   1.00
H120   H     0.54712   0.86502   0.19117   0.00000  Uiso   1.00
H121   H     0.27837   0.53750   0.48583   0.00000  Uiso   1.00
H122   H     0.13039   0.48918   0.08038   0.00000  Uiso   1.00
H123   H     0.16050   0.86214   0.27461   0.00000  Uiso   1.00
H124   H     0.26418   0.98016   0.24620   0.00000  Uiso   1.00
H125   H     0.13674   0.82484   0.38595   0.00000  Uiso   1.00
H126   H     0.06656   0.80193   0.19368   0.00000  Uiso   1.00
H127   H     0.40125   0.07864   0.21164   0.00000  Uiso   1.00
H128   H     0.13249   0.75111   0.50629   0.00000  Uiso   1.00
H129   H     0.98451   0.70280   0.10085   0.00000  Uiso   1.00
O130   O     0.54547   0.04497   0.18231   0.00000  Uiso   1.00
O131   O     0.19286   0.61527   0.56887   0.00000  Uiso   1.00
O132   O     0.99872   0.55187   0.03694   0.00000  Uiso   1.00
N133   N     0.49856   0.89910   0.19988   0.00000  Uiso   1.00
N134   N     0.24730   0.59290   0.47536   0.00000  Uiso   1.00
N135   N     0.10894   0.54771   0.09632   0.00000  Uiso   1.00
N136   N     0.42006   0.01404   0.21089   0.00000  Uiso   1.00
N137   N     0.16880   0.70784   0.48637   0.00000  Uiso   1.00
N138   N     0.03045   0.66265   0.10733   0.00000  Uiso   1.00
C139   C     0.78062   0.22287   0.26469   0.00000  Uiso   1.00
C140   C     0.72324   0.29736   0.24890   0.00000  Uiso   1.00
C141   C     0.64692   0.28403   0.23357   0.00000  Uiso   1.00
C142   C     0.60387   0.36098   0.22065   0.00000  Uiso   1.00
C143   C     0.50988   0.46340   0.19576   0.00000  Uiso   1.00
C144   C     0.84716   0.23444   0.22173   0.00000  Uiso   1.00
C145   C     0.87505   0.16820   0.18357   0.00000  Uiso   1.00
C146   C     0.93633   0.19219   0.14779   0.00000  Uiso   1.00
C147   C     0.03478   0.19690   0.08075   0.00000  Uiso   1.00
C148   C     0.81208   0.24671   0.32639   0.00000  Uiso   1.00
C149   C     0.81049   0.19077   0.37621   0.00000  Uiso   1.00
C150   C     0.84225   0.22507   0.42854   0.00000  Uiso   1.00
C151   C     0.88622   0.24882   0.52399   0.00000  Uiso   1.00
C152   C     0.83988   0.38324   0.26902   0.00000  Uiso   1.00
C153   C     0.75543   0.38447   0.25126   0.00000  Uiso   1.00
C154   C     0.71248   0.46146   0.23837   0.00000  Uiso   1.00
C155   C     0.63611   0.44825   0.22302   0.00000  Uiso   1.00
C156   C     0.87935   0.32155   0.22409   0.00000  Uiso   1.00
C157   C     0.94061   0.34564   0.18836   0.00000  Uiso   1.00
C158   C     0.96858   0.27945   0.15015   0.00000  Uiso   1.00
C159   C     0.84427   0.33382   0.32874   0.00000  Uiso   1.00
C160   C     0.87605   0.36821   0.38101   0.00000  Uiso   1.00
C161   C     0.87450   0.31234   0.43090   0.00000  Uiso   1.00
H162   H     0.75557   0.15505   0.26285   0.00000  Uiso   1.00
H163   H     0.62203   0.21661   0.23174   0.00000  Uiso   1.00
H164   H     0.85013   0.10080   0.18176   0.00000  Uiso   1.00
H165   H     0.78557   0.12337   0.37437   0.00000  Uiso   1.00
H166   H     0.48819   0.32326   0.19828   0.00000  Uiso   1.00
H167   H     0.96917   0.07906   0.09289   0.00000  Uiso   1.00
H168   H     0.83303   0.12665   0.49905   0.00000  Uiso   1.00
H169   H     0.86495   0.45106   0.27086   0.00000  Uiso   1.00
H170   H     0.73741   0.52887   0.24019   0.00000  Uiso   1.00
H171   H     0.96551   0.41305   0.19020   0.00000  Uiso   1.00
H172   H     0.90095   0.43562   0.38281   0.00000  Uiso   1.00
H173   H     0.58183   0.57670   0.20513   0.00000  Uiso   1.00
H174   H     0.06282   0.33250   0.09974   0.00000  Uiso   1.00
H175   H     0.92668   0.38009   0.50590   0.00000  Uiso   1.00
O176   O     0.44914   0.49582   0.18137   0.00000  Uiso   1.00
O177   O     0.08018   0.17543   0.04312   0.00000  Uiso   1.00
O178   O     0.90157   0.23786   0.57598   0.00000  Uiso   1.00
N179   N     0.52772   0.37224   0.20411   0.00000  Uiso   1.00
N180   N     0.97740   0.14392   0.10557   0.00000  Uiso   1.00
N181   N     0.85015   0.18840   0.48529   0.00000  Uiso   1.00
N182   N     0.57811   0.50861   0.20780   0.00000  Uiso   1.00
N183   N     0.02779   0.28030   0.10926   0.00000  Uiso   1.00
N184   N     0.90054   0.32478   0.48898   0.00000  Uiso   1.00
C185   C     0.24257   0.16982   0.25645   0.00000  Uiso   1.00
C186   C     0.20475   0.26108   0.26928   0.00000  Uiso   1.00
C187   C     0.12926   0.27376   0.28621   0.00000  Uiso   1.00
C188   C     0.10562   0.36260   0.29586   0.00000  Uiso   1.00
C189   C     0.03928   0.49313   0.31688   0.00000  Uiso   1.00
C190   C     0.31215   0.16433   0.29785   0.00000  Uiso   1.00
C191   C     0.32695   0.09565   0.33878   0.00000  Uiso   1.00
C192   C     0.39371   0.10304   0.37248   0.00000  Uiso   1.00
C193   C     0.49413   0.08332   0.43781   0.00000  Uiso   1.00
C194   C     0.27405   0.17671   0.19337   0.00000  Uiso   1.00
C195   C     0.25683   0.11844   0.14646   0.00000  Uiso   1.00
C196   C     0.29154   0.13624   0.09220   0.00000  Uiso   1.00
C197   C     0.33280   0.13575   0.99531   0.00000  Uiso   1.00
C198   C     0.33483   0.30504   0.24350   0.00000  Uiso   1.00
C199   C     0.25487   0.33453   0.26225   0.00000  Uiso   1.00
C200   C     0.23133   0.42337   0.27188   0.00000  Uiso   1.00
C201   C     0.15581   0.43618   0.28881   0.00000  Uiso   1.00
C202   C     0.36226   0.23777   0.29081   0.00000  Uiso   1.00
C203   C     0.42902   0.24526   0.32445   0.00000  Uiso   1.00
C204   C     0.44392   0.17662   0.36543   0.00000  Uiso   1.00
C205   C     0.32416   0.25016   0.18633   0.00000  Uiso   1.00
C206   C     0.35890   0.26805   0.13213   0.00000  Uiso   1.00
C207   C     0.34174   0.20982   0.08515   0.00000  Uiso   1.00
H208   H     0.20356   0.11264   0.26193   0.00000  Uiso   1.00
H209   H     0.09050   0.21691   0.29165   0.00000  Uiso   1.00
H210   H     0.28816   0.03882   0.34421   0.00000  Uiso   1.00
H211   H     0.21805   0.06161   0.15192   0.00000  Uiso   1.00
H212   H     0.98725   0.36490   0.32152   0.00000  Uiso   1.00
H213   H     0.40405   0.98937   0.43233   0.00000  Uiso   1.00
H214   H     0.25621   0.03742   0.02685   0.00000  Uiso   1.00
H215   H     0.37385   0.36222   0.23803   0.00000  Uiso   1.00
H216   H     0.27013   0.48020   0.26643   0.00000  Uiso   1.00
H217   H     0.46779   0.30210   0.31900   0.00000  Uiso   1.00
H218   H     0.39768   0.32489   0.12670   0.00000  Uiso   1.00
H219   H     0.13304   0.57859   0.30105   0.00000  Uiso   1.00
H220   H     0.54984   0.20306   0.41187   0.00000  Uiso   1.00
H221   H     0.40200   0.25112   0.00638   0.00000  Uiso   1.00
O222   O     0.98885   0.54484   0.33042   0.00000  Uiso   1.00
O223   O     0.53567   0.05216   0.47580   0.00000  Uiso   1.00
O224   O     0.34171   0.11520   0.94381   0.00000  Uiso   1.00
N225   N     0.03579   0.39900   0.31279   0.00000  Uiso   1.00
N226   N     0.42547   0.04792   0.41641   0.00000  Uiso   1.00
N227   N     0.28727   0.09282   0.03731   0.00000  Uiso   1.00
N228   N     0.11424   0.51399   0.30178   0.00000  Uiso   1.00
N229   N     0.50392   0.16290   0.40539   0.00000  Uiso   1.00
N230   N     0.36572   0.20781   0.02630   0.00000  Uiso   1.00
C231   C     0.75377   0.72282   0.24807   0.00000  Uiso   1.00
C232   C     0.81113   0.79735   0.26383   0.00000  Uiso   1.00
C233   C     0.88746   0.78407   0.27915   0.00000  Uiso   1.00
C234   C     0.93049   0.86106   0.29202   0.00000  Uiso   1.00
C235   C     0.02446   0.96354   0.31683   0.00000  Uiso   1.00
C236   C     0.72231   0.74662   0.18636   0.00000  Uiso   1.00
C237   C     0.72395   0.69068   0.13654   0.00000  Uiso   1.00
C238   C     0.69219   0.72496   0.08420   0.00000  Uiso   1.00
C239   C     0.64821   0.74865   0.98875   0.00000  Uiso   1.00
C240   C     0.68723   0.73437   0.29101   0.00000  Uiso   1.00
C241   C     0.65935   0.66812   0.32918   0.00000  Uiso   1.00
C242   C     0.59805   0.69208   0.36494   0.00000  Uiso   1.00
C243   C     0.49960   0.69675   0.43197   0.00000  Uiso   1.00
C244   C     0.69445   0.88316   0.24370   0.00000  Uiso   1.00
C245   C     0.77891   0.88444   0.26146   0.00000  Uiso   1.00
C246   C     0.82183   0.96147   0.27432   0.00000  Uiso   1.00
C247   C     0.89821   0.94830   0.28965   0.00000  Uiso   1.00
C248   C     0.69009   0.83371   0.18399   0.00000  Uiso   1.00
C249   C     0.65831   0.86807   0.13171   0.00000  Uiso   1.00
C250   C     0.65990   0.81220   0.08183   0.00000  Uiso   1.00
C251   C     0.65500   0.82146   0.28864   0.00000  Uiso   1.00
C252   C     0.59372   0.84552   0.32435   0.00000  Uiso   1.00
C253   C     0.56576   0.77932   0.36256   0.00000  Uiso   1.00
H254   H     0.77886   0.65502   0.24991   0.00000  Uiso   1.00
H255   H     0.91238   0.71666   0.28097   0.00000  Uiso   1.00
H256   H     0.74888   0.62328   0.13839   0.00000  Uiso   1.00
H257   H     0.68430   0.60073   0.33100   0.00000  Uiso   1.00
H258   H     0.04621   0.82342   0.31434   0.00000  Uiso   1.00
H259   H     0.70144   0.62651   0.01371   0.00000  Uiso   1.00
H260   H     0.56526   0.57895   0.41986   0.00000  Uiso   1.00
H261   H     0.66936   0.95097   0.24186   0.00000  Uiso   1.00
H262   H     0.79688   0.02885   0.27248   0.00000  Uiso   1.00
H263   H     0.63338   0.93547   0.12990   0.00000  Uiso   1.00
H264   H     0.56880   0.91292   0.32250   0.00000  Uiso   1.00
H265   H     0.95246   0.07680   0.30744   0.00000  Uiso   1.00
H266   H     0.60769   0.87989   0.00681   0.00000  Uiso   1.00
H267   H     0.47152   0.83234   0.41296   0.00000  Uiso   1.00
O268   O     0.08520   0.99601   0.33116   0.00000  Uiso   1.00
O269   O     0.63286   0.73766   0.93675   0.00000  Uiso   1.00
O270   O     0.45421   0.67527   0.46961   0.00000  Uiso   1.00
N271   N     0.00664   0.87236   0.30853   0.00000  Uiso   1.00
N272   N     0.68431   0.68827   0.02745   0.00000  Uiso   1.00
N273   N     0.55699   0.64380   0.40716   0.00000  Uiso   1.00
N274   N     0.95620   0.00871   0.30482   0.00000  Uiso   1.00
N275   N     0.63387   0.82461   0.02374   0.00000  Uiso   1.00
N276   N     0.50654   0.78014   0.40345   0.00000  Uiso   1.00
C277   C     0.29185   0.33020   0.75619   0.00000  Uiso   1.00
C278   C     0.32963   0.23891   0.74335   0.00000  Uiso   1.00
C279   C     0.40513   0.22619   0.72643   0.00000  Uiso   1.00
C280   C     0.42874   0.13734   0.71678   0.00000  Uiso   1.00
C281   C     0.49504   0.00677   0.69581   0.00000  Uiso   1.00
C282   C     0.26040   0.32330   0.81928   0.00000  Uiso   1.00
C283   C     0.27767   0.38153   0.86620   0.00000  Uiso   1.00
C284   C     0.24298   0.36372   0.92047   0.00000  Uiso   1.00
C285   C     0.20175   0.36419   0.01737   0.00000  Uiso   1.00
C286   C     0.22227   0.33574   0.71481   0.00000  Uiso   1.00
C287   C     0.20748   0.40446   0.67390   0.00000  Uiso   1.00
C288   C     0.14069   0.39713   0.64022   0.00000  Uiso   1.00
C289   C     0.04026   0.41693   0.57491   0.00000  Uiso   1.00
C290   C     0.19954   0.19502   0.76913   0.00000  Uiso   1.00
C291   C     0.27949   0.16550   0.75038   0.00000  Uiso   1.00
C292   C     0.30300   0.07664   0.74076   0.00000  Uiso   1.00
C293   C     0.37851   0.06379   0.72383   0.00000  Uiso   1.00
C294   C     0.21026   0.24988   0.82631   0.00000  Uiso   1.00
C295   C     0.17554   0.23198   0.88052   0.00000  Uiso   1.00
C296   C     0.19275   0.29017   0.92751   0.00000  Uiso   1.00
C297   C     0.17213   0.26232   0.72184   0.00000  Uiso   1.00
C298   C     0.10535   0.25490   0.68822   0.00000  Uiso   1.00
C299   C     0.09046   0.32358   0.64727   0.00000  Uiso   1.00
H300   H     0.33089   0.38736   0.75071   0.00000  Uiso   1.00
H301   H     0.44391   0.28303   0.72100   0.00000  Uiso   1.00
H302   H     0.31646   0.43835   0.86074   0.00000  Uiso   1.00
H303   H     0.24629   0.46126   0.66847   0.00000  Uiso   1.00
H304   H     0.54712   0.13498   0.69117   0.00000  Uiso   1.00
H305   H     0.27837   0.46250   0.98583   0.00000  Uiso   1.00
H306   H     0.13039   0.51082   0.58038   0.00000  Uiso   1.00
H307   H     0.16050   0.13786   0.77461   0.00000  Uiso   1.00
H308   H     0.26418   0.01984   0.74620   0.00000  Uiso   1.00
H309   H     0.13674   0.17516   0.88595   0.00000  Uiso   1.00
H310   H     0.06656   0.19807   0.69368   0.00000  Uiso   1.00
H311   H     0.40125   0.92136   0.71164   0.00000  Uiso   1.00
H312   H     0.13249   0.24889   0.00629   0.00000  Uiso   1.00
H313   H     0.98451   0.29720   0.60085   0.00000  Uiso   1.00
O314   O     0.54547   0.95503   0.68231   0.00000  Uiso   1.00
O315   O     0.19286   0.38473   0.06887   0.00000  Uiso   1.00
O316   O     0.99872   0.44813   0.53694   0.00000  Uiso   1.00
N317   N     0.49856   0.10090   0.69988   0.00000  Uiso   1.00
N318   N     0.24730   0.40710   0.97536   0.00000  Uiso   1.00
N319   N     0.10894   0.45229   0.59632   0.00000  Uiso   1.00
N320   N     0.42006   0.98596   0.71089   0.00000  Uiso   1.00
N321   N     0.16880   0.29216   0.98637   0.00000  Uiso   1.00
N322   N     0.03045   0.33735   0.60733   0.00000  Uiso   1.00
C323   C     0.78062   0.77713   0.76469   0.00000  Uiso   1.00
C324   C     0.72324   0.70264   0.74890   0.00000  Uiso   1.00
C325   C     0.64692   0.71597   0.73357   0.00000  Uiso   1.00
C326   C     0.60387   0.63902   0.72065   0.00000  Uiso   1.00
C327   C     0.50988   0.53660   0.69576   0.00000  Uiso   1.00
C328   C     0.84716   0.76556   0.72173   0.00000  Uiso   1.00
C329   C     0.87505   0.83180   0.68357   0.00000  Uiso   1.00
C330   C     0.93633   0.80781   0.64779   0.00000  Uiso   1.00
C331   C     0.03478   0.80310   0.58075   0.00000  Uiso   1.00
C332   C     0.81208   0.75329   0.82639   0.00000  Uiso   1.00
C333   C     0.81049   0.80923   0.87621   0.00000  Uiso   1.00
C334   C     0.84225   0.77493   0.92854   0.00000  Uiso   1.00
C335   C     0.88622   0.75118   0.02399   0.00000  Uiso   1.00
C336   C     0.83988   0.61676   0.76902   0.00000  Uiso   1.00
C337   C     0.75543   0.61553   0.75126   0.00000  Uiso   1.00
C338   C     0.71248   0.53854   0.73837   0.00000  Uiso   1.00
C339   C     0.63611   0.55175   0.72302   0.00000  Uiso   1.00
C340   C     0.87935   0.67845   0.72409   0.00000  Uiso   1.00
C341   C     0.94061   0.65436   0.68836   0.00000  Uiso   1.00
C342   C     0.96858   0.72055   0.65015   0.00000  Uiso   1.00
C343   C     0.84427   0.66618   0.82874   0.00000  Uiso   1.00
C344   C     0.87605   0.63179   0.88101   0.00000  Uiso   1.00
C345   C     0.87450   0.68766   0.93090   0.00000  Uiso   1.00
H346   H     0.75557   0.84495   0.76285   0.00000  Uiso   1.00
H347   H     0.62203   0.78339   0.73174   0.00000  Uiso   1.00
H348   H     0.85013   0.89920   0.68176   0.00000  Uiso   1.00
H349   H     0.78557   0.87663   0.87437   0.00000  Uiso   1.00
H350   H     0.48819   0.67674   0.69828   0.00000  Uiso   1.00
H351   H     0.96917   0.92094   0.59289   0.00000  Uiso   1.00
H352   H     0.83303   0.87335   0.99905   0.00000  Uiso   1.00
H353   H     0.86495   0.54894   0.77086   0.00000  Uiso   1.00
H354   H     0.73741   0.47113   0.74019   0.00000  Uiso   1.00
H355   H     0.96551   0.58695   0.69020   0.00000  Uiso   1.00
H356   H     0.90095   0.56438   0.88281   0.00000  Uiso   1.00
H357   H     0.58183   0.42330   0.70513   0.00000  Uiso   1.00
H358   H     0.06282   0.66750   0.59974   0.00000  Uiso   1.00
H359   H     0.92668   0.61991   0.00590   0.00000  Uiso   1.00
O360   O     0.44914   0.50418   0.68137   0.00000  Uiso   1.00
O361   O     0.08018   0.82457   0.54312   0.00000  Uiso   1.00
O362   O     0.90157   0.76214   0.07598   0.00000  Uiso   1.00
N363   N     0.52772   0.62776   0.70411   0.00000  Uiso   1.00
N364   N     0.97740   0.85608   0.60557   0.00000  Uiso   1.00
N365   N     0.85015   0.81160   0.98529   0.00000  Uiso   1.00
N366   N     0.57811   0.49139   0.70780   0.00000  Uiso   1.00
N367   N     0.02779   0.71970   0.60926   0.00000  Uiso   1.00
N368   N     0.90054   0.67522   0.98898   0.00000  Uiso   1.00
