data_job_04190
_audit_creation_date              2018-12-19
_audit_creation_method            'Materials Studio'
_symmetry_space_group_name_H-M    'P1'
_symmetry_Int_Tables_number       1
_symmetry_cell_setting            triclinic
loop_
_symmetry_equiv_pos_as_xyz
  x,y,z
_cell_length_a                    13.4332
_cell_length_b                    10.6329
_cell_length_c                    17.1448
_cell_angle_alpha                 90.0000
_cell_angle_beta                  89.5934
_cell_angle_gamma                 90.0000
loop_
_atom_site_label
_atom_site_type_symbol
_atom_site_fract_x
_atom_site_fract_y
_atom_site_fract_z
_atom_site_U_iso_or_equiv
_atom_site_adp_type
_atom_site_occupancy
C1     C     0.07270   0.97213   0.71408   0.00000  Uiso   1.00
C2     C     0.99802   0.89357   0.66851   0.00000  Uiso   1.00
C3     C     0.00598   0.86133   0.59028   0.00000  Uiso   1.00
C4     C     0.92984   0.78888   0.55940   0.00000  Uiso   1.00
C5     C     0.82620   0.67286   0.48167   0.00000  Uiso   1.00
C6     C     0.01403   0.08227   0.74805   0.00000  Uiso   1.00
C7     C     0.03545   0.20866   0.73671   0.00000  Uiso   1.00
C8     C     0.97279   0.29505   0.77279   0.00000  Uiso   1.00
C9     C     0.89404   0.47197   0.81860   0.00000  Uiso   1.00
C10    C     0.10368   0.89168   0.78342   0.00000  Uiso   1.00
C11    C     0.20050   0.85785   0.80183   0.00000  Uiso   1.00
C12    C     0.21332   0.78381   0.86770   0.00000  Uiso   1.00
C13    C     0.27377   0.66481   0.96842   0.00000  Uiso   1.00
C14    C     0.92333   0.90081   0.79835   0.00000  Uiso   1.00
C15    C     0.91689   0.85484   0.71429   0.00000  Uiso   1.00
C16    C     0.84071   0.78242   0.68352   0.00000  Uiso   1.00
C17    C     0.84856   0.75007   0.60525   0.00000  Uiso   1.00
C18    C     0.93289   0.04353   0.79382   0.00000  Uiso   1.00
C19    C     0.87019   0.12976   0.82994   0.00000  Uiso   1.00
C20    C     0.89151   0.25625   0.81865   0.00000  Uiso   1.00
C21    C     0.02255   0.85294   0.82919   0.00000  Uiso   1.00
C22    C     0.03522   0.77894   0.89506   0.00000  Uiso   1.00
C23    C     0.13204   0.74500   0.91356   0.00000  Uiso   1.00
H24    H     0.13587   0.00229   0.67845   0.00000  Uiso   1.00
H25    H     0.06878   0.89133   0.55488   0.00000  Uiso   1.00
H26    H     0.09825   0.23861   0.70129   0.00000  Uiso   1.00
H27    H     0.26326   0.88785   0.76639   0.00000  Uiso   1.00
H28    H     0.95860   0.75127   0.43806   0.00000  Uiso   1.00
H29    H     0.02077   0.48352   0.74679   0.00000  Uiso   1.00
H30    H     0.36873   0.74388   0.88408   0.00000  Uiso   1.00
H31    H     0.86016   0.87065   0.83399   0.00000  Uiso   1.00
H32    H     0.77794   0.75246   0.71895   0.00000  Uiso   1.00
H33    H     0.80741   0.09974   0.86536   0.00000  Uiso   1.00
H34    H     0.97242   0.74898   0.93046   0.00000  Uiso   1.00
H35    H     0.72254   0.63856   0.57122   0.00000  Uiso   1.00
H36    H     0.78471   0.37082   0.87996   0.00000  Uiso   1.00
H37    H     0.13267   0.63117   0.01724   0.00000  Uiso   1.00
O38    O     0.79144   0.61958   0.42615   0.00000  Uiso   1.00
O39    O     0.87302   0.58026   0.83122   0.00000  Uiso   1.00
O40    O     0.32953   0.60986   0.01133   0.00000  Uiso   1.00
N41    N     0.91434   0.74094   0.48519   0.00000  Uiso   1.00
N42    N     0.97245   0.42556   0.77383   0.00000  Uiso   1.00
N43    N     0.29777   0.73408   0.90219   0.00000  Uiso   1.00
N44    N     0.78731   0.68029   0.55684   0.00000  Uiso   1.00
N45    N     0.84543   0.36491   0.84548   0.00000  Uiso   1.00
N46    N     0.17074   0.67343   0.97385   0.00000  Uiso   1.00
C47    C     0.56877   0.52025   0.28105   0.00000  Uiso   1.00
C48    C     0.49645   0.59558   0.33163   0.00000  Uiso   1.00
C49    C     0.50518   0.61616   0.41122   0.00000  Uiso   1.00
C50    C     0.43124   0.68757   0.44686   0.00000  Uiso   1.00
C51    C     0.33105   0.79702   0.53187   0.00000  Uiso   1.00
C52    C     0.50683   0.41832   0.24191   0.00000  Uiso   1.00
C53    C     0.52431   0.28985   0.24605   0.00000  Uiso   1.00
C54    C     0.45912   0.21205   0.20615   0.00000  Uiso   1.00
C55    C     0.37509   0.04630   0.15181   0.00000  Uiso   1.00
C56    C     0.60241   0.60869   0.21600   0.00000  Uiso   1.00
C57    C     0.70025   0.64028   0.19834   0.00000  Uiso   1.00
C58    C     0.71553   0.72273   0.13661   0.00000  Uiso   1.00
C59    C     0.77990   0.85257   0.04205   0.00000  Uiso   1.00
C60    C     0.42195   0.61049   0.20281   0.00000  Uiso   1.00
C61    C     0.41670   0.64459   0.28913   0.00000  Uiso   1.00
C62    C     0.34273   0.71600   0.32466   0.00000  Uiso   1.00
C63    C     0.35135   0.73667   0.40429   0.00000  Uiso   1.00
C64    C     0.42709   0.46733   0.19941   0.00000  Uiso   1.00
C65    C     0.36187   0.38969   0.15949   0.00000  Uiso   1.00
C66    C     0.37923   0.26115   0.16357   0.00000  Uiso   1.00
C67    C     0.52266   0.65771   0.17350   0.00000  Uiso   1.00
C68    C     0.53780   0.74012   0.11178   0.00000  Uiso   1.00
C69    C     0.63564   0.77183   0.09404   0.00000  Uiso   1.00
H70    H     0.63086   0.48209   0.31414   0.00000  Uiso   1.00
H71    H     0.56690   0.57820   0.44409   0.00000  Uiso   1.00
H72    H     0.58603   0.25195   0.27894   0.00000  Uiso   1.00
H73    H     0.76194   0.60233   0.23124   0.00000  Uiso   1.00
H74    H     0.46080   0.70633   0.56944   0.00000  Uiso   1.00
H75    H     0.50116   0.01843   0.22118   0.00000  Uiso   1.00
H76    H     0.87211   0.75726   0.12060   0.00000  Uiso   1.00
H77    H     0.35986   0.64865   0.16972   0.00000  Uiso   1.00
H78    H     0.28103   0.75391   0.29176   0.00000  Uiso   1.00
H79    H     0.30016   0.42766   0.12660   0.00000  Uiso   1.00
H80    H     0.47607   0.77803   0.07891   0.00000  Uiso   1.00
H81    H     0.22878   0.84894   0.44579   0.00000  Uiso   1.00
H82    H     0.26914   0.16103   0.09753   0.00000  Uiso   1.00
H83    H     0.64008   0.89986   0.99696   0.00000  Uiso   1.00
O84    O     0.29781   0.84384   0.59050   0.00000  Uiso   1.00
O85    O     0.35077   0.94134   0.13359   0.00000  Uiso   1.00
O86    O     0.83744   0.91066   0.00164   0.00000  Uiso   1.00
N87    N     0.41702   0.72547   0.52359   0.00000  Uiso   1.00
N88    N     0.45475   0.08232   0.19800   0.00000  Uiso   1.00
N89    N     0.80155   0.77304   0.10395   0.00000  Uiso   1.00
N90    N     0.29217   0.80221   0.45706   0.00000  Uiso   1.00
N91    N     0.32990   0.15906   0.13146   0.00000  Uiso   1.00
N92    N     0.67670   0.84977   0.03742   0.00000  Uiso   1.00
C93    C     0.92730   0.47213   0.28592   0.00000  Uiso   1.00
C94    C     0.00198   0.39357   0.33149   0.00000  Uiso   1.00
C95    C     0.99402   0.36133   0.40972   0.00000  Uiso   1.00
C96    C     0.07016   0.28888   0.44060   0.00000  Uiso   1.00
C97    C     0.17380   0.17286   0.51833   0.00000  Uiso   1.00
C98    C     0.98597   0.58227   0.25195   0.00000  Uiso   1.00
C99    C     0.96455   0.70866   0.26329   0.00000  Uiso   1.00
C100   C     0.02721   0.79505   0.22721   0.00000  Uiso   1.00
C101   C     0.10596   0.97197   0.18140   0.00000  Uiso   1.00
C102   C     0.89632   0.39168   0.21658   0.00000  Uiso   1.00
C103   C     0.79950   0.35785   0.19817   0.00000  Uiso   1.00
C104   C     0.78668   0.28381   0.13230   0.00000  Uiso   1.00
C105   C     0.72623   0.16481   0.03158   0.00000  Uiso   1.00
C106   C     0.07667   0.40081   0.20165   0.00000  Uiso   1.00
C107   C     0.08311   0.35484   0.28571   0.00000  Uiso   1.00
C108   C     0.15929   0.28242   0.31648   0.00000  Uiso   1.00
C109   C     0.15144   0.25007   0.39475   0.00000  Uiso   1.00
C110   C     0.06711   0.54353   0.20618   0.00000  Uiso   1.00
C111   C     0.12981   0.62976   0.17006   0.00000  Uiso   1.00
C112   C     0.10849   0.75625   0.18135   0.00000  Uiso   1.00
C113   C     0.97745   0.35294   0.17081   0.00000  Uiso   1.00
C114   C     0.96478   0.27894   0.10494   0.00000  Uiso   1.00
C115   C     0.86796   0.24500   0.08644   0.00000  Uiso   1.00
H116   H     0.86413   0.50229   0.32155   0.00000  Uiso   1.00
H117   H     0.93122   0.39133   0.44512   0.00000  Uiso   1.00
H118   H     0.90175   0.73861   0.29871   0.00000  Uiso   1.00
H119   H     0.73674   0.38785   0.23361   0.00000  Uiso   1.00
H120   H     0.04140   0.25127   0.56194   0.00000  Uiso   1.00
H121   H     0.97923   0.98352   0.25321   0.00000  Uiso   1.00
H122   H     0.63127   0.24388   0.11592   0.00000  Uiso   1.00
H123   H     0.13984   0.37065   0.16601   0.00000  Uiso   1.00
H124   H     0.22206   0.25246   0.28105   0.00000  Uiso   1.00
H125   H     0.19259   0.59974   0.13464   0.00000  Uiso   1.00
H126   H     0.02758   0.24898   0.06954   0.00000  Uiso   1.00
H127   H     0.27746   0.13856   0.42878   0.00000  Uiso   1.00
H128   H     0.21529   0.87082   0.12004   0.00000  Uiso   1.00
H129   H     0.86733   0.13117   0.98276   0.00000  Uiso   1.00
O130   O     0.20856   0.11958   0.57385   0.00000  Uiso   1.00
O131   O     0.12698   0.08026   0.16878   0.00000  Uiso   1.00
O132   O     0.67047   0.10986   0.98867   0.00000  Uiso   1.00
N133   N     0.08566   0.24094   0.51481   0.00000  Uiso   1.00
N134   N     0.02755   0.92556   0.22617   0.00000  Uiso   1.00
N135   N     0.70223   0.23408   0.09781   0.00000  Uiso   1.00
N136   N     0.21269   0.18029   0.44316   0.00000  Uiso   1.00
N137   N     0.15457   0.86491   0.15452   0.00000  Uiso   1.00
N138   N     0.82926   0.17343   0.02615   0.00000  Uiso   1.00
C139   C     0.43123   0.02025   0.71895   0.00000  Uiso   1.00
C140   C     0.50355   0.09558   0.66837   0.00000  Uiso   1.00
C141   C     0.49482   0.11616   0.58878   0.00000  Uiso   1.00
C142   C     0.56876   0.18757   0.55314   0.00000  Uiso   1.00
C143   C     0.66895   0.29702   0.46813   0.00000  Uiso   1.00
C144   C     0.49317   0.91832   0.75809   0.00000  Uiso   1.00
C145   C     0.47569   0.78985   0.75395   0.00000  Uiso   1.00
C146   C     0.54088   0.71205   0.79385   0.00000  Uiso   1.00
C147   C     0.62491   0.54630   0.84819   0.00000  Uiso   1.00
C148   C     0.39759   0.10869   0.78400   0.00000  Uiso   1.00
C149   C     0.29975   0.14028   0.80166   0.00000  Uiso   1.00
C150   C     0.28447   0.22273   0.86339   0.00000  Uiso   1.00
C151   C     0.22010   0.35257   0.95795   0.00000  Uiso   1.00
C152   C     0.57805   0.11049   0.79719   0.00000  Uiso   1.00
C153   C     0.58330   0.14459   0.71087   0.00000  Uiso   1.00
C154   C     0.65727   0.21600   0.67534   0.00000  Uiso   1.00
C155   C     0.64865   0.23667   0.59571   0.00000  Uiso   1.00
C156   C     0.57291   0.96733   0.80059   0.00000  Uiso   1.00
C157   C     0.63813   0.88969   0.84051   0.00000  Uiso   1.00
C158   C     0.62077   0.76115   0.83643   0.00000  Uiso   1.00
C159   C     0.47734   0.15771   0.82650   0.00000  Uiso   1.00
C160   C     0.46220   0.24012   0.88822   0.00000  Uiso   1.00
C161   C     0.36436   0.27183   0.90596   0.00000  Uiso   1.00
H162   H     0.36914   0.98209   0.68586   0.00000  Uiso   1.00
H163   H     0.43310   0.07820   0.55591   0.00000  Uiso   1.00
H164   H     0.41397   0.75195   0.72106   0.00000  Uiso   1.00
H165   H     0.23806   0.10233   0.76876   0.00000  Uiso   1.00
H166   H     0.53920   0.20633   0.43056   0.00000  Uiso   1.00
H167   H     0.49884   0.51843   0.77882   0.00000  Uiso   1.00
H168   H     0.12789   0.25726   0.87940   0.00000  Uiso   1.00
H169   H     0.64014   0.14865   0.83028   0.00000  Uiso   1.00
H170   H     0.71897   0.25391   0.70824   0.00000  Uiso   1.00
H171   H     0.69984   0.92766   0.87340   0.00000  Uiso   1.00
H172   H     0.52393   0.27803   0.92109   0.00000  Uiso   1.00
H173   H     0.77122   0.34894   0.55421   0.00000  Uiso   1.00
H174   H     0.73086   0.66103   0.90247   0.00000  Uiso   1.00
H175   H     0.35992   0.39986   0.00304   0.00000  Uiso   1.00
O176   O     0.70219   0.34384   0.40950   0.00000  Uiso   1.00
O177   O     0.64923   0.44134   0.86641   0.00000  Uiso   1.00
O178   O     0.16256   0.41066   0.99836   0.00000  Uiso   1.00
N179   N     0.58298   0.22547   0.47641   0.00000  Uiso   1.00
N180   N     0.54525   0.58232   0.80200   0.00000  Uiso   1.00
N181   N     0.19845   0.27304   0.89605   0.00000  Uiso   1.00
N182   N     0.70783   0.30221   0.54294   0.00000  Uiso   1.00
N183   N     0.67010   0.65906   0.86854   0.00000  Uiso   1.00
N184   N     0.32330   0.34977   0.96258   0.00000  Uiso   1.00
