data_job_06334
_audit_creation_date              2018-12-19
_audit_creation_method            'Materials Studio'
_symmetry_space_group_name_H-M    'P1'
_symmetry_Int_Tables_number       1
_symmetry_cell_setting            triclinic
loop_
_symmetry_equiv_pos_as_xyz
  x,y,z
_cell_length_a                    16.8491
_cell_length_b                    16.6126
_cell_length_c                    16.0272
_cell_angle_alpha                 87.6381
_cell_angle_beta                  87.7606
_cell_angle_gamma                 87.0372
loop_
_atom_site_label
_atom_site_type_symbol
_atom_site_fract_x
_atom_site_fract_y
_atom_site_fract_z
_atom_site_U_iso_or_equiv
_atom_site_adp_type
_atom_site_occupancy
C1     C     0.04001   0.71613   0.42388   0.00000  Uiso   1.00
C2     C     0.09181   0.66429   0.48316   0.00000  Uiso   1.00
C3     C     0.12687   0.58887   0.46681   0.00000  Uiso   1.00
C4     C     0.17205   0.55120   0.52913   0.00000  Uiso   1.00
C5     C     0.25097   0.46515   0.60965   0.00000  Uiso   1.00
C6     C     0.96134   0.73335   0.47169   0.00000  Uiso   1.00
C7     C     0.88671   0.71600   0.44569   0.00000  Uiso   1.00
C8     C     0.82207   0.73646   0.49836   0.00000  Uiso   1.00
C9     C     0.69843   0.75767   0.56104   0.00000  Uiso   1.00
C10    C     0.07914   0.79679   0.41256   0.00000  Uiso   1.00
C11    C     0.10354   0.83280   0.33684   0.00000  Uiso   1.00
C12    C     0.13806   0.90669   0.33972   0.00000  Uiso   1.00
C13    C     0.19731   0.02640   0.31059   0.00000  Uiso   1.00
C14    C     0.05791   0.78333   0.56363   0.00000  Uiso   1.00
C15    C     0.10152   0.70080   0.55907   0.00000  Uiso   1.00
C16    C     0.14667   0.66323   0.62143   0.00000  Uiso   1.00
C17    C     0.18180   0.58777   0.60517   0.00000  Uiso   1.00
C18    C     0.97106   0.76985   0.54759   0.00000  Uiso   1.00
C19    C     0.90652   0.79035   0.60031   0.00000  Uiso   1.00
C20    C     0.83181   0.77303   0.57440   0.00000  Uiso   1.00
C21    C     0.08886   0.83330   0.48847   0.00000  Uiso   1.00
C22    C     0.12334   0.90715   0.49146   0.00000  Uiso   1.00
C23    C     0.14779   0.94326   0.41576   0.00000  Uiso   1.00
H24    H     0.03244   0.68771   0.36479   0.00000  Uiso   1.00
H25    H     0.11933   0.56064   0.40807   0.00000  Uiso   1.00
H26    H     0.87921   0.68775   0.38695   0.00000  Uiso   1.00
H27    H     0.09600   0.80453   0.27812   0.00000  Uiso   1.00
H28    H     0.21992   0.43585   0.48954   0.00000  Uiso   1.00
H29    H     0.71362   0.70390   0.44499   0.00000  Uiso   1.00
H30    H     0.17077   0.95015   0.21550   0.00000  Uiso   1.00
H31    H     0.06547   0.81176   0.62272   0.00000  Uiso   1.00
H32    H     0.15418   0.69150   0.68016   0.00000  Uiso   1.00
H33    H     0.91406   0.81861   0.65904   0.00000  Uiso   1.00
H34    H     0.13086   0.93538   0.55021   0.00000  Uiso   1.00
H35    H     0.24821   0.54206   0.71038   0.00000  Uiso   1.00
H36    H     0.74190   0.81011   0.66583   0.00000  Uiso   1.00
H37    H     0.19906   0.05635   0.43634   0.00000  Uiso   1.00
O38    O     0.29180   0.40759   0.63310   0.00000  Uiso   1.00
O39    O     0.62755   0.75928   0.57464   0.00000  Uiso   1.00
O40    O     0.22732   0.08234   0.27356   0.00000  Uiso   1.00
N41    N     0.21442   0.47736   0.53362   0.00000  Uiso   1.00
N42    N     0.74106   0.72796   0.49198   0.00000  Uiso   1.00
N43    N     0.16843   0.95819   0.27743   0.00000  Uiso   1.00
N44    N     0.22964   0.53451   0.65246   0.00000  Uiso   1.00
N45    N     0.75628   0.78510   0.61081   0.00000  Uiso   1.00
N46    N     0.18366   0.01534   0.39626   0.00000  Uiso   1.00
C47    C     0.42944   0.04010   0.71466   0.00000  Uiso   1.00
C48    C     0.48552   0.09241   0.66189   0.00000  Uiso   1.00
C49    C     0.47007   0.12775   0.58386   0.00000  Uiso   1.00
C50    C     0.52903   0.17340   0.54574   0.00000  Uiso   1.00
C51    C     0.60522   0.25309   0.45792   0.00000  Uiso   1.00
C52    C     0.47575   0.96030   0.73229   0.00000  Uiso   1.00
C53    C     0.45207   0.88456   0.71344   0.00000  Uiso   1.00
C54    C     0.50280   0.81900   0.73460   0.00000  Uiso   1.00
C55    C     0.56378   0.69359   0.75612   0.00000  Uiso   1.00
C56    C     0.41763   0.08007   0.79850   0.00000  Uiso   1.00
C57    C     0.34508   0.10501   0.83535   0.00000  Uiso   1.00
C58    C     0.34689   0.14027   0.91226   0.00000  Uiso   1.00
C59    C     0.31763   0.20081   0.03659   0.00000  Uiso   1.00
C60    C     0.56163   0.05833   0.78574   0.00000  Uiso   1.00
C61    C     0.55733   0.10231   0.70050   0.00000  Uiso   1.00
C62    C     0.61633   0.14793   0.66250   0.00000  Uiso   1.00
C63    C     0.60097   0.18333   0.58442   0.00000  Uiso   1.00
C64    C     0.54755   0.97020   0.77090   0.00000  Uiso   1.00
C65    C     0.59833   0.90474   0.79209   0.00000  Uiso   1.00
C66    C     0.57473   0.82893   0.77328   0.00000  Uiso   1.00
C67    C     0.48944   0.08998   0.83711   0.00000  Uiso   1.00
C68    C     0.49135   0.12519   0.91399   0.00000  Uiso   1.00
C69    C     0.41882   0.15019   0.95094   0.00000  Uiso   1.00
H70    H     0.37353   0.03238   0.68460   0.00000  Uiso   1.00
H71    H     0.41450   0.12006   0.55399   0.00000  Uiso   1.00
H72    H     0.39649   0.87692   0.68357   0.00000  Uiso   1.00
H73    H     0.28953   0.09734   0.80545   0.00000  Uiso   1.00
H74    H     0.49159   0.22162   0.42621   0.00000  Uiso   1.00
H75    H     0.45362   0.70893   0.69945   0.00000  Uiso   1.00
H76    H     0.22806   0.17372   0.95646   0.00000  Uiso   1.00
H77    H     0.61754   0.06604   0.81580   0.00000  Uiso   1.00
H78    H     0.67189   0.15558   0.69239   0.00000  Uiso   1.00
H79    H     0.65389   0.91243   0.82197   0.00000  Uiso   1.00
H80    H     0.54693   0.13285   0.94385   0.00000  Uiso   1.00
H81    H     0.70050   0.25044   0.53853   0.00000  Uiso   1.00
H82    H     0.66253   0.73775   0.81179   0.00000  Uiso   1.00
H83    H     0.43697   0.20255   0.06879   0.00000  Uiso   1.00
O84    O     0.62741   0.29430   0.39881   0.00000  Uiso   1.00
O85    O     0.57758   0.62167   0.75731   0.00000  Uiso   1.00
O86    O     0.28166   0.23147   0.09450   0.00000  Uiso   1.00
N87    N     0.53329   0.21613   0.46958   0.00000  Uiso   1.00
N88    N     0.49779   0.73680   0.72504   0.00000  Uiso   1.00
N89    N     0.28692   0.17132   0.96534   0.00000  Uiso   1.00
N90    N     0.64570   0.23164   0.53003   0.00000  Uiso   1.00
N91    N     0.61021   0.75231   0.78549   0.00000  Uiso   1.00
N92    N     0.39933   0.18683   0.02578   0.00000  Uiso   1.00
C93    C     0.71657   0.42790   0.03934   0.00000  Uiso   1.00
C94    C     0.66534   0.48503   0.09356   0.00000  Uiso   1.00
C95    C     0.59108   0.46954   0.12936   0.00000  Uiso   1.00
C96    C     0.55380   0.52955   0.17683   0.00000  Uiso   1.00
C97    C     0.46880   0.60718   0.25928   0.00000  Uiso   1.00
C98    C     0.73331   0.47460   0.95716   0.00000  Uiso   1.00
C99    C     0.71621   0.45035   0.87828   0.00000  Uiso   1.00
C100   C     0.73615   0.50158   0.81093   0.00000  Uiso   1.00
C101   C     0.75673   0.56300   0.68163   0.00000  Uiso   1.00
C102   C     0.79616   0.41598   0.08143   0.00000  Uiso   1.00
C103   C     0.83192   0.34242   0.10702   0.00000  Uiso   1.00
C104   C     0.90479   0.34429   0.14428   0.00000  Uiso   1.00
C105   C     0.02296   0.31469   0.20791   0.00000  Uiso   1.00
C106   C     0.78241   0.56200   0.05999   0.00000  Uiso   1.00
C107   C     0.70110   0.55786   0.10477   0.00000  Uiso   1.00
C108   C     0.66392   0.61791   0.15221   0.00000  Uiso   1.00
C109   C     0.58962   0.60251   0.18807   0.00000  Uiso   1.00
C110   C     0.76907   0.54744   0.96838   0.00000  Uiso   1.00
C111   C     0.78905   0.59871   0.90113   0.00000  Uiso   1.00
C112   C     0.77198   0.57454   0.82217   0.00000  Uiso   1.00
C113   C     0.83193   0.48881   0.09265   0.00000  Uiso   1.00
C114   C     0.90476   0.49079   0.12987   0.00000  Uiso   1.00
C115   C     0.94062   0.41726   0.15551   0.00000  Uiso   1.00
H116   H     0.68873   0.37120   0.03060   0.00000  Uiso   1.00
H117   H     0.56342   0.41317   0.12066   0.00000  Uiso   1.00
H118   H     0.68854   0.39398   0.86962   0.00000  Uiso   1.00
H119   H     0.80423   0.28607   0.09833   0.00000  Uiso   1.00
H120   H     0.44026   0.49184   0.22543   0.00000  Uiso   1.00
H121   H     0.70410   0.45136   0.69610   0.00000  Uiso   1.00
H122   H     0.94806   0.22382   0.17837   0.00000  Uiso   1.00
H123   H     0.81025   0.61871   0.06872   0.00000  Uiso   1.00
H124   H     0.69161   0.67427   0.16087   0.00000  Uiso   1.00
H125   H     0.81673   0.65507   0.90983   0.00000  Uiso   1.00
H126   H     0.93242   0.54717   0.13854   0.00000  Uiso   1.00
H127   H     0.54430   0.70375   0.25806   0.00000  Uiso   1.00
H128   H     0.80814   0.66327   0.72873   0.00000  Uiso   1.00
H129   H     0.05210   0.43573   0.21100   0.00000  Uiso   1.00
O130   O     0.41203   0.62989   0.30165   0.00000  Uiso   1.00
O131   O     0.75819   0.57676   0.60720   0.00000  Uiso   1.00
O132   O     0.07826   0.27824   0.23992   0.00000  Uiso   1.00
N133   N     0.48103   0.53408   0.22047   0.00000  Uiso   1.00
N134   N     0.72770   0.49624   0.72559   0.00000  Uiso   1.00
N135   N     0.95579   0.28351   0.17644   0.00000  Uiso   1.00
N136   N     0.53702   0.64811   0.23804   0.00000  Uiso   1.00
N137   N     0.78368   0.61027   0.74315   0.00000  Uiso   1.00
N138   N     0.01177   0.39754   0.19401   0.00000  Uiso   1.00
C139   C     0.95999   0.28387   0.57612   0.00000  Uiso   1.00
C140   C     0.90819   0.33571   0.51684   0.00000  Uiso   1.00
C141   C     0.87313   0.41113   0.53318   0.00000  Uiso   1.00
C142   C     0.82795   0.44880   0.47087   0.00000  Uiso   1.00
C143   C     0.74903   0.53485   0.39035   0.00000  Uiso   1.00
C144   C     0.03866   0.26665   0.52831   0.00000  Uiso   1.00
C145   C     0.11329   0.28400   0.55431   0.00000  Uiso   1.00
C146   C     0.17793   0.26354   0.50164   0.00000  Uiso   1.00
C147   C     0.30157   0.24233   0.43896   0.00000  Uiso   1.00
C148   C     0.92086   0.20321   0.58744   0.00000  Uiso   1.00
C149   C     0.89646   0.16720   0.66315   0.00000  Uiso   1.00
C150   C     0.86195   0.09331   0.66028   0.00000  Uiso   1.00
C151   C     0.80269   0.97360   0.68941   0.00000  Uiso   1.00
C152   C     0.94209   0.21667   0.43637   0.00000  Uiso   1.00
C153   C     0.89848   0.29920   0.44093   0.00000  Uiso   1.00
C154   C     0.85333   0.33677   0.37857   0.00000  Uiso   1.00
C155   C     0.81820   0.41223   0.39483   0.00000  Uiso   1.00
C156   C     0.02894   0.23015   0.45241   0.00000  Uiso   1.00
C157   C     0.09348   0.20965   0.39969   0.00000  Uiso   1.00
C158   C     0.16819   0.22697   0.42560   0.00000  Uiso   1.00
C159   C     0.91114   0.16670   0.51153   0.00000  Uiso   1.00
C160   C     0.87666   0.09285   0.50854   0.00000  Uiso   1.00
C161   C     0.85221   0.05674   0.58424   0.00000  Uiso   1.00
H162   H     0.96757   0.31229   0.63521   0.00000  Uiso   1.00
H163   H     0.88067   0.43936   0.59193   0.00000  Uiso   1.00
H164   H     0.12079   0.31225   0.61305   0.00000  Uiso   1.00
H165   H     0.90400   0.19547   0.72188   0.00000  Uiso   1.00
H166   H     0.78008   0.56415   0.51046   0.00000  Uiso   1.00
H167   H     0.28638   0.29610   0.55501   0.00000  Uiso   1.00
H168   H     0.82923   0.04985   0.78450   0.00000  Uiso   1.00
H169   H     0.93453   0.18824   0.37728   0.00000  Uiso   1.00
H170   H     0.84582   0.30850   0.31984   0.00000  Uiso   1.00
H171   H     0.08594   0.18139   0.34096   0.00000  Uiso   1.00
H172   H     0.86915   0.06462   0.44979   0.00000  Uiso   1.00
H173   H     0.75179   0.45794   0.28962   0.00000  Uiso   1.00
H174   H     0.25810   0.18989   0.33417   0.00000  Uiso   1.00
H175   H     0.80094   0.94365   0.56366   0.00000  Uiso   1.00
O176   O     0.70820   0.59241   0.36690   0.00000  Uiso   1.00
O177   O     0.37245   0.24072   0.42536   0.00000  Uiso   1.00
O178   O     0.77268   0.91766   0.72644   0.00000  Uiso   1.00
N179   N     0.78558   0.52264   0.46638   0.00000  Uiso   1.00
N180   N     0.25894   0.27204   0.50802   0.00000  Uiso   1.00
N181   N     0.83157   0.04181   0.72257   0.00000  Uiso   1.00
N182   N     0.77036   0.46549   0.34754   0.00000  Uiso   1.00
N183   N     0.24372   0.21490   0.38919   0.00000  Uiso   1.00
N184   N     0.81634   0.98467   0.60374   0.00000  Uiso   1.00
C185   C     0.57056   0.95990   0.28534   0.00000  Uiso   1.00
C186   C     0.51448   0.90759   0.33811   0.00000  Uiso   1.00
C187   C     0.52993   0.87225   0.41614   0.00000  Uiso   1.00
C188   C     0.47097   0.82660   0.45426   0.00000  Uiso   1.00
C189   C     0.39478   0.74691   0.54208   0.00000  Uiso   1.00
C190   C     0.52425   0.03970   0.26771   0.00000  Uiso   1.00
C191   C     0.54793   0.11544   0.28656   0.00000  Uiso   1.00
C192   C     0.49720   0.18100   0.26540   0.00000  Uiso   1.00
C193   C     0.43622   0.30641   0.24388   0.00000  Uiso   1.00
C194   C     0.58237   0.91993   0.20150   0.00000  Uiso   1.00
C195   C     0.65492   0.89499   0.16465   0.00000  Uiso   1.00
C196   C     0.65311   0.85973   0.08774   0.00000  Uiso   1.00
C197   C     0.68237   0.79919   0.96341   0.00000  Uiso   1.00
C198   C     0.43837   0.94167   0.21426   0.00000  Uiso   1.00
C199   C     0.44267   0.89769   0.29950   0.00000  Uiso   1.00
C200   C     0.38367   0.85207   0.33750   0.00000  Uiso   1.00
C201   C     0.39903   0.81667   0.41558   0.00000  Uiso   1.00
C202   C     0.45245   0.02980   0.22910   0.00000  Uiso   1.00
C203   C     0.40167   0.09526   0.20791   0.00000  Uiso   1.00
C204   C     0.42527   0.17107   0.22672   0.00000  Uiso   1.00
C205   C     0.51056   0.91002   0.16289   0.00000  Uiso   1.00
C206   C     0.50865   0.87481   0.08601   0.00000  Uiso   1.00
C207   C     0.58118   0.84981   0.04906   0.00000  Uiso   1.00
H208   H     0.62647   0.96762   0.31540   0.00000  Uiso   1.00
H209   H     0.58550   0.87994   0.44601   0.00000  Uiso   1.00
H210   H     0.60351   0.12308   0.31643   0.00000  Uiso   1.00
H211   H     0.71047   0.90266   0.19455   0.00000  Uiso   1.00
H212   H     0.50841   0.77838   0.57379   0.00000  Uiso   1.00
H213   H     0.54638   0.29107   0.30055   0.00000  Uiso   1.00
H214   H     0.77194   0.82628   0.04354   0.00000  Uiso   1.00
H215   H     0.38246   0.93396   0.18420   0.00000  Uiso   1.00
H216   H     0.32811   0.84442   0.30761   0.00000  Uiso   1.00
H217   H     0.34611   0.08757   0.17803   0.00000  Uiso   1.00
H218   H     0.45307   0.86715   0.05615   0.00000  Uiso   1.00
H219   H     0.29950   0.74956   0.46147   0.00000  Uiso   1.00
H220   H     0.33747   0.26225   0.18821   0.00000  Uiso   1.00
H221   H     0.56303   0.79745   0.93121   0.00000  Uiso   1.00
O222   O     0.37259   0.70570   0.60119   0.00000  Uiso   1.00
O223   O     0.42242   0.37833   0.24269   0.00000  Uiso   1.00
O224   O     0.71834   0.76853   0.90550   0.00000  Uiso   1.00
N225   N     0.46671   0.78387   0.53041   0.00000  Uiso   1.00
N226   N     0.50221   0.26320   0.27495   0.00000  Uiso   1.00
N227   N     0.71308   0.82868   0.03466   0.00000  Uiso   1.00
N228   N     0.35430   0.76836   0.46997   0.00000  Uiso   1.00
N229   N     0.38979   0.24769   0.21451   0.00000  Uiso   1.00
N230   N     0.60067   0.81317   0.97422   0.00000  Uiso   1.00
C231   C     0.28343   0.57210   0.96066   0.00000  Uiso   1.00
C232   C     0.33466   0.51497   0.90644   0.00000  Uiso   1.00
C233   C     0.40892   0.53046   0.87064   0.00000  Uiso   1.00
C234   C     0.44620   0.47045   0.82317   0.00000  Uiso   1.00
C235   C     0.53120   0.39282   0.74072   0.00000  Uiso   1.00
C236   C     0.26669   0.52540   0.04284   0.00000  Uiso   1.00
C237   C     0.28379   0.54965   0.12172   0.00000  Uiso   1.00
C238   C     0.26385   0.49842   0.18906   0.00000  Uiso   1.00
C239   C     0.24327   0.43700   0.31837   0.00000  Uiso   1.00
C240   C     0.20384   0.58402   0.91857   0.00000  Uiso   1.00
C241   C     0.16808   0.65758   0.89298   0.00000  Uiso   1.00
C242   C     0.09521   0.65571   0.85572   0.00000  Uiso   1.00
C243   C     0.97704   0.68531   0.79209   0.00000  Uiso   1.00
C244   C     0.21759   0.43800   0.94001   0.00000  Uiso   1.00
C245   C     0.29890   0.44214   0.89523   0.00000  Uiso   1.00
C246   C     0.33608   0.38209   0.84779   0.00000  Uiso   1.00
C247   C     0.41038   0.39749   0.81193   0.00000  Uiso   1.00
C248   C     0.23093   0.45256   0.03162   0.00000  Uiso   1.00
C249   C     0.21095   0.40129   0.09887   0.00000  Uiso   1.00
C250   C     0.22802   0.42545   0.17783   0.00000  Uiso   1.00
C251   C     0.16807   0.51119   0.90735   0.00000  Uiso   1.00
C252   C     0.09524   0.50921   0.87013   0.00000  Uiso   1.00
C253   C     0.05938   0.58274   0.84449   0.00000  Uiso   1.00
H254   H     0.31127   0.62880   0.96940   0.00000  Uiso   1.00
H255   H     0.43658   0.58683   0.87934   0.00000  Uiso   1.00
H256   H     0.31146   0.60602   0.13038   0.00000  Uiso   1.00
H257   H     0.19577   0.71393   0.90167   0.00000  Uiso   1.00
H258   H     0.55974   0.50816   0.77457   0.00000  Uiso   1.00
H259   H     0.29590   0.54864   0.30390   0.00000  Uiso   1.00
H260   H     0.05194   0.77618   0.82163   0.00000  Uiso   1.00
H261   H     0.18975   0.38129   0.93128   0.00000  Uiso   1.00
H262   H     0.30839   0.32573   0.83913   0.00000  Uiso   1.00
H263   H     0.18327   0.34493   0.09017   0.00000  Uiso   1.00
H264   H     0.06758   0.45283   0.86146   0.00000  Uiso   1.00
H265   H     0.45570   0.29625   0.74194   0.00000  Uiso   1.00
H266   H     0.19186   0.33673   0.27127   0.00000  Uiso   1.00
H267   H     0.94790   0.56427   0.78900   0.00000  Uiso   1.00
O268   O     0.58797   0.37011   0.69834   0.00000  Uiso   1.00
O269   O     0.24181   0.42324   0.39280   0.00000  Uiso   1.00
O270   O     0.92175   0.72176   0.76007   0.00000  Uiso   1.00
N271   N     0.51897   0.46592   0.77953   0.00000  Uiso   1.00
N272   N     0.27230   0.50376   0.27441   0.00000  Uiso   1.00
N273   N     0.04421   0.71649   0.82356   0.00000  Uiso   1.00
N274   N     0.46298   0.35189   0.76196   0.00000  Uiso   1.00
N275   N     0.21632   0.38973   0.25685   0.00000  Uiso   1.00
N276   N     0.98823   0.60247   0.80599   0.00000  Uiso   1.00
