data_job_04790
_audit_creation_date              2018-12-19
_audit_creation_method            'Materials Studio'
_symmetry_space_group_name_H-M    'P1'
_symmetry_Int_Tables_number       1
_symmetry_cell_setting            triclinic
loop_
_symmetry_equiv_pos_as_xyz
  x,y,z
_cell_length_a                    30.6675
_cell_length_b                    15.4578
_cell_length_c                    10.2749
_cell_angle_alpha                 90.0000
_cell_angle_beta                  90.0274
_cell_angle_gamma                 90.0000
loop_
_atom_site_label
_atom_site_type_symbol
_atom_site_fract_x
_atom_site_fract_y
_atom_site_fract_z
_atom_site_U_iso_or_equiv
_atom_site_adp_type
_atom_site_occupancy
C1     C     0.89288   0.91447   0.09854   0.00000  Uiso   1.00
C2     C     0.84514   0.88773   0.08807   0.00000  Uiso   1.00
C3     C     0.81811   0.90244   0.98200   0.00000  Uiso   1.00
C4     C     0.77547   0.87295   0.99141   0.00000  Uiso   1.00
C5     C     0.70363   0.83788   0.95817   0.00000  Uiso   1.00
C6     C     0.91823   0.83182   0.12751   0.00000  Uiso   1.00
C7     C     0.95267   0.79953   0.05460   0.00000  Uiso   1.00
C8     C     0.97156   0.72297   0.09723   0.00000  Uiso   1.00
C9     C     0.01323   0.60113   0.12526   0.00000  Uiso   1.00
C10    C     0.89630   0.97002   0.22076   0.00000  Uiso   1.00
C11    C     0.91229   0.05393   0.22626   0.00000  Uiso   1.00
C12    C     0.91272   0.09372   0.34740   0.00000  Uiso   1.00
C13    C     0.92033   0.18646   0.52022   0.00000  Uiso   1.00
C14    C     0.86521   0.83592   0.30389   0.00000  Uiso   1.00
C15    C     0.83011   0.84507   0.19961   0.00000  Uiso   1.00
C16    C     0.78750   0.81555   0.20920   0.00000  Uiso   1.00
C17    C     0.76041   0.83021   0.10315   0.00000  Uiso   1.00
C18    C     0.90321   0.78916   0.23904   0.00000  Uiso   1.00
C19    C     0.92206   0.71263   0.28180   0.00000  Uiso   1.00
C20    C     0.95650   0.68023   0.20897   0.00000  Uiso   1.00
C21    C     0.88127   0.92736   0.33230   0.00000  Uiso   1.00
C22    C     0.88168   0.96703   0.45346   0.00000  Uiso   1.00
C23    C     0.89767   0.05098   0.45914   0.00000  Uiso   1.00
H24    H     0.90458   0.94768   0.01170   0.00000  Uiso   1.00
H25    H     0.82975   0.93545   0.89569   0.00000  Uiso   1.00
H26    H     0.96429   0.83256   0.96830   0.00000  Uiso   1.00
H27    H     0.92392   0.08692   0.13993   0.00000  Uiso   1.00
H28    H     0.74017   0.90306   0.81624   0.00000  Uiso   1.00
H29    H     0.02386   0.68612   0.96935   0.00000  Uiso   1.00
H30    H     0.93873   0.22248   0.33127   0.00000  Uiso   1.00
H31    H     0.85351   0.80271   0.39073   0.00000  Uiso   1.00
H32    H     0.77588   0.78253   0.29552   0.00000  Uiso   1.00
H33    H     0.91042   0.67964   0.36812   0.00000  Uiso   1.00
H34    H     0.87005   0.93400   0.53975   0.00000  Uiso   1.00
H35    H     0.69645   0.77894   0.14076   0.00000  Uiso   1.00
H36    H     0.98014   0.56200   0.29387   0.00000  Uiso   1.00
H37    H     0.89501   0.09837   0.65579   0.00000  Uiso   1.00
O38    O     0.66817   0.83032   0.90901   0.00000  Uiso   1.00
O39    O     0.04037   0.54571   0.10990   0.00000  Uiso   1.00
O40    O     0.92867   0.24941   0.58472   0.00000  Uiso   1.00
N41    N     0.74053   0.87663   0.90570   0.00000  Uiso   1.00
N42    N     0.00576   0.67380   0.04883   0.00000  Uiso   1.00
N43    N     0.92618   0.17525   0.38720   0.00000  Uiso   1.00
N44    N     0.71700   0.80985   0.08031   0.00000  Uiso   1.00
N45    N     0.98224   0.60701   0.22345   0.00000  Uiso   1.00
N46    N     0.90265   0.10846   0.56182   0.00000  Uiso   1.00
C47    C     0.40623   0.58294   0.38966   0.00000  Uiso   1.00
C48    C     0.35844   0.59783   0.42388   0.00000  Uiso   1.00
C49    C     0.33782   0.57003   0.53657   0.00000  Uiso   1.00
C50    C     0.29392   0.59013   0.54966   0.00000  Uiso   1.00
C51    C     0.22312   0.60625   0.61746   0.00000  Uiso   1.00
C52    C     0.42564   0.67233   0.36539   0.00000  Uiso   1.00
C53    C     0.46152   0.70716   0.42890   0.00000  Uiso   1.00
C54    C     0.47419   0.78997   0.39274   0.00000  Uiso   1.00
C55    C     0.50774   0.92172   0.36967   0.00000  Uiso   1.00
C56    C     0.40632   0.53703   0.25831   0.00000  Uiso   1.00
C57    C     0.42597   0.45810   0.23177   0.00000  Uiso   1.00
C58    C     0.42238   0.42701   0.10544   0.00000  Uiso   1.00
C59    C     0.42594   0.34868   0.91612   0.00000  Uiso   1.00
C60    C     0.36493   0.66808   0.21250   0.00000  Uiso   1.00
C61    C     0.33600   0.64407   0.32765   0.00000  Uiso   1.00
C62    C     0.29212   0.66422   0.34057   0.00000  Uiso   1.00
C63    C     0.27144   0.63645   0.45326   0.00000  Uiso   1.00
C64    C     0.40320   0.71857   0.26917   0.00000  Uiso   1.00
C65    C     0.41582   0.80134   0.23290   0.00000  Uiso   1.00
C66    C     0.45172   0.83629   0.29634   0.00000  Uiso   1.00
C67    C     0.38388   0.58326   0.16209   0.00000  Uiso   1.00
C68    C     0.38027   0.55229   0.03577   0.00000  Uiso   1.00
C69    C     0.39990   0.47334   0.00904   0.00000  Uiso   1.00
H70    H     0.42370   0.54695   0.46458   0.00000  Uiso   1.00
H71    H     0.35520   0.53425   0.61102   0.00000  Uiso   1.00
H72    H     0.47888   0.67135   0.50335   0.00000  Uiso   1.00
H73    H     0.44333   0.42234   0.30626   0.00000  Uiso   1.00
H74    H     0.26935   0.54060   0.73097   0.00000  Uiso   1.00
H75    H     0.53016   0.82967   0.50392   0.00000  Uiso   1.00
H76    H     0.45519   0.30457   0.08830   0.00000  Uiso   1.00
H77    H     0.34746   0.70408   0.13758   0.00000  Uiso   1.00
H78    H     0.27477   0.70000   0.26609   0.00000  Uiso   1.00
H79    H     0.39845   0.83711   0.15842   0.00000  Uiso   1.00
H80    H     0.36290   0.58809   0.96133   0.00000  Uiso   1.00
H81    H     0.20407   0.67513   0.45101   0.00000  Uiso   1.00
H82    H     0.46489   0.96420   0.22396   0.00000  Uiso   1.00
H83    H     0.38991   0.43911   0.80834   0.00000  Uiso   1.00
O84    O     0.19027   0.60238   0.68144   0.00000  Uiso   1.00
O85    O     0.53245   0.98161   0.38355   0.00000  Uiso   1.00
O86    O     0.43409   0.29270   0.83827   0.00000  Uiso   1.00
N87    N     0.26396   0.57281   0.64743   0.00000  Uiso   1.00
N88    N     0.50780   0.84307   0.43517   0.00000  Uiso   1.00
N89    N     0.43772   0.35216   0.04660   0.00000  Uiso   1.00
N90    N     0.22884   0.64520   0.49679   0.00000  Uiso   1.00
N91    N     0.47267   0.91546   0.28453   0.00000  Uiso   1.00
N92    N     0.40259   0.42455   0.89595   0.00000  Uiso   1.00
C93    C     0.09372   0.08265   0.38983   0.00000  Uiso   1.00
C94    C     0.14152   0.09748   0.42422   0.00000  Uiso   1.00
C95    C     0.16212   0.06963   0.53697   0.00000  Uiso   1.00
C96    C     0.20603   0.08969   0.55022   0.00000  Uiso   1.00
C97    C     0.27682   0.10572   0.61827   0.00000  Uiso   1.00
C98    C     0.07434   0.17205   0.36555   0.00000  Uiso   1.00
C99    C     0.03846   0.20690   0.42895   0.00000  Uiso   1.00
C100   C     0.02582   0.28973   0.39279   0.00000  Uiso   1.00
C101   C     0.99230   0.42152   0.36968   0.00000  Uiso   1.00
C102   C     0.09364   0.03676   0.25846   0.00000  Uiso   1.00
C103   C     0.07397   0.95786   0.23180   0.00000  Uiso   1.00
C104   C     0.07756   0.92680   0.10546   0.00000  Uiso   1.00
C105   C     0.07400   0.84852   0.91608   0.00000  Uiso   1.00
C106   C     0.13506   0.16778   0.21286   0.00000  Uiso   1.00
C107   C     0.16397   0.14372   0.32810   0.00000  Uiso   1.00
C108   C     0.20786   0.16383   0.34118   0.00000  Uiso   1.00
C109   C     0.22853   0.13601   0.45392   0.00000  Uiso   1.00
C110   C     0.09679   0.21830   0.26943   0.00000  Uiso   1.00
C111   C     0.08420   0.30109   0.23316   0.00000  Uiso   1.00
C112   C     0.04831   0.33606   0.29650   0.00000  Uiso   1.00
C113   C     0.11609   0.08300   0.16233   0.00000  Uiso   1.00
C114   C     0.11971   0.05206   0.03601   0.00000  Uiso   1.00
C115   C     0.10005   0.97313   0.00917   0.00000  Uiso   1.00
H116   H     0.07624   0.04665   0.46466   0.00000  Uiso   1.00
H117   H     0.14474   0.03385   0.61134   0.00000  Uiso   1.00
H118   H     0.02109   0.17109   0.50332   0.00000  Uiso   1.00
H119   H     0.05660   0.92210   0.30621   0.00000  Uiso   1.00
H120   H     0.23057   0.04009   0.73159   0.00000  Uiso   1.00
H121   H     0.96985   0.32946   0.50380   0.00000  Uiso   1.00
H122   H     0.04472   0.80440   0.08814   0.00000  Uiso   1.00
H123   H     0.15254   0.20379   0.13803   0.00000  Uiso   1.00
H124   H     0.22523   0.19961   0.26678   0.00000  Uiso   1.00
H125   H     0.10158   0.33686   0.15877   0.00000  Uiso   1.00
H126   H     0.13709   0.08786   0.96165   0.00000  Uiso   1.00
H127   H     0.29590   0.17463   0.45193   0.00000  Uiso   1.00
H128   H     0.03518   0.46400   0.22414   0.00000  Uiso   1.00
H129   H     0.11005   0.93894   0.80849   0.00000  Uiso   1.00
O130   O     0.30967   0.10180   0.68237   0.00000  Uiso   1.00
O131   O     0.96761   0.48144   0.38350   0.00000  Uiso   1.00
O132   O     0.06584   0.79257   0.83818   0.00000  Uiso   1.00
N133   N     0.23597   0.07231   0.64809   0.00000  Uiso   1.00
N134   N     0.99222   0.34286   0.43514   0.00000  Uiso   1.00
N135   N     0.06221   0.85198   0.04652   0.00000  Uiso   1.00
N136   N     0.27113   0.14470   0.49761   0.00000  Uiso   1.00
N137   N     0.02737   0.41526   0.28466   0.00000  Uiso   1.00
N138   N     0.09736   0.92438   0.89604   0.00000  Uiso   1.00
C139   C     0.60708   0.41473   0.09874   0.00000  Uiso   1.00
C140   C     0.65481   0.38801   0.08831   0.00000  Uiso   1.00
C141   C     0.68182   0.40273   0.98226   0.00000  Uiso   1.00
C142   C     0.72446   0.37325   0.99170   0.00000  Uiso   1.00
C143   C     0.79629   0.33821   0.95852   0.00000  Uiso   1.00
C144   C     0.58173   0.33207   0.12767   0.00000  Uiso   1.00
C145   C     0.54728   0.29978   0.05473   0.00000  Uiso   1.00
C146   C     0.52841   0.22321   0.09733   0.00000  Uiso   1.00
C147   C     0.48675   0.10136   0.12531   0.00000  Uiso   1.00
C148   C     0.60368   0.47027   0.22096   0.00000  Uiso   1.00
C149   C     0.58768   0.55418   0.22646   0.00000  Uiso   1.00
C150   C     0.58727   0.59396   0.34761   0.00000  Uiso   1.00
C151   C     0.57970   0.68669   0.52043   0.00000  Uiso   1.00
C152   C     0.63479   0.33618   0.30410   0.00000  Uiso   1.00
C153   C     0.66987   0.34534   0.19986   0.00000  Uiso   1.00
C154   C     0.71249   0.31583   0.20947   0.00000  Uiso   1.00
C155   C     0.73955   0.33051   0.10345   0.00000  Uiso   1.00
C156   C     0.59678   0.28941   0.23922   0.00000  Uiso   1.00
C157   C     0.57795   0.21287   0.28194   0.00000  Uiso   1.00
C158   C     0.54349   0.18047   0.20908   0.00000  Uiso   1.00
C159   C     0.61874   0.42761   0.33251   0.00000  Uiso   1.00
C160   C     0.61835   0.46727   0.45367   0.00000  Uiso   1.00
C161   C     0.60236   0.55122   0.45935   0.00000  Uiso   1.00
H162   H     0.59535   0.44794   0.01190   0.00000  Uiso   1.00
H163   H     0.67015   0.43575   0.89595   0.00000  Uiso   1.00
H164   H     0.53564   0.33281   0.96842   0.00000  Uiso   1.00
H165   H     0.57603   0.58717   0.14012   0.00000  Uiso   1.00
H166   H     0.75972   0.40338   0.81657   0.00000  Uiso   1.00
H167   H     0.47607   0.18635   0.96941   0.00000  Uiso   1.00
H168   H     0.56125   0.72272   0.33147   0.00000  Uiso   1.00
H169   H     0.64652   0.30297   0.39095   0.00000  Uiso   1.00
H170   H     0.72413   0.28282   0.29580   0.00000  Uiso   1.00
H171   H     0.58961   0.17988   0.36827   0.00000  Uiso   1.00
H172   H     0.63000   0.43424   0.53997   0.00000  Uiso   1.00
H173   H     0.80352   0.27926   0.14110   0.00000  Uiso   1.00
H174   H     0.51988   0.06223   0.29394   0.00000  Uiso   1.00
H175   H     0.60506   0.59860   0.65601   0.00000  Uiso   1.00
O176   O     0.83175   0.33065   0.90939   0.00000  Uiso   1.00
O177   O     0.45961   0.04593   0.10992   0.00000  Uiso   1.00
O178   O     0.57137   0.74963   0.58493   0.00000  Uiso   1.00
N179   N     0.75938   0.37695   0.90602   0.00000  Uiso   1.00
N180   N     0.49419   0.17403   0.04890   0.00000  Uiso   1.00
N181   N     0.57382   0.67548   0.38740   0.00000  Uiso   1.00
N182   N     0.78295   0.31016   0.08065   0.00000  Uiso   1.00
N183   N     0.51777   0.10724   0.22353   0.00000  Uiso   1.00
N184   N     0.59739   0.60869   0.56203   0.00000  Uiso   1.00
C185   C     0.10712   0.41447   0.90146   0.00000  Uiso   1.00
C186   C     0.15486   0.38773   0.91193   0.00000  Uiso   1.00
C187   C     0.18189   0.40244   0.01800   0.00000  Uiso   1.00
C188   C     0.22453   0.37295   0.00859   0.00000  Uiso   1.00
C189   C     0.29637   0.33788   0.04183   0.00000  Uiso   1.00
C190   C     0.08177   0.33182   0.87249   0.00000  Uiso   1.00
C191   C     0.04733   0.29953   0.94540   0.00000  Uiso   1.00
C192   C     0.02844   0.22297   0.90277   0.00000  Uiso   1.00
C193   C     0.98677   0.10113   0.87474   0.00000  Uiso   1.00
C194   C     0.10370   0.47002   0.77924   0.00000  Uiso   1.00
C195   C     0.08771   0.55393   0.77374   0.00000  Uiso   1.00
C196   C     0.08728   0.59372   0.65260   0.00000  Uiso   1.00
C197   C     0.07967   0.68646   0.47978   0.00000  Uiso   1.00
C198   C     0.13479   0.33592   0.69611   0.00000  Uiso   1.00
C199   C     0.16989   0.34507   0.80039   0.00000  Uiso   1.00
C200   C     0.21250   0.31555   0.79080   0.00000  Uiso   1.00
C201   C     0.23959   0.33021   0.89685   0.00000  Uiso   1.00
C202   C     0.09679   0.28916   0.76096   0.00000  Uiso   1.00
C203   C     0.07794   0.21263   0.71820   0.00000  Uiso   1.00
C204   C     0.04350   0.18023   0.79103   0.00000  Uiso   1.00
C205   C     0.11873   0.42736   0.66770   0.00000  Uiso   1.00
C206   C     0.11832   0.46703   0.54654   0.00000  Uiso   1.00
C207   C     0.10233   0.55098   0.54086   0.00000  Uiso   1.00
H208   H     0.09542   0.44768   0.98830   0.00000  Uiso   1.00
H209   H     0.17025   0.43545   0.10431   0.00000  Uiso   1.00
H210   H     0.03571   0.33256   0.03170   0.00000  Uiso   1.00
H211   H     0.07608   0.58692   0.86007   0.00000  Uiso   1.00
H212   H     0.25983   0.40306   0.18376   0.00000  Uiso   1.00
H213   H     0.97614   0.18612   0.03065   0.00000  Uiso   1.00
H214   H     0.06127   0.72248   0.66873   0.00000  Uiso   1.00
H215   H     0.14649   0.30271   0.60927   0.00000  Uiso   1.00
H216   H     0.22412   0.28253   0.70448   0.00000  Uiso   1.00
H217   H     0.08958   0.17964   0.63188   0.00000  Uiso   1.00
H218   H     0.12995   0.43400   0.46025   0.00000  Uiso   1.00
H219   H     0.30355   0.27894   0.85924   0.00000  Uiso   1.00
H220   H     0.01986   0.06200   0.70613   0.00000  Uiso   1.00
H221   H     0.10499   0.59837   0.34421   0.00000  Uiso   1.00
O222   O     0.33183   0.33032   0.09099   0.00000  Uiso   1.00
O223   O     0.95963   0.04571   0.89010   0.00000  Uiso   1.00
O224   O     0.07133   0.74941   0.41528   0.00000  Uiso   1.00
N225   N     0.25947   0.37663   0.09430   0.00000  Uiso   1.00
N226   N     0.99424   0.17380   0.95117   0.00000  Uiso   1.00
N227   N     0.07382   0.67525   0.61280   0.00000  Uiso   1.00
N228   N     0.28300   0.30985   0.91969   0.00000  Uiso   1.00
N229   N     0.01776   0.10701   0.77655   0.00000  Uiso   1.00
N230   N     0.09735   0.60846   0.43818   0.00000  Uiso   1.00
C231   C     0.59377   0.08294   0.61034   0.00000  Uiso   1.00
C232   C     0.64156   0.09783   0.57612   0.00000  Uiso   1.00
C233   C     0.66218   0.07003   0.46343   0.00000  Uiso   1.00
C234   C     0.70608   0.09013   0.45034   0.00000  Uiso   1.00
C235   C     0.77688   0.10625   0.38254   0.00000  Uiso   1.00
C236   C     0.57436   0.17233   0.63461   0.00000  Uiso   1.00
C237   C     0.53848   0.20716   0.57110   0.00000  Uiso   1.00
C238   C     0.52581   0.28997   0.60726   0.00000  Uiso   1.00
C239   C     0.49226   0.42172   0.63033   0.00000  Uiso   1.00
C240   C     0.59368   0.03703   0.74169   0.00000  Uiso   1.00
C241   C     0.57403   0.95810   0.76823   0.00000  Uiso   1.00
C242   C     0.57762   0.92701   0.89456   0.00000  Uiso   1.00
C243   C     0.57406   0.84868   0.08388   0.00000  Uiso   1.00
C244   C     0.63507   0.16808   0.78750   0.00000  Uiso   1.00
C245   C     0.66400   0.14407   0.67235   0.00000  Uiso   1.00
C246   C     0.70788   0.16422   0.65943   0.00000  Uiso   1.00
C247   C     0.72856   0.13645   0.54674   0.00000  Uiso   1.00
C248   C     0.59680   0.21857   0.73083   0.00000  Uiso   1.00
C249   C     0.58418   0.30134   0.76710   0.00000  Uiso   1.00
C250   C     0.54828   0.33629   0.70366   0.00000  Uiso   1.00
C251   C     0.61612   0.08326   0.83791   0.00000  Uiso   1.00
C252   C     0.61973   0.05229   0.96423   0.00000  Uiso   1.00
C253   C     0.60010   0.97334   0.99096   0.00000  Uiso   1.00
H254   H     0.57630   0.04695   0.53542   0.00000  Uiso   1.00
H255   H     0.64480   0.03425   0.38898   0.00000  Uiso   1.00
H256   H     0.52112   0.17135   0.49665   0.00000  Uiso   1.00
H257   H     0.55667   0.92234   0.69374   0.00000  Uiso   1.00
H258   H     0.73065   0.04060   0.26903   0.00000  Uiso   1.00
H259   H     0.46984   0.32967   0.49608   0.00000  Uiso   1.00
H260   H     0.54481   0.80457   0.91170   0.00000  Uiso   1.00
H261   H     0.65254   0.20408   0.86242   0.00000  Uiso   1.00
H262   H     0.72523   0.20000   0.73391   0.00000  Uiso   1.00
H263   H     0.60155   0.33711   0.84158   0.00000  Uiso   1.00
H264   H     0.63710   0.08809   0.03867   0.00000  Uiso   1.00
H265   H     0.79593   0.17513   0.54899   0.00000  Uiso   1.00
H266   H     0.53511   0.46420   0.77604   0.00000  Uiso   1.00
H267   H     0.61009   0.93911   0.19166   0.00000  Uiso   1.00
O268   O     0.80973   0.10238   0.31856   0.00000  Uiso   1.00
O269   O     0.46755   0.48161   0.61645   0.00000  Uiso   1.00
O270   O     0.56591   0.79270   0.16173   0.00000  Uiso   1.00
N271   N     0.73604   0.07281   0.35257   0.00000  Uiso   1.00
N272   N     0.49220   0.34307   0.56483   0.00000  Uiso   1.00
N273   N     0.56228   0.85216   0.95340   0.00000  Uiso   1.00
N274   N     0.77116   0.14520   0.50321   0.00000  Uiso   1.00
N275   N     0.52733   0.41546   0.71547   0.00000  Uiso   1.00
N276   N     0.59741   0.92455   0.10405   0.00000  Uiso   1.00
C277   C     0.90628   0.58265   0.61017   0.00000  Uiso   1.00
C278   C     0.85848   0.59748   0.57578   0.00000  Uiso   1.00
C279   C     0.83788   0.56963   0.46303   0.00000  Uiso   1.00
C280   C     0.79397   0.58969   0.44978   0.00000  Uiso   1.00
C281   C     0.72318   0.60572   0.38173   0.00000  Uiso   1.00
C282   C     0.92566   0.67205   0.63445   0.00000  Uiso   1.00
C283   C     0.96154   0.70690   0.57105   0.00000  Uiso   1.00
C284   C     0.97418   0.78973   0.60721   0.00000  Uiso   1.00
C285   C     0.00770   0.92152   0.63032   0.00000  Uiso   1.00
C286   C     0.90636   0.53676   0.74154   0.00000  Uiso   1.00
C287   C     0.92603   0.45786   0.76820   0.00000  Uiso   1.00
C288   C     0.92244   0.42680   0.89454   0.00000  Uiso   1.00
C289   C     0.92600   0.34852   0.08392   0.00000  Uiso   1.00
C290   C     0.86494   0.66778   0.78714   0.00000  Uiso   1.00
C291   C     0.83603   0.64372   0.67190   0.00000  Uiso   1.00
C292   C     0.79214   0.66383   0.65882   0.00000  Uiso   1.00
C293   C     0.77147   0.63601   0.54608   0.00000  Uiso   1.00
C294   C     0.90321   0.71830   0.73057   0.00000  Uiso   1.00
C295   C     0.91580   0.80109   0.76684   0.00000  Uiso   1.00
C296   C     0.95169   0.83606   0.70350   0.00000  Uiso   1.00
C297   C     0.88391   0.58300   0.83767   0.00000  Uiso   1.00
C298   C     0.88029   0.55206   0.96399   0.00000  Uiso   1.00
C299   C     0.89995   0.47313   0.99083   0.00000  Uiso   1.00
H300   H     0.92376   0.54665   0.53534   0.00000  Uiso   1.00
H301   H     0.85526   0.53385   0.38866   0.00000  Uiso   1.00
H302   H     0.97891   0.67109   0.49668   0.00000  Uiso   1.00
H303   H     0.94340   0.42210   0.69379   0.00000  Uiso   1.00
H304   H     0.76943   0.54009   0.26841   0.00000  Uiso   1.00
H305   H     0.03015   0.82946   0.49620   0.00000  Uiso   1.00
H306   H     0.95528   0.30440   0.91186   0.00000  Uiso   1.00
H307   H     0.84746   0.70379   0.86197   0.00000  Uiso   1.00
H308   H     0.77477   0.69961   0.73322   0.00000  Uiso   1.00
H309   H     0.89842   0.83686   0.84123   0.00000  Uiso   1.00
H310   H     0.86291   0.58786   0.03835   0.00000  Uiso   1.00
H311   H     0.70410   0.67463   0.54807   0.00000  Uiso   1.00
H312   H     0.96482   0.96400   0.77586   0.00000  Uiso   1.00
H313   H     0.88995   0.43894   0.19151   0.00000  Uiso   1.00
O314   O     0.69033   0.60180   0.31763   0.00000  Uiso   1.00
O315   O     0.03239   0.98144   0.61650   0.00000  Uiso   1.00
O316   O     0.93416   0.29257   0.16182   0.00000  Uiso   1.00
N317   N     0.76403   0.57231   0.35191   0.00000  Uiso   1.00
N318   N     0.00778   0.84286   0.56486   0.00000  Uiso   1.00
N319   N     0.93779   0.35198   0.95348   0.00000  Uiso   1.00
N320   N     0.72887   0.64470   0.50239   0.00000  Uiso   1.00
N321   N     0.97263   0.91526   0.71534   0.00000  Uiso   1.00
N322   N     0.90264   0.42438   0.10396   0.00000  Uiso   1.00
C323   C     0.39292   0.91473   0.90126   0.00000  Uiso   1.00
C324   C     0.34519   0.88801   0.91169   0.00000  Uiso   1.00
C325   C     0.31818   0.90273   0.01774   0.00000  Uiso   1.00
C326   C     0.27554   0.87325   0.00830   0.00000  Uiso   1.00
C327   C     0.20371   0.83821   0.04148   0.00000  Uiso   1.00
C328   C     0.41827   0.83207   0.87233   0.00000  Uiso   1.00
C329   C     0.45272   0.79978   0.94527   0.00000  Uiso   1.00
C330   C     0.47159   0.72321   0.90267   0.00000  Uiso   1.00
C331   C     0.51325   0.60136   0.87469   0.00000  Uiso   1.00
C332   C     0.39632   0.97027   0.77904   0.00000  Uiso   1.00
C333   C     0.41232   0.05418   0.77354   0.00000  Uiso   1.00
C334   C     0.41273   0.09396   0.65239   0.00000  Uiso   1.00
C335   C     0.42030   0.18669   0.47957   0.00000  Uiso   1.00
C336   C     0.36521   0.83618   0.69590   0.00000  Uiso   1.00
C337   C     0.33013   0.84534   0.80014   0.00000  Uiso   1.00
C338   C     0.28751   0.81583   0.79053   0.00000  Uiso   1.00
C339   C     0.26045   0.83051   0.89655   0.00000  Uiso   1.00
C340   C     0.40322   0.78941   0.76078   0.00000  Uiso   1.00
C341   C     0.42205   0.71287   0.71806   0.00000  Uiso   1.00
C342   C     0.45651   0.68047   0.79092   0.00000  Uiso   1.00
C343   C     0.38126   0.92761   0.66749   0.00000  Uiso   1.00
C344   C     0.38165   0.96727   0.54633   0.00000  Uiso   1.00
C345   C     0.39764   0.05122   0.54065   0.00000  Uiso   1.00
H346   H     0.40465   0.94794   0.98810   0.00000  Uiso   1.00
H347   H     0.32985   0.93575   0.10405   0.00000  Uiso   1.00
H348   H     0.46436   0.83281   0.03158   0.00000  Uiso   1.00
H349   H     0.42397   0.08717   0.85988   0.00000  Uiso   1.00
H350   H     0.24028   0.90338   0.18343   0.00000  Uiso   1.00
H351   H     0.52393   0.68635   0.03059   0.00000  Uiso   1.00
H352   H     0.43875   0.22272   0.66853   0.00000  Uiso   1.00
H353   H     0.35348   0.80297   0.60905   0.00000  Uiso   1.00
H354   H     0.27587   0.78282   0.70420   0.00000  Uiso   1.00
H355   H     0.41039   0.67988   0.63173   0.00000  Uiso   1.00
H356   H     0.37000   0.93424   0.46003   0.00000  Uiso   1.00
H357   H     0.19648   0.77926   0.85890   0.00000  Uiso   1.00
H358   H     0.48012   0.56223   0.70606   0.00000  Uiso   1.00
H359   H     0.39494   0.09860   0.34399   0.00000  Uiso   1.00
O360   O     0.16825   0.83065   0.09061   0.00000  Uiso   1.00
O361   O     0.54039   0.54593   0.89008   0.00000  Uiso   1.00
O362   O     0.42863   0.24963   0.41507   0.00000  Uiso   1.00
N363   N     0.24062   0.87695   0.09398   0.00000  Uiso   1.00
N364   N     0.50581   0.67403   0.95110   0.00000  Uiso   1.00
N365   N     0.42618   0.17548   0.61260   0.00000  Uiso   1.00
N366   N     0.21705   0.81016   0.91935   0.00000  Uiso   1.00
N367   N     0.48223   0.60724   0.77647   0.00000  Uiso   1.00
N368   N     0.40261   0.10869   0.43797   0.00000  Uiso   1.00
