data_job_06483
_audit_creation_date              2018-12-19
_audit_creation_method            'Materials Studio'
_symmetry_space_group_name_H-M    'P1'
_symmetry_Int_Tables_number       1
_symmetry_cell_setting            triclinic
loop_
_symmetry_equiv_pos_as_xyz
  x,y,z
_cell_length_a                    12.6556
_cell_length_b                    25.4480
_cell_length_c                    25.9663
_cell_angle_alpha                 61.8380
_cell_angle_beta                  100.2557
_cell_angle_gamma                 87.3314
loop_
_atom_site_label
_atom_site_type_symbol
_atom_site_fract_x
_atom_site_fract_y
_atom_site_fract_z
_atom_site_U_iso_or_equiv
_atom_site_adp_type
_atom_site_occupancy
C1     C     0.28810   0.73294   0.25853   0.00000  Uiso   1.00
C2     C     0.21107   0.78977   0.21076   0.00000  Uiso   1.00
C3     C     0.10519   0.79178   0.18328   0.00000  Uiso   1.00
C4     C     0.04806   0.84821   0.14067   0.00000  Uiso   1.00
C5     C     0.92131   0.92847   0.06869   0.00000  Uiso   1.00
C6     C     0.38909   0.73256   0.23419   0.00000  Uiso   1.00
C7     C     0.43288   0.68647   0.22643   0.00000  Uiso   1.00
C8     C     0.52561   0.69474   0.20355   0.00000  Uiso   1.00
C9     C     0.67527   0.68616   0.16798   0.00000  Uiso   1.00
C10    C     0.32364   0.74271   0.31227   0.00000  Uiso   1.00
C11    C     0.31243   0.70513   0.37016   0.00000  Uiso   1.00
C12    C     0.35009   0.72193   0.41303   0.00000  Uiso   1.00
C13    C     0.39813   0.72910   0.49869   0.00000  Uiso   1.00
C14    C     0.37493   0.82958   0.23171   0.00000  Uiso   1.00
C15    C     0.25824   0.84226   0.19619   0.00000  Uiso   1.00
C16    C     0.20125   0.89870   0.15361   0.00000  Uiso   1.00
C17    C     0.09530   0.90079   0.12608   0.00000  Uiso   1.00
C18    C     0.43625   0.78505   0.21962   0.00000  Uiso   1.00
C19    C     0.52894   0.79339   0.19675   0.00000  Uiso   1.00
C20    C     0.57286   0.74732   0.18895   0.00000  Uiso   1.00
C21    C     0.37080   0.79520   0.29770   0.00000  Uiso   1.00
C22    C     0.40849   0.81205   0.34048   0.00000  Uiso   1.00
C23    C     0.39734   0.77451   0.39843   0.00000  Uiso   1.00
H24    H     0.25138   0.69207   0.26987   0.00000  Uiso   1.00
H25    H     0.06872   0.75115   0.19457   0.00000  Uiso   1.00
H26    H     0.39637   0.64585   0.23771   0.00000  Uiso   1.00
H27    H     0.27593   0.66452   0.38142   0.00000  Uiso   1.00
H28    H     0.88702   0.83979   0.10464   0.00000  Uiso   1.00
H29    H     0.57790   0.61776   0.19562   0.00000  Uiso   1.00
H30    H     0.32394   0.65711   0.49866   0.00000  Uiso   1.00
H31    H     0.41165   0.87044   0.22037   0.00000  Uiso   1.00
H32    H     0.23777   0.93931   0.14234   0.00000  Uiso   1.00
H33    H     0.56542   0.83401   0.18548   0.00000  Uiso   1.00
H34    H     0.44498   0.85267   0.32919   0.00000  Uiso   1.00
H35    H     0.02423   0.99251   0.06225   0.00000  Uiso   1.00
H36    H     0.71512   0.77047   0.15324   0.00000  Uiso   1.00
H37    H     0.46115   0.80983   0.45628   0.00000  Uiso   1.00
O38    O     0.83837   0.95824   0.03300   0.00000  Uiso   1.00
O39    O     0.74479   0.66693   0.15238   0.00000  Uiso   1.00
O40    O     0.41158   0.71856   0.54996   0.00000  Uiso   1.00
N41    N     0.94317   0.86629   0.10538   0.00000  Uiso   1.00
N42    N     0.58909   0.65870   0.19043   0.00000  Uiso   1.00
N43    N     0.35168   0.69548   0.47376   0.00000  Uiso   1.00
N44    N     0.01700   0.94846   0.08257   0.00000  Uiso   1.00
N45    N     0.66292   0.74088   0.16762   0.00000  Uiso   1.00
N46    N     0.42551   0.77766   0.45095   0.00000  Uiso   1.00
C47    C     0.97627   0.27955   0.55725   0.00000  Uiso   1.00
C48    C     0.00762   0.27120   0.62043   0.00000  Uiso   1.00
C49    C     0.94555   0.29522   0.64548   0.00000  Uiso   1.00
C50    C     0.98853   0.28238   0.70393   0.00000  Uiso   1.00
C51    C     0.02181   0.27485   0.79712   0.00000  Uiso   1.00
C52    C     0.06831   0.30629   0.52718   0.00000  Uiso   1.00
C53    C     0.05726   0.35980   0.47382   0.00000  Uiso   1.00
C54    C     0.15133   0.37649   0.45377   0.00000  Uiso   1.00
C55    C     0.27881   0.42341   0.40217   0.00000  Uiso   1.00
C56    C     0.98084   0.21628   0.56475   0.00000  Uiso   1.00
C57    C     0.89625   0.19411   0.54296   0.00000  Uiso   1.00
C58    C     0.91668   0.13502   0.55453   0.00000  Uiso   1.00
C59    C     0.90835   0.04219   0.56127   0.00000  Uiso   1.00
C60    C     0.16298   0.21404   0.61652   0.00000  Uiso   1.00
C61    C     0.10904   0.23562   0.65262   0.00000  Uiso   1.00
C62    C     0.15212   0.22273   0.71105   0.00000  Uiso   1.00
C63    C     0.09012   0.24673   0.73618   0.00000  Uiso   1.00
C64    C     0.16972   0.27070   0.55937   0.00000  Uiso   1.00
C65    C     0.26383   0.28732   0.53939   0.00000  Uiso   1.00
C66    C     0.25292   0.34084   0.48602   0.00000  Uiso   1.00
C67    C     0.08225   0.18069   0.59694   0.00000  Uiso   1.00
C68    C     0.10282   0.12163   0.60854   0.00000  Uiso   1.00
C69    C     0.01827   0.09938   0.58678   0.00000  Uiso   1.00
H70    H     0.89732   0.30726   0.53218   0.00000  Uiso   1.00
H71    H     0.86708   0.32276   0.62054   0.00000  Uiso   1.00
H72    H     0.97877   0.38732   0.44891   0.00000  Uiso   1.00
H73    H     0.81778   0.22166   0.51805   0.00000  Uiso   1.00
H74    H     0.87829   0.32427   0.73270   0.00000  Uiso   1.00
H75    H     0.11379   0.46040   0.37079   0.00000  Uiso   1.00
H76    H     0.77431   0.11107   0.51658   0.00000  Uiso   1.00
H77    H     0.24194   0.18633   0.64158   0.00000  Uiso   1.00
H78    H     0.23060   0.19520   0.73595   0.00000  Uiso   1.00
H79    H     0.34229   0.25977   0.56432   0.00000  Uiso   1.00
H80    H     0.18130   0.09411   0.63346   0.00000  Uiso   1.00
H81    H     0.17334   0.22074   0.82637   0.00000  Uiso   1.00
H82    H     0.40884   0.35687   0.46446   0.00000  Uiso   1.00
H83    H     0.06936   0.00754   0.61025   0.00000  Uiso   1.00
O84    O     0.01216   0.28053   0.83963   0.00000  Uiso   1.00
O85    O     0.32111   0.45913   0.36481   0.00000  Uiso   1.00
O86    O     0.87573   0.00082   0.55610   0.00000  Uiso   1.00
N87    N     0.94928   0.29867   0.74180   0.00000  Uiso   1.00
N88    N     0.16945   0.42596   0.40344   0.00000  Uiso   1.00
N89    N     0.85208   0.09937   0.53973   0.00000  Uiso   1.00
N90    N     0.10804   0.24296   0.79220   0.00000  Uiso   1.00
N91    N     0.32822   0.37025   0.45384   0.00000  Uiso   1.00
N92    N     0.01085   0.04366   0.59013   0.00000  Uiso   1.00
C93    C     0.16844   0.47156   0.08086   0.00000  Uiso   1.00
C94    C     0.09401   0.42643   0.07996   0.00000  Uiso   1.00
C95    C     0.01611   0.40664   0.11360   0.00000  Uiso   1.00
C96    C     0.95633   0.36523   0.10641   0.00000  Uiso   1.00
C97    C     0.83811   0.29829   0.11104   0.00000  Uiso   1.00
C98    C     0.28409   0.43980   0.09675   0.00000  Uiso   1.00
C99    C     0.36601   0.43127   0.14449   0.00000  Uiso   1.00
C100   C     0.46624   0.40112   0.15141   0.00000  Uiso   1.00
C101   C     0.64314   0.35499   0.18207   0.00000  Uiso   1.00
C102   C     0.14942   0.52216   0.01613   0.00000  Uiso   1.00
C103   C     0.11813   0.58289   0.99609   0.00000  Uiso   1.00
C104   C     0.10500   0.62209   0.93515   0.00000  Uiso   1.00
C105   C     0.07281   0.70384   0.84064   0.00000  Uiso   1.00
C106   C     0.20079   0.43320   0.00827   0.00000  Uiso   1.00
C107   C     0.11158   0.40559   0.04054   0.00000  Uiso   1.00
C108   C     0.05189   0.36420   0.03329   0.00000  Uiso   1.00
C109   C     0.97392   0.34436   0.06691   0.00000  Uiso   1.00
C110   C     0.30165   0.41897   0.05732   0.00000  Uiso   1.00
C111   C     0.40179   0.38883   0.06417   0.00000  Uiso   1.00
C112   C     0.48384   0.38025   0.11191   0.00000  Uiso   1.00
C113   C     0.16698   0.50133   0.97670   0.00000  Uiso   1.00
C114   C     0.15391   0.54045   0.91578   0.00000  Uiso   1.00
C115   C     0.12260   0.60122   0.89565   0.00000  Uiso   1.00
H116   H     0.15478   0.48778   0.11156   0.00000  Uiso   1.00
H117   H     0.00255   0.42277   0.14412   0.00000  Uiso   1.00
H118   H     0.35239   0.44740   0.17499   0.00000  Uiso   1.00
H119   H     0.10455   0.59899   0.02662   0.00000  Uiso   1.00
H120   H     0.84155   0.34149   0.16284   0.00000  Uiso   1.00
H121   H     0.57922   0.39344   0.22792   0.00000  Uiso   1.00
H122   H     0.05660   0.71311   0.91506   0.00000  Uiso   1.00
H123   H     0.21446   0.41698   0.97757   0.00000  Uiso   1.00
H124   H     0.06550   0.34809   0.00277   0.00000  Uiso   1.00
H125   H     0.41535   0.37272   0.03365   0.00000  Uiso   1.00
H126   H     0.16751   0.52431   0.88528   0.00000  Uiso   1.00
H127   H     0.89265   0.28087   0.04812   0.00000  Uiso   1.00
H128   H     0.63033   0.33283   0.11321   0.00000  Uiso   1.00
H129   H     0.10770   0.65249   0.80034   0.00000  Uiso   1.00
O130   O     0.76806   0.26712   0.12449   0.00000  Uiso   1.00
O131   O     0.73586   0.33529   0.20987   0.00000  Uiso   1.00
O132   O     0.05019   0.75468   0.79940   0.00000  Uiso   1.00
N133   N     0.87400   0.33669   0.13237   0.00000  Uiso   1.00
N134   N     0.56368   0.38525   0.19323   0.00000  Uiso   1.00
N135   N     0.07510   0.68411   0.90073   0.00000  Uiso   1.00
N136   N     0.90150   0.30407   0.07064   0.00000  Uiso   1.00
N137   N     0.59118   0.35263   0.13150   0.00000  Uiso   1.00
N138   N     0.10260   0.65149   0.83900   0.00000  Uiso   1.00
C139   C     0.62828   0.09055   0.64150   0.00000  Uiso   1.00
C140   C     0.56601   0.09506   0.68478   0.00000  Uiso   1.00
C141   C     0.48530   0.06152   0.70673   0.00000  Uiso   1.00
C142   C     0.43821   0.07230   0.74588   0.00000  Uiso   1.00
C143   C     0.33661   0.07277   0.81058   0.00000  Uiso   1.00
C144   C     0.74822   0.07663   0.67261   0.00000  Uiso   1.00
C145   C     0.82071   0.02761   0.68433   0.00000  Uiso   1.00
C146   C     0.92700   0.02289   0.71323   0.00000  Uiso   1.00
C147   C     0.10831   0.99478   0.75900   0.00000  Uiso   1.00
C148   C     0.61166   0.15395   0.58802   0.00000  Uiso   1.00
C149   C     0.56935   0.16993   0.52859   0.00000  Uiso   1.00
C150   C     0.56070   0.23031   0.48627   0.00000  Uiso   1.00
C151   C     0.52998   0.32223   0.40069   0.00000  Uiso   1.00
C152   C     0.68818   0.16934   0.67200   0.00000  Uiso   1.00
C153   C     0.59855   0.13785   0.70134   0.00000  Uiso   1.00
C154   C     0.55157   0.14869   0.74047   0.00000  Uiso   1.00
C155   C     0.47080   0.11517   0.76247   0.00000  Uiso   1.00
C156   C     0.78076   0.11942   0.68918   0.00000  Uiso   1.00
C157   C     0.88698   0.11478   0.71807   0.00000  Uiso   1.00
C158   C     0.95960   0.06576   0.72982   0.00000  Uiso   1.00
C159   C     0.64420   0.19674   0.60458   0.00000  Uiso   1.00
C160   C     0.63562   0.25710   0.56234   0.00000  Uiso   1.00
C161   C     0.59330   0.27317   0.50286   0.00000  Uiso   1.00
H162   H     0.60296   0.05723   0.62861   0.00000  Uiso   1.00
H163   H     0.46015   0.02841   0.69390   0.00000  Uiso   1.00
H164   H     0.79551   0.99451   0.67150   0.00000  Uiso   1.00
H165   H     0.54419   0.13681   0.51579   0.00000  Uiso   1.00
H166   H     0.31620   0.01530   0.77362   0.00000  Uiso   1.00
H167   H     0.02332   0.94384   0.72636   0.00000  Uiso   1.00
H168   H     0.49337   0.24390   0.39802   0.00000  Uiso   1.00
H169   H     0.71352   0.20265   0.68489   0.00000  Uiso   1.00
H170   H     0.57677   0.18180   0.75328   0.00000  Uiso   1.00
H171   H     0.91213   0.14791   0.73087   0.00000  Uiso   1.00
H172   H     0.66081   0.29020   0.57517   0.00000  Uiso   1.00
H173   H     0.41085   0.13980   0.82181   0.00000  Uiso   1.00
H174   H     0.11798   0.06834   0.77455   0.00000  Uiso   1.00
H175   H     0.58802   0.36840   0.44621   0.00000  Uiso   1.00
O176   O     0.27160   0.06120   0.84170   0.00000  Uiso   1.00
O177   O     0.19932   0.96745   0.77968   0.00000  Uiso   1.00
O178   O     0.50403   0.36112   0.34892   0.00000  Uiso   1.00
N179   N     0.35723   0.04747   0.77557   0.00000  Uiso   1.00
N180   N     0.01834   0.98065   0.73139   0.00000  Uiso   1.00
N181   N     0.52291   0.26118   0.42442   0.00000  Uiso   1.00
N182   N     0.40816   0.11446   0.80150   0.00000  Uiso   1.00
N183   N     0.06927   0.04765   0.75732   0.00000  Uiso   1.00
N184   N     0.57384   0.32817   0.45035   0.00000  Uiso   1.00
C185   C     0.79144   0.80359   0.34089   0.00000  Uiso   1.00
C186   C     0.73053   0.85620   0.28078   0.00000  Uiso   1.00
C187   C     0.63136   0.88944   0.27025   0.00000  Uiso   1.00
C188   C     0.58908   0.93580   0.21216   0.00000  Uiso   1.00
C189   C     0.48617   0.01558   0.12582   0.00000  Uiso   1.00
C190   C     0.90354   0.82015   0.35402   0.00000  Uiso   1.00
C191   C     0.94983   0.82306   0.40507   0.00000  Uiso   1.00
C192   C     0.05320   0.83907   0.40862   0.00000  Uiso   1.00
C193   C     0.21891   0.86284   0.43601   0.00000  Uiso   1.00
C194   C     0.80965   0.75035   0.32999   0.00000  Uiso   1.00
C195   C     0.77704   0.69457   0.36084   0.00000  Uiso   1.00
C196   C     0.80138   0.65180   0.34417   0.00000  Uiso   1.00
C197   C     0.82133   0.56720   0.33423   0.00000  Uiso   1.00
C198   C     0.89271   0.82682   0.25644   0.00000  Uiso   1.00
C199   C     0.78554   0.86882   0.23492   0.00000  Uiso   1.00
C200   C     0.74340   0.91514   0.17682   0.00000  Uiso   1.00
C201   C     0.64418   0.94843   0.16621   0.00000  Uiso   1.00
C202   C     0.95854   0.83277   0.30815   0.00000  Uiso   1.00
C203   C     0.06187   0.84876   0.31164   0.00000  Uiso   1.00
C204   C     0.10830   0.85171   0.36268   0.00000  Uiso   1.00
C205   C     0.86466   0.76297   0.28412   0.00000  Uiso   1.00
C206   C     0.88907   0.72027   0.26740   0.00000  Uiso   1.00
C207   C     0.85649   0.66444   0.29822   0.00000  Uiso   1.00
H208   H     0.74862   0.79377   0.37660   0.00000  Uiso   1.00
H209   H     0.58882   0.87966   0.30576   0.00000  Uiso   1.00
H210   H     0.90725   0.81329   0.44056   0.00000  Uiso   1.00
H211   H     0.73447   0.68482   0.39633   0.00000  Uiso   1.00
H212   H     0.43593   0.98047   0.20700   0.00000  Uiso   1.00
H213   H     0.10736   0.84051   0.49124   0.00000  Uiso   1.00
H214   H     0.74304   0.56959   0.39798   0.00000  Uiso   1.00
H215   H     0.93553   0.83664   0.22073   0.00000  Uiso   1.00
H216   H     0.78598   0.92489   0.14134   0.00000  Uiso   1.00
H217   H     0.10441   0.85852   0.27614   0.00000  Uiso   1.00
H218   H     0.93164   0.73005   0.23191   0.00000  Uiso   1.00
H219   H     0.59596   0.01718   0.07355   0.00000  Uiso   1.00
H220   H     0.26739   0.87721   0.35779   0.00000  Uiso   1.00
H221   H     0.90306   0.60630   0.26452   0.00000  Uiso   1.00
O222   O     0.41422   0.05611   0.09087   0.00000  Uiso   1.00
O223   O     0.29511   0.87247   0.46378   0.00000  Uiso   1.00
O224   O     0.81712   0.51705   0.34142   0.00000  Uiso   1.00
N225   N     0.49411   0.97699   0.18649   0.00000  Uiso   1.00
N226   N     0.12185   0.84614   0.45223   0.00000  Uiso   1.00
N227   N     0.78126   0.59286   0.36505   0.00000  Uiso   1.00
N228   N     0.58022   0.99674   0.11468   0.00000  Uiso   1.00
N229   N     0.20795   0.86589   0.38042   0.00000  Uiso   1.00
N230   N     0.86737   0.61261   0.29324   0.00000  Uiso   1.00
C231   C     0.49874   0.53922   0.90251   0.00000  Uiso   1.00
C232   C     0.49275   0.47501   0.91396   0.00000  Uiso   1.00
C233   C     0.40430   0.45563   0.89152   0.00000  Uiso   1.00
C234   C     0.41491   0.39508   0.90716   0.00000  Uiso   1.00
C235   C     0.39108   0.30142   0.91932   0.00000  Uiso   1.00
C236   C     0.59764   0.55773   0.87580   0.00000  Uiso   1.00
C237   C     0.59738   0.60791   0.82128   0.00000  Uiso   1.00
C238   C     0.69629   0.61701   0.80480   0.00000  Uiso   1.00
C239   C     0.83532   0.65181   0.75774   0.00000  Uiso   1.00
C240   C     0.52651   0.53485   0.96414   0.00000  Uiso   1.00
C241   C     0.46646   0.56581   0.98391   0.00000  Uiso   1.00
C242   C     0.50550   0.55565   0.04181   0.00000  Uiso   1.00
C243   C     0.53409   0.55492   0.13191   0.00000  Uiso   1.00
C244   C     0.67485   0.46616   0.97018   0.00000  Uiso   1.00
C245   C     0.58841   0.43532   0.95071   0.00000  Uiso   1.00
C246   C     0.59915   0.37479   0.96639   0.00000  Uiso   1.00
C247   C     0.51073   0.35532   0.94398   0.00000  Uiso   1.00
C248   C     0.69329   0.51805   0.91255   0.00000  Uiso   1.00
C249   C     0.79223   0.52708   0.89615   0.00000  Uiso   1.00
C250   C     0.79212   0.57726   0.84162   0.00000  Uiso   1.00
C251   C     0.62217   0.49517   0.00090   0.00000  Uiso   1.00
C252   C     0.66131   0.48497   0.05877   0.00000  Uiso   1.00
C253   C     0.60133   0.51589   0.07862   0.00000  Uiso   1.00
H254   H     0.42427   0.57012   0.87390   0.00000  Uiso   1.00
H255   H     0.33029   0.48635   0.86308   0.00000  Uiso   1.00
H256   H     0.52335   0.63862   0.79285   0.00000  Uiso   1.00
H257   H     0.39245   0.59651   0.95545   0.00000  Uiso   1.00
H258   H     0.26831   0.37599   0.86727   0.00000  Uiso   1.00
H259   H     0.67537   0.69706   0.71921   0.00000  Uiso   1.00
H260   H     0.39934   0.60827   0.06209   0.00000  Uiso   1.00
H261   H     0.74932   0.43526   0.99879   0.00000  Uiso   1.00
H262   H     0.67318   0.34409   0.99483   0.00000  Uiso   1.00
H263   H     0.86624   0.49636   0.92460   0.00000  Uiso   1.00
H264   H     0.73534   0.45425   0.08720   0.00000  Uiso   1.00
H265   H     0.54661   0.26052   0.97421   0.00000  Uiso   1.00
H266   H     0.95368   0.58160   0.82614   0.00000  Uiso   1.00
H267   H     0.67765   0.49281   0.16902   0.00000  Uiso   1.00
O268   O     0.35152   0.26072   0.91586   0.00000  Uiso   1.00
O269   O     0.88558   0.68196   0.72162   0.00000  Uiso   1.00
O270   O     0.52343   0.56547   0.17146   0.00000  Uiso   1.00
N271   N     0.34425   0.36132   0.89299   0.00000  Uiso   1.00
N272   N     0.72483   0.66150   0.75456   0.00000  Uiso   1.00
N273   N     0.46678   0.57850   0.07511   0.00000  Uiso   1.00
N274   N     0.49400   0.29919   0.95053   0.00000  Uiso   1.00
N275   N     0.87458   0.59937   0.81210   0.00000  Uiso   1.00
N276   N     0.61653   0.51637   0.13265   0.00000  Uiso   1.00
C277   C     0.60566   0.58453   0.64446   0.00000  Uiso   1.00
C278   C     0.70030   0.53623   0.68977   0.00000  Uiso   1.00
C279   C     0.80007   0.54670   0.71241   0.00000  Uiso   1.00
C280   C     0.87595   0.49646   0.75345   0.00000  Uiso   1.00
C281   C     0.02640   0.43037   0.82112   0.00000  Uiso   1.00
C282   C     0.50891   0.57150   0.67391   0.00000  Uiso   1.00
C283   C     0.44776   0.61163   0.68320   0.00000  Uiso   1.00
C284   C     0.36252   0.59108   0.71089   0.00000  Uiso   1.00
C285   C     0.21578   0.57977   0.75389   0.00000  Uiso   1.00
C286   C     0.57854   0.57195   0.59208   0.00000  Uiso   1.00
C287   C     0.57590   0.61247   0.53258   0.00000  Uiso   1.00
C288   C     0.54925   0.59230   0.49137   0.00000  Uiso   1.00
C289   C     0.51063   0.58169   0.40734   0.00000  Uiso   1.00
C290   C     0.56300   0.47668   0.67708   0.00000  Uiso   1.00
C291   C     0.67713   0.47765   0.70748   0.00000  Uiso   1.00
C292   C     0.75287   0.42738   0.74850   0.00000  Uiso   1.00
C293   C     0.85274   0.43777   0.77120   0.00000  Uiso   1.00
C294   C     0.48574   0.51292   0.69162   0.00000  Uiso   1.00
C295   C     0.40056   0.49231   0.71929   0.00000  Uiso   1.00
C296   C     0.33930   0.53240   0.72864   0.00000  Uiso   1.00
C297   C     0.55537   0.51337   0.60980   0.00000  Uiso   1.00
C298   C     0.52871   0.49314   0.56867   0.00000  Uiso   1.00
C299   C     0.52604   0.53362   0.50912   0.00000  Uiso   1.00
H300   H     0.62370   0.63013   0.63067   0.00000  Uiso   1.00
H301   H     0.81797   0.59204   0.69869   0.00000  Uiso   1.00
H302   H     0.46570   0.65696   0.66948   0.00000  Uiso   1.00
H303   H     0.59383   0.65779   0.51889   0.00000  Uiso   1.00
H304   H     0.02312   0.52397   0.78193   0.00000  Uiso   1.00
H305   H     0.28033   0.66087   0.72033   0.00000  Uiso   1.00
H306   H     0.55051   0.66263   0.40277   0.00000  Uiso   1.00
H307   H     0.54496   0.43107   0.69088   0.00000  Uiso   1.00
H308   H     0.73492   0.38205   0.76220   0.00000  Uiso   1.00
H309   H     0.38265   0.44698   0.73300   0.00000  Uiso   1.00
H310   H     0.51079   0.44781   0.58240   0.00000  Uiso   1.00
H311   H     0.95571   0.35354   0.83348   0.00000  Uiso   1.00
H312   H     0.21292   0.49044   0.77188   0.00000  Uiso   1.00
H313   H     0.48311   0.49220   0.45432   0.00000  Uiso   1.00
O314   O     0.11578   0.41010   0.85355   0.00000  Uiso   1.00
O315   O     0.14126   0.58971   0.77272   0.00000  Uiso   1.00
O316   O     0.49574   0.59202   0.35609   0.00000  Uiso   1.00
N317   N     0.98119   0.49059   0.78427   0.00000  Uiso   1.00
N318   N     0.28674   0.61858   0.72668   0.00000  Uiso   1.00
N319   N     0.53931   0.62023   0.42978   0.00000  Uiso   1.00
N320   N     0.94492   0.39888   0.81200   0.00000  Uiso   1.00
N321   N     0.25047   0.52687   0.75442   0.00000  Uiso   1.00
N322   N     0.50304   0.52852   0.45752   0.00000  Uiso   1.00
C323   C     0.97684   0.03881   0.40026   0.00000  Uiso   1.00
C324   C     0.04167   0.03636   0.35704   0.00000  Uiso   1.00
C325   C     0.14441   0.00396   0.37317   0.00000  Uiso   1.00
C326   C     0.18994   0.00757   0.32695   0.00000  Uiso   1.00
C327   C     0.29899   0.99845   0.26900   0.00000  Uiso   1.00
C328   C     0.86885   0.01859   0.38652   0.00000  Uiso   1.00
C329   C     0.82627   0.97125   0.42743   0.00000  Uiso   1.00
C330   C     0.72631   0.95991   0.40602   0.00000  Uiso   1.00
C331   C     0.56701   0.92322   0.39384   0.00000  Uiso   1.00
C332   C     0.95022   0.10536   0.38132   0.00000  Uiso   1.00
C333   C     0.97603   0.13099   0.41786   0.00000  Uiso   1.00
C334   C     0.94456   0.19271   0.39208   0.00000  Uiso   1.00
C335   C     0.91161   0.29076   0.37183   0.00000  Uiso   1.00
C336   C     0.87501   0.10284   0.28951   0.00000  Uiso   1.00
C337   C     0.98636   0.07113   0.29689   0.00000  Uiso   1.00
C338   C     0.03175   0.07480   0.25063   0.00000  Uiso   1.00
C339   C     0.13453   0.04241   0.26669   0.00000  Uiso   1.00
C340   C     0.81354   0.05336   0.32636   0.00000  Uiso   1.00
C341   C     0.71361   0.04209   0.30489   0.00000  Uiso   1.00
C342   C     0.67090   0.99475   0.34576   0.00000  Uiso   1.00
C343   C     0.89491   0.14014   0.32116   0.00000  Uiso   1.00
C344   C     0.86338   0.20183   0.29532   0.00000  Uiso   1.00
C345   C     0.88915   0.22755   0.33182   0.00000  Uiso   1.00
H346   H     0.01990   0.01174   0.44709   0.00000  Uiso   1.00
H347   H     0.18718   0.97705   0.41973   0.00000  Uiso   1.00
H348   H     0.86909   0.94435   0.47398   0.00000  Uiso   1.00
H349   H     0.01883   0.10407   0.46441   0.00000  Uiso   1.00
H350   H     0.34823   0.95391   0.36286   0.00000  Uiso   1.00
H351   H     0.67750   0.88498   0.47726   0.00000  Uiso   1.00
H352   H     0.99327   0.22177   0.45708   0.00000  Uiso   1.00
H353   H     0.83195   0.12991   0.24267   0.00000  Uiso   1.00
H354   H     0.98892   0.10171   0.20409   0.00000  Uiso   1.00
H355   H     0.67083   0.06901   0.25834   0.00000  Uiso   1.00
H356   H     0.82058   0.22873   0.24877   0.00000  Uiso   1.00
H357   H     0.18732   0.05509   0.18784   0.00000  Uiso   1.00
H358   H     0.51659   0.98616   0.30224   0.00000  Uiso   1.00
H359   H     0.83236   0.32295   0.28206   0.00000  Uiso   1.00
O360   O     0.37441   0.98380   0.25366   0.00000  Uiso   1.00
O361   O     0.49444   0.89337   0.40374   0.00000  Uiso   1.00
O362   O     0.90872   0.33523   0.37727   0.00000  Uiso   1.00
N363   N     0.28883   0.98161   0.32696   0.00000  Uiso   1.00
N364   N     0.66175   0.91715   0.43391   0.00000  Uiso   1.00
N365   N     0.95694   0.23202   0.41506   0.00000  Uiso   1.00
N366   N     0.20224   0.03605   0.23279   0.00000  Uiso   1.00
N367   N     0.57516   0.97159   0.33974   0.00000  Uiso   1.00
N368   N     0.87035   0.28646   0.32088   0.00000  Uiso   1.00
C369   C     0.77140   0.82849   0.85450   0.00000  Uiso   1.00
C370   C     0.80982   0.87449   0.87273   0.00000  Uiso   1.00
C371   C     0.89617   0.90567   0.85687   0.00000  Uiso   1.00
C372   C     0.91836   0.94582   0.87806   0.00000  Uiso   1.00
C373   C     0.98741   0.01597   0.90090   0.00000  Uiso   1.00
C374   C     0.65174   0.85108   0.82311   0.00000  Uiso   1.00
C375   C     0.60518   0.86257   0.76553   0.00000  Uiso   1.00
C376   C     0.49430   0.88300   0.74495   0.00000  Uiso   1.00
C377   C     0.31791   0.91675   0.69077   0.00000  Uiso   1.00
C378   C     0.77444   0.77075   0.91277   0.00000  Uiso   1.00
C379   C     0.83101   0.71469   0.93057   0.00000  Uiso   1.00
C380   C     0.82341   0.66749   0.98548   0.00000  Uiso   1.00
C381   C     0.83753   0.57653   0.07052   0.00000  Uiso   1.00
C382   C     0.65728   0.84433   0.92034   0.00000  Uiso   1.00
C383   C     0.74783   0.88310   0.90850   0.00000  Uiso   1.00
C384   C     0.76990   0.92321   0.92972   0.00000  Uiso   1.00
C385   C     0.85627   0.95444   0.91389   0.00000  Uiso   1.00
C386   C     0.58975   0.85969   0.85887   0.00000  Uiso   1.00
C387   C     0.47891   0.88010   0.83837   0.00000  Uiso   1.00
C388   C     0.43220   0.89162   0.78077   0.00000  Uiso   1.00
C389   C     0.71245   0.77936   0.94854   0.00000  Uiso   1.00
C390   C     0.70475   0.73223   0.00342   0.00000  Uiso   1.00
C391   C     0.76131   0.67611   0.02131   0.00000  Uiso   1.00
H392   H     0.81966   0.82179   0.82665   0.00000  Uiso   1.00
H393   H     0.94411   0.89900   0.82919   0.00000  Uiso   1.00
H394   H     0.65316   0.85590   0.73786   0.00000  Uiso   1.00
H395   H     0.87897   0.70805   0.90289   0.00000  Uiso   1.00
H396   H     0.05473   0.98842   0.84775   0.00000  Uiso   1.00
H397   H     0.44125   0.89751   0.65519   0.00000  Uiso   1.00
H398   H     0.91740   0.58575   0.00318   0.00000  Uiso   1.00
H399   H     0.60902   0.85104   0.94819   0.00000  Uiso   1.00
H400   H     0.72192   0.92986   0.95739   0.00000  Uiso   1.00
H401   H     0.43097   0.88675   0.86606   0.00000  Uiso   1.00
H402   H     0.65678   0.73891   0.03109   0.00000  Uiso   1.00
H403   H     0.87439   0.01347   0.95180   0.00000  Uiso   1.00
H404   H     0.26090   0.92256   0.75924   0.00000  Uiso   1.00
H405   H     0.73706   0.61079   0.10723   0.00000  Uiso   1.00
O406   O     0.04261   0.05229   0.90362   0.00000  Uiso   1.00
O407   O     0.23774   0.93300   0.65100   0.00000  Uiso   1.00
O408   O     0.86245   0.52398   0.10755   0.00000  Uiso   1.00
N409   N     0.99681   0.98349   0.87098   0.00000  Uiso   1.00
N410   N     0.42324   0.89851   0.69095   0.00000  Uiso   1.00
N411   N     0.86838   0.60703   0.01628   0.00000  Uiso   1.00
N412   N     0.89977   0.99697   0.92697   0.00000  Uiso   1.00
N413   N     0.32620   0.91198   0.74694   0.00000  Uiso   1.00
N414   N     0.77134   0.62050   0.07227   0.00000  Uiso   1.00
C415   C     0.53202   0.19283   0.30518   0.00000  Uiso   1.00
C416   C     0.52018   0.18342   0.25074   0.00000  Uiso   1.00
C417   C     0.59086   0.19788   0.21246   0.00000  Uiso   1.00
C418   C     0.56576   0.18577   0.16522   0.00000  Uiso   1.00
C419   C     0.56141   0.17508   0.08198   0.00000  Uiso   1.00
C420   C     0.42697   0.23153   0.29548   0.00000  Uiso   1.00
C421   C     0.41928   0.28644   0.29481   0.00000  Uiso   1.00
C422   C     0.31571   0.31482   0.28523   0.00000  Uiso   1.00
C423   C     0.16666   0.37881   0.27149   0.00000  Uiso   1.00
C424   C     0.53223   0.13119   0.35849   0.00000  Uiso   1.00
C425   C     0.61304   0.10174   0.41080   0.00000  Uiso   1.00
C426   C     0.59809   0.04566   0.45429   0.00000  Uiso   1.00
C427   C     0.61248   0.95385   0.53837   0.00000  Uiso   1.00
C428   C     0.36176   0.14561   0.28938   0.00000  Uiso   1.00
C429   C     0.42770   0.15777   0.24216   0.00000  Uiso   1.00
C430   C     0.40249   0.14563   0.19497   0.00000  Uiso   1.00
C431   C     0.47312   0.16007   0.15662   0.00000  Uiso   1.00
C432   C     0.33449   0.20588   0.28689   0.00000  Uiso   1.00
C433   C     0.23091   0.23419   0.27732   0.00000  Uiso   1.00
C434   C     0.22307   0.28913   0.27663   0.00000  Uiso   1.00
C435   C     0.43976   0.10554   0.34990   0.00000  Uiso   1.00
C436   C     0.42467   0.04949   0.39331   0.00000  Uiso   1.00
C437   C     0.50545   0.01996   0.44569   0.00000  Uiso   1.00
H438   H     0.60401   0.21281   0.31186   0.00000  Uiso   1.00
H439   H     0.66241   0.21774   0.21911   0.00000  Uiso   1.00
H440   H     0.49086   0.30628   0.30146   0.00000  Uiso   1.00
H441   H     0.68460   0.12161   0.41743   0.00000  Uiso   1.00
H442   H     0.68635   0.21191   0.11248   0.00000  Uiso   1.00
H443   H     0.32463   0.39859   0.28613   0.00000  Uiso   1.00
H444   H     0.73316   0.00918   0.53069   0.00000  Uiso   1.00
H445   H     0.28976   0.12563   0.28269   0.00000  Uiso   1.00
H446   H     0.33091   0.12578   0.18834   0.00000  Uiso   1.00
H447   H     0.15936   0.21432   0.27068   0.00000  Uiso   1.00
H448   H     0.35310   0.02965   0.38666   0.00000  Uiso   1.00
H449   H     0.41729   0.13728   0.08750   0.00000  Uiso   1.00
H450   H     0.05557   0.32396   0.26115   0.00000  Uiso   1.00
H451   H     0.46410   0.93455   0.50571   0.00000  Uiso   1.00
O452   O     0.58455   0.17628   0.03844   0.00000  Uiso   1.00
O453   O     0.10999   0.42119   0.26627   0.00000  Uiso   1.00
O454   O     0.64597   0.91030   0.58712   0.00000  Uiso   1.00
N455   N     0.61739   0.19432   0.11956   0.00000  Uiso   1.00
N456   N     0.27921   0.36886   0.28190   0.00000  Uiso   1.00
N457   N     0.66113   0.00480   0.51055   0.00000  Uiso   1.00
N458   N     0.47262   0.15416   0.10612   0.00000  Uiso   1.00
N459   N     0.13443   0.32869   0.26846   0.00000  Uiso   1.00
N460   N     0.51635   0.96464   0.49711   0.00000  Uiso   1.00
C461   C     0.12379   0.49805   0.56334   0.00000  Uiso   1.00
C462   C     0.19050   0.44552   0.62175   0.00000  Uiso   1.00
C463   C     0.28916   0.41404   0.62859   0.00000  Uiso   1.00
C464   C     0.33734   0.36743   0.68569   0.00000  Uiso   1.00
C465   C     0.44832   0.28805   0.76901   0.00000  Uiso   1.00
C466   C     0.01191   0.47991   0.55361   0.00000  Uiso   1.00
C467   C     0.96040   0.47735   0.50315   0.00000  Uiso   1.00
C468   C     0.85823   0.45970   0.50288   0.00000  Uiso   1.00
C469   C     0.69191   0.43376   0.48039   0.00000  Uiso   1.00
C470   C     0.10736   0.55036   0.57581   0.00000  Uiso   1.00
C471   C     0.13608   0.60705   0.54401   0.00000  Uiso   1.00
C472   C     0.11424   0.64871   0.56243   0.00000  Uiso   1.00
C473   C     0.09613   0.73216   0.57441   0.00000  Uiso   1.00
C474   C     0.03391   0.47126   0.65258   0.00000  Uiso   1.00
C475   C     0.14168   0.43097   0.67022   0.00000  Uiso   1.00
C476   C     0.18972   0.38440   0.72732   0.00000  Uiso   1.00
C477   C     0.28843   0.35285   0.73425   0.00000  Uiso   1.00
C478   C     0.96309   0.46536   0.60208   0.00000  Uiso   1.00
C479   C     0.86096   0.44771   0.60188   0.00000  Uiso   1.00
C480   C     0.80932   0.44512   0.55144   0.00000  Uiso   1.00
C481   C     0.05854   0.53581   0.62428   0.00000  Uiso   1.00
C482   C     0.03664   0.57740   0.64275   0.00000  Uiso   1.00
C483   C     0.06533   0.63413   0.61099   0.00000  Uiso   1.00
H484   H     0.16179   0.50938   0.52560   0.00000  Uiso   1.00
H485   H     0.32691   0.42531   0.59107   0.00000  Uiso   1.00
H486   H     0.99820   0.48862   0.46565   0.00000  Uiso   1.00
H487   H     0.17386   0.61829   0.50651   0.00000  Uiso   1.00
H488   H     0.48843   0.32567   0.68502   0.00000  Uiso   1.00
H489   H     0.79531   0.45918   0.42055   0.00000  Uiso   1.00
H490   H     0.16571   0.73262   0.50671   0.00000  Uiso   1.00
H491   H     0.99590   0.45993   0.69032   0.00000  Uiso   1.00
H492   H     0.15192   0.37314   0.76483   0.00000  Uiso   1.00
H493   H     0.82321   0.43645   0.63940   0.00000  Uiso   1.00
H494   H     0.99886   0.56612   0.68026   0.00000  Uiso   1.00
H495   H     0.34640   0.28333   0.82605   0.00000  Uiso   1.00
H496   H     0.65327   0.41684   0.56158   0.00000  Uiso   1.00
H497   H     0.02368   0.69028   0.64774   0.00000  Uiso   1.00
O498   O     0.52302   0.24829   0.80157   0.00000  Uiso   1.00
O499   O     0.61367   0.42346   0.45460   0.00000  Uiso   1.00
O500   O     0.09963   0.78220   0.56764   0.00000  Uiso   1.00
N501   N     0.43360   0.32762   0.70799   0.00000  Uiso   1.00
N502   N     0.78558   0.45244   0.46073   0.00000  Uiso   1.00
N503   N     0.13185   0.70808   0.54127   0.00000  Uiso   1.00
N504   N     0.35717   0.30484   0.78388   0.00000  Uiso   1.00
N505   N     0.70915   0.42966   0.53662   0.00000  Uiso   1.00
N506   N     0.05542   0.68530   0.61716   0.00000  Uiso   1.00
C507   C     0.39031   0.75219   0.01942   0.00000  Uiso   1.00
C508   C     0.39673   0.81717   0.00525   0.00000  Uiso   1.00
C509   C     0.48537   0.83751   0.02624   0.00000  Uiso   1.00
C510   C     0.47517   0.89864   0.00816   0.00000  Uiso   1.00
C511   C     0.49964   0.99356   0.99192   0.00000  Uiso   1.00
C512   C     0.29124   0.73523   0.04637   0.00000  Uiso   1.00
C513   C     0.29119   0.68667   0.10194   0.00000  Uiso   1.00
C514   C     0.19218   0.67882   0.11846   0.00000  Uiso   1.00
C515   C     0.05287   0.64650   0.16604   0.00000  Uiso   1.00
C516   C     0.36251   0.75378   0.95905   0.00000  Uiso   1.00
C517   C     0.42236   0.72081   0.94119   0.00000  Uiso   1.00
C518   C     0.38334   0.72857   0.88420   0.00000  Uiso   1.00
C519   C     0.35468   0.72505   0.79620   0.00000  Uiso   1.00
C520   C     0.21457   0.82460   0.94997   0.00000  Uiso   1.00
C521   C     0.30128   0.85650   0.96753   0.00000  Uiso   1.00
C522   C     0.29094   0.91762   0.94940   0.00000  Uiso   1.00
C523   C     0.37954   0.93804   0.97036   0.00000  Uiso   1.00
C524   C     0.19579   0.77456   0.00865   0.00000  Uiso   1.00
C525   C     0.09676   0.76678   0.02509   0.00000  Uiso   1.00
C526   C     0.09656   0.71822   0.08066   0.00000  Uiso   1.00
C527   C     0.26706   0.79311   0.92132   0.00000  Uiso   1.00
C528   C     0.22793   0.80092   0.86435   0.00000  Uiso   1.00
C529   C     0.28771   0.76797   0.84640   0.00000  Uiso   1.00
H530   H     0.46462   0.72157   0.04880   0.00000  Uiso   1.00
H531   H     0.55922   0.80706   0.05544   0.00000  Uiso   1.00
H532   H     0.36507   0.65624   0.13112   0.00000  Uiso   1.00
H533   H     0.49622   0.69038   0.97040   0.00000  Uiso   1.00
H534   H     0.62200   0.91918   0.04620   0.00000  Uiso   1.00
H535   H     0.21261   0.60116   0.20575   0.00000  Uiso   1.00
H536   H     0.48917   0.67314   0.86684   0.00000  Uiso   1.00
H537   H     0.14025   0.85522   0.92060   0.00000  Uiso   1.00
H538   H     0.21706   0.94804   0.92021   0.00000  Uiso   1.00
H539   H     0.02291   0.79722   0.99588   0.00000  Uiso   1.00
H540   H     0.15406   0.83136   0.83516   0.00000  Uiso   1.00
H541   H     0.34428   0.03361   0.93643   0.00000  Uiso   1.00
H542   H     0.93490   0.71558   0.09599   0.00000  Uiso   1.00
H543   H     0.21146   0.78757   0.75708   0.00000  Uiso   1.00
O544   O     0.53950   0.03504   0.99339   0.00000  Uiso   1.00
O545   O     0.00241   0.61780   0.20271   0.00000  Uiso   1.00
O546   O     0.36525   0.71225   0.75808   0.00000  Uiso   1.00
N547   N     0.54610   0.93337   0.02041   0.00000  Uiso   1.00
N548   N     0.16336   0.63605   0.16958   0.00000  Uiso   1.00
N549   N     0.42190   0.70333   0.85274   0.00000  Uiso   1.00
N550   N     0.39667   0.99494   0.96134   0.00000  Uiso   1.00
N551   N     0.01392   0.69762   0.11052   0.00000  Uiso   1.00
N552   N     0.27247   0.76491   0.79368   0.00000  Uiso   1.00
