data_job_00336
_audit_creation_date              2018-12-19
_audit_creation_method            'Materials Studio'
_symmetry_space_group_name_H-M    'P1'
_symmetry_Int_Tables_number       1
_symmetry_cell_setting            triclinic
loop_
_symmetry_equiv_pos_as_xyz
  x,y,z
_cell_length_a                    23.9481
_cell_length_b                    7.1199
_cell_length_c                    23.7105
_cell_angle_alpha                 90.0000
_cell_angle_beta                  61.6042
_cell_angle_gamma                 90.0000
loop_
_atom_site_label
_atom_site_type_symbol
_atom_site_fract_x
_atom_site_fract_y
_atom_site_fract_z
_atom_site_U_iso_or_equiv
_atom_site_adp_type
_atom_site_occupancy
C1     C     0.66882   0.74017   0.12074   0.00000  Uiso   1.00
C2     C     0.63384   0.83272   0.18651   0.00000  Uiso   1.00
C3     C     0.59440   0.74189   0.24359   0.00000  Uiso   1.00
C4     C     0.56682   0.85142   0.29862   0.00000  Uiso   1.00
C5     C     0.51072   0.96573   0.40106   0.00000  Uiso   1.00
C6     C     0.64822   0.84557   0.07772   0.00000  Uiso   1.00
C7     C     0.62089   0.76553   0.04332   0.00000  Uiso   1.00
C8     C     0.60542   0.88589   0.00677   0.00000  Uiso   1.00
C9     C     0.57171   0.02012   0.94027   0.00000  Uiso   1.00
C10    C     0.73889   0.78623   0.09541   0.00000  Uiso   1.00
C11    C     0.78780   0.65630   0.07587   0.00000  Uiso   1.00
C12    C     0.84867   0.72670   0.05420   0.00000  Uiso   1.00
C13    C     0.95572   0.76879   0.01517   0.00000  Uiso   1.00
C14    C     0.68996   0.09622   0.11699   0.00000  Uiso   1.00
C15    C     0.64532   0.02611   0.18447   0.00000  Uiso   1.00
C16    C     0.61779   0.13581   0.23944   0.00000  Uiso   1.00
C17    C     0.57832   0.04516   0.29658   0.00000  Uiso   1.00
C18    C     0.65970   0.03895   0.07568   0.00000  Uiso   1.00
C19    C     0.64428   0.15946   0.03917   0.00000  Uiso   1.00
C20    C     0.61693   0.07963   0.00473   0.00000  Uiso   1.00
C21    C     0.75037   0.97962   0.09338   0.00000  Uiso   1.00
C22    C     0.81118   0.05023   0.07173   0.00000  Uiso   1.00
C23    C     0.86017   0.92044   0.05216   0.00000  Uiso   1.00
H24    H     0.65988   0.58962   0.12232   0.00000  Uiso   1.00
H25    H     0.58553   0.59223   0.24514   0.00000  Uiso   1.00
H26    H     0.61202   0.61587   0.04490   0.00000  Uiso   1.00
H27    H     0.77889   0.50666   0.07745   0.00000  Uiso   1.00
H28    H     0.50813   0.68042   0.38041   0.00000  Uiso   1.00
H29    H     0.56401   0.73026   0.95818   0.00000  Uiso   1.00
H30    H     0.91590   0.49997   0.02681   0.00000  Uiso   1.00
H31    H     0.69890   0.24679   0.11540   0.00000  Uiso   1.00
H32    H     0.62668   0.28547   0.23785   0.00000  Uiso   1.00
H33    H     0.65317   0.30910   0.03761   0.00000  Uiso   1.00
H34    H     0.82005   0.19989   0.07016   0.00000  Uiso   1.00
H35    H     0.54153   0.24308   0.37449   0.00000  Uiso   1.00
H36    H     0.59741   0.29292   0.95225   0.00000  Uiso   1.00
H37    H     0.94930   0.06263   0.02089   0.00000  Uiso   1.00
O38    O     0.47661   0.97535   0.45812   0.00000  Uiso   1.00
O39    O     0.54993   0.04072   0.90416   0.00000  Uiso   1.00
O40    O     0.01159   0.73859   0.99421   0.00000  Uiso   1.00
N41    N     0.52591   0.80753   0.36221   0.00000  Uiso   1.00
N42    N     0.57815   0.85413   0.96746   0.00000  Uiso   1.00
N43    N     0.90714   0.63883   0.03161   0.00000  Uiso   1.00
N44    N     0.54389   0.11029   0.35903   0.00000  Uiso   1.00
N45    N     0.59612   0.15689   0.96428   0.00000  Uiso   1.00
N46    N     0.92511   0.94159   0.02842   0.00000  Uiso   1.00
C47    C     0.33118   0.24017   0.37926   0.00000  Uiso   1.00
C48    C     0.36616   0.33272   0.31349   0.00000  Uiso   1.00
C49    C     0.40560   0.24189   0.25641   0.00000  Uiso   1.00
C50    C     0.43318   0.35142   0.20138   0.00000  Uiso   1.00
C51    C     0.48928   0.46573   0.09894   0.00000  Uiso   1.00
C52    C     0.35178   0.34557   0.42228   0.00000  Uiso   1.00
C53    C     0.37911   0.26553   0.45668   0.00000  Uiso   1.00
C54    C     0.39458   0.38589   0.49323   0.00000  Uiso   1.00
C55    C     0.42829   0.52012   0.55973   0.00000  Uiso   1.00
C56    C     0.26111   0.28623   0.40459   0.00000  Uiso   1.00
C57    C     0.21220   0.15630   0.42413   0.00000  Uiso   1.00
C58    C     0.15133   0.22670   0.44580   0.00000  Uiso   1.00
C59    C     0.04428   0.26879   0.48483   0.00000  Uiso   1.00
C60    C     0.31004   0.59622   0.38301   0.00000  Uiso   1.00
C61    C     0.35468   0.52611   0.31553   0.00000  Uiso   1.00
C62    C     0.38221   0.63581   0.26056   0.00000  Uiso   1.00
C63    C     0.42168   0.54516   0.20342   0.00000  Uiso   1.00
C64    C     0.34030   0.53895   0.42432   0.00000  Uiso   1.00
C65    C     0.35572   0.65946   0.46083   0.00000  Uiso   1.00
C66    C     0.38307   0.57963   0.49527   0.00000  Uiso   1.00
C67    C     0.24963   0.47962   0.40662   0.00000  Uiso   1.00
C68    C     0.18882   0.55023   0.42827   0.00000  Uiso   1.00
C69    C     0.13983   0.42044   0.44784   0.00000  Uiso   1.00
H70    H     0.34012   0.08962   0.37768   0.00000  Uiso   1.00
H71    H     0.41447   0.09223   0.25486   0.00000  Uiso   1.00
H72    H     0.38798   0.11587   0.45510   0.00000  Uiso   1.00
H73    H     0.22111   0.00666   0.42255   0.00000  Uiso   1.00
H74    H     0.49187   0.18042   0.11959   0.00000  Uiso   1.00
H75    H     0.43599   0.23026   0.54182   0.00000  Uiso   1.00
H76    H     0.08410   0.99997   0.47319   0.00000  Uiso   1.00
H77    H     0.30110   0.74679   0.38460   0.00000  Uiso   1.00
H78    H     0.37332   0.78547   0.26215   0.00000  Uiso   1.00
H79    H     0.34683   0.80910   0.46239   0.00000  Uiso   1.00
H80    H     0.17995   0.69989   0.42984   0.00000  Uiso   1.00
H81    H     0.45847   0.74308   0.12551   0.00000  Uiso   1.00
H82    H     0.40259   0.79292   0.54775   0.00000  Uiso   1.00
H83    H     0.05070   0.56263   0.47911   0.00000  Uiso   1.00
O84    O     0.52339   0.47535   0.04188   0.00000  Uiso   1.00
O85    O     0.45007   0.54072   0.59584   0.00000  Uiso   1.00
O86    O     0.98841   0.23859   0.50579   0.00000  Uiso   1.00
N87    N     0.47409   0.30753   0.13779   0.00000  Uiso   1.00
N88    N     0.42185   0.35413   0.53254   0.00000  Uiso   1.00
N89    N     0.09286   0.13883   0.46839   0.00000  Uiso   1.00
N90    N     0.45611   0.61029   0.14097   0.00000  Uiso   1.00
N91    N     0.40388   0.65689   0.53572   0.00000  Uiso   1.00
N92    N     0.07489   0.44159   0.47158   0.00000  Uiso   1.00
C93    C     0.33118   0.25983   0.87926   0.00000  Uiso   1.00
C94    C     0.36616   0.16728   0.81349   0.00000  Uiso   1.00
C95    C     0.40560   0.25811   0.75641   0.00000  Uiso   1.00
C96    C     0.43318   0.14858   0.70138   0.00000  Uiso   1.00
C97    C     0.48928   0.03427   0.59894   0.00000  Uiso   1.00
C98    C     0.35178   0.15443   0.92228   0.00000  Uiso   1.00
C99    C     0.37911   0.23447   0.95668   0.00000  Uiso   1.00
C100   C     0.39458   0.11411   0.99323   0.00000  Uiso   1.00
C101   C     0.42829   0.97988   0.05973   0.00000  Uiso   1.00
C102   C     0.26111   0.21377   0.90459   0.00000  Uiso   1.00
C103   C     0.21220   0.34370   0.92413   0.00000  Uiso   1.00
C104   C     0.15133   0.27330   0.94580   0.00000  Uiso   1.00
C105   C     0.04428   0.23121   0.98483   0.00000  Uiso   1.00
C106   C     0.31004   0.90378   0.88301   0.00000  Uiso   1.00
C107   C     0.35468   0.97389   0.81553   0.00000  Uiso   1.00
C108   C     0.38221   0.86419   0.76056   0.00000  Uiso   1.00
C109   C     0.42168   0.95484   0.70342   0.00000  Uiso   1.00
C110   C     0.34030   0.96105   0.92432   0.00000  Uiso   1.00
C111   C     0.35572   0.84054   0.96083   0.00000  Uiso   1.00
C112   C     0.38307   0.92037   0.99527   0.00000  Uiso   1.00
C113   C     0.24963   0.02038   0.90662   0.00000  Uiso   1.00
C114   C     0.18882   0.94977   0.92827   0.00000  Uiso   1.00
C115   C     0.13983   0.07956   0.94784   0.00000  Uiso   1.00
H116   H     0.34012   0.41038   0.87768   0.00000  Uiso   1.00
H117   H     0.41447   0.40777   0.75486   0.00000  Uiso   1.00
H118   H     0.38798   0.38413   0.95510   0.00000  Uiso   1.00
H119   H     0.22111   0.49334   0.92255   0.00000  Uiso   1.00
H120   H     0.49187   0.31958   0.61959   0.00000  Uiso   1.00
H121   H     0.43599   0.26974   0.04182   0.00000  Uiso   1.00
H122   H     0.08410   0.50003   0.97319   0.00000  Uiso   1.00
H123   H     0.30110   0.75321   0.88460   0.00000  Uiso   1.00
H124   H     0.37332   0.71453   0.76215   0.00000  Uiso   1.00
H125   H     0.34683   0.69090   0.96239   0.00000  Uiso   1.00
H126   H     0.17995   0.80011   0.92984   0.00000  Uiso   1.00
H127   H     0.45847   0.75692   0.62551   0.00000  Uiso   1.00
H128   H     0.40259   0.70708   0.04775   0.00000  Uiso   1.00
H129   H     0.05070   0.93737   0.97911   0.00000  Uiso   1.00
O130   O     0.52339   0.02465   0.54188   0.00000  Uiso   1.00
O131   O     0.45007   0.95928   0.09584   0.00000  Uiso   1.00
O132   O     0.98841   0.26141   0.00579   0.00000  Uiso   1.00
N133   N     0.47409   0.19247   0.63779   0.00000  Uiso   1.00
N134   N     0.42185   0.14587   0.03254   0.00000  Uiso   1.00
N135   N     0.09286   0.36117   0.96839   0.00000  Uiso   1.00
N136   N     0.45611   0.88971   0.64097   0.00000  Uiso   1.00
N137   N     0.40388   0.84311   0.03572   0.00000  Uiso   1.00
N138   N     0.07489   0.05841   0.97158   0.00000  Uiso   1.00
C139   C     0.66882   0.75983   0.62074   0.00000  Uiso   1.00
C140   C     0.63384   0.66728   0.68651   0.00000  Uiso   1.00
C141   C     0.59440   0.75811   0.74359   0.00000  Uiso   1.00
C142   C     0.56682   0.64858   0.79862   0.00000  Uiso   1.00
C143   C     0.51072   0.53427   0.90106   0.00000  Uiso   1.00
C144   C     0.64822   0.65443   0.57772   0.00000  Uiso   1.00
C145   C     0.62089   0.73447   0.54332   0.00000  Uiso   1.00
C146   C     0.60542   0.61411   0.50677   0.00000  Uiso   1.00
C147   C     0.57171   0.47988   0.44027   0.00000  Uiso   1.00
C148   C     0.73889   0.71377   0.59541   0.00000  Uiso   1.00
C149   C     0.78780   0.84370   0.57587   0.00000  Uiso   1.00
C150   C     0.84867   0.77330   0.55420   0.00000  Uiso   1.00
C151   C     0.95572   0.73121   0.51517   0.00000  Uiso   1.00
C152   C     0.68996   0.40378   0.61699   0.00000  Uiso   1.00
C153   C     0.64532   0.47389   0.68447   0.00000  Uiso   1.00
C154   C     0.61779   0.36419   0.73944   0.00000  Uiso   1.00
C155   C     0.57832   0.45484   0.79658   0.00000  Uiso   1.00
C156   C     0.65970   0.46105   0.57568   0.00000  Uiso   1.00
C157   C     0.64428   0.34054   0.53917   0.00000  Uiso   1.00
C158   C     0.61693   0.42037   0.50473   0.00000  Uiso   1.00
C159   C     0.75037   0.52038   0.59338   0.00000  Uiso   1.00
C160   C     0.81118   0.44977   0.57173   0.00000  Uiso   1.00
C161   C     0.86017   0.57956   0.55216   0.00000  Uiso   1.00
H162   H     0.65988   0.91038   0.62232   0.00000  Uiso   1.00
H163   H     0.58553   0.90777   0.74514   0.00000  Uiso   1.00
H164   H     0.61202   0.88413   0.54490   0.00000  Uiso   1.00
H165   H     0.77889   0.99334   0.57745   0.00000  Uiso   1.00
H166   H     0.50813   0.81958   0.88041   0.00000  Uiso   1.00
H167   H     0.56401   0.76974   0.45818   0.00000  Uiso   1.00
H168   H     0.91590   0.00003   0.52681   0.00000  Uiso   1.00
H169   H     0.69890   0.25321   0.61540   0.00000  Uiso   1.00
H170   H     0.62668   0.21453   0.73785   0.00000  Uiso   1.00
H171   H     0.65317   0.19090   0.53761   0.00000  Uiso   1.00
H172   H     0.82005   0.30011   0.57016   0.00000  Uiso   1.00
H173   H     0.54153   0.25692   0.87449   0.00000  Uiso   1.00
H174   H     0.59741   0.20708   0.45225   0.00000  Uiso   1.00
H175   H     0.94930   0.43737   0.52089   0.00000  Uiso   1.00
O176   O     0.47661   0.52465   0.95812   0.00000  Uiso   1.00
O177   O     0.54993   0.45928   0.40416   0.00000  Uiso   1.00
O178   O     0.01159   0.76141   0.49421   0.00000  Uiso   1.00
N179   N     0.52591   0.69247   0.86221   0.00000  Uiso   1.00
N180   N     0.57815   0.64587   0.46746   0.00000  Uiso   1.00
N181   N     0.90714   0.86117   0.53161   0.00000  Uiso   1.00
N182   N     0.54389   0.38971   0.85903   0.00000  Uiso   1.00
N183   N     0.59612   0.34311   0.46428   0.00000  Uiso   1.00
N184   N     0.92511   0.55841   0.52842   0.00000  Uiso   1.00
