data_job_00729
_audit_creation_date              2018-12-19
_audit_creation_method            'Materials Studio'
_symmetry_space_group_name_H-M    'P1'
_symmetry_Int_Tables_number       1
_symmetry_cell_setting            triclinic
loop_
_symmetry_equiv_pos_as_xyz
  x,y,z
_cell_length_a                    18.0129
_cell_length_b                    18.0129
_cell_length_c                    8.0522
_cell_angle_alpha                 90.0000
_cell_angle_beta                  90.0000
_cell_angle_gamma                 90.0000
loop_
_atom_site_label
_atom_site_type_symbol
_atom_site_fract_x
_atom_site_fract_y
_atom_site_fract_z
_atom_site_U_iso_or_equiv
_atom_site_adp_type
_atom_site_occupancy
C1     C     0.80945   0.63427   0.10108   0.00000  Uiso   1.00
C2     C     0.86624   0.68077   0.00674   0.00000  Uiso   1.00
C3     C     0.89414   0.74898   0.05699   0.00000  Uiso   1.00
C4     C     0.94567   0.78268   0.95325   0.00000  Uiso   1.00
C5     C     0.03037   0.85998   0.82932   0.00000  Uiso   1.00
C6     C     0.74531   0.62130   0.98091   0.00000  Uiso   1.00
C7     C     0.67154   0.63950   0.00946   0.00000  Uiso   1.00
C8     C     0.62127   0.62313   0.88399   0.00000  Uiso   1.00
C9     C     0.51822   0.60806   0.72001   0.00000  Uiso   1.00
C10    C     0.84548   0.55862   0.12810   0.00000  Uiso   1.00
C11    C     0.85592   0.52411   0.28042   0.00000  Uiso   1.00
C12    C     0.88996   0.45496   0.27887   0.00000  Uiso   1.00
C13    C     0.94244   0.34257   0.34344   0.00000  Uiso   1.00
C14    C     0.85133   0.57282   0.82749   0.00000  Uiso   1.00
C15    C     0.88899   0.64739   0.85813   0.00000  Uiso   1.00
C16    C     0.94049   0.68100   0.75429   0.00000  Uiso   1.00
C17    C     0.96847   0.74924   0.80439   0.00000  Uiso   1.00
C18    C     0.76806   0.58793   0.83231   0.00000  Uiso   1.00
C19    C     0.71789   0.57152   0.70677   0.00000  Uiso   1.00
C20    C     0.64406   0.58970   0.73512   0.00000  Uiso   1.00
C21    C     0.86824   0.52525   0.97950   0.00000  Uiso   1.00
C22    C     0.90227   0.45613   0.97772   0.00000  Uiso   1.00
C23    C     0.91276   0.42152   0.13000   0.00000  Uiso   1.00
H24    H     0.79173   0.66025   0.21677   0.00000  Uiso   1.00
H25    H     0.87652   0.77479   0.17199   0.00000  Uiso   1.00
H26    H     0.65395   0.66532   0.12448   0.00000  Uiso   1.00
H27    H     0.83830   0.54995   0.39539   0.00000  Uiso   1.00
H28    H     0.98054   0.88708   0.05678   0.00000  Uiso   1.00
H29    H     0.51124   0.65624   0.95662   0.00000  Uiso   1.00
H30    H     0.89998   0.41295   0.52789   0.00000  Uiso   1.00
H31    H     0.86905   0.54684   0.71179   0.00000  Uiso   1.00
H32    H     0.95808   0.65516   0.63930   0.00000  Uiso   1.00
H33    H     0.73551   0.54569   0.59179   0.00000  Uiso   1.00
H34    H     0.91987   0.43032   0.86270   0.00000  Uiso   1.00
H35    H     0.04674   0.78998   0.62443   0.00000  Uiso   1.00
H36    H     0.57744   0.55914   0.52427   0.00000  Uiso   1.00
H37    H     0.96618   0.31586   0.09554   0.00000  Uiso   1.00
O38    O     0.07079   0.91184   0.80200   0.00000  Uiso   1.00
O39    O     0.45509   0.60898   0.67062   0.00000  Uiso   1.00
O40    O     0.96511   0.28980   0.42010   0.00000  Uiso   1.00
N41    N     0.98391   0.84935   0.96499   0.00000  Uiso   1.00
N42    N     0.54514   0.63354   0.87134   0.00000  Uiso   1.00
N43    N     0.90856   0.40608   0.40542   0.00000  Uiso   1.00
N44    N     0.01953   0.79710   0.73235   0.00000  Uiso   1.00
N45    N     0.58077   0.58129   0.63869   0.00000  Uiso   1.00
N46    N     0.94419   0.35384   0.17278   0.00000  Uiso   1.00
C47    C     0.19055   0.36573   0.10108   0.00000  Uiso   1.00
C48    C     0.13376   0.31923   0.00674   0.00000  Uiso   1.00
C49    C     0.10586   0.25102   0.05699   0.00000  Uiso   1.00
C50    C     0.05433   0.21732   0.95325   0.00000  Uiso   1.00
C51    C     0.96963   0.14002   0.82932   0.00000  Uiso   1.00
C52    C     0.25469   0.37870   0.98091   0.00000  Uiso   1.00
C53    C     0.32846   0.36050   0.00946   0.00000  Uiso   1.00
C54    C     0.37873   0.37687   0.88399   0.00000  Uiso   1.00
C55    C     0.48178   0.39194   0.72001   0.00000  Uiso   1.00
C56    C     0.15452   0.44138   0.12810   0.00000  Uiso   1.00
C57    C     0.14408   0.47589   0.28042   0.00000  Uiso   1.00
C58    C     0.11004   0.54504   0.27887   0.00000  Uiso   1.00
C59    C     0.05756   0.65743   0.34344   0.00000  Uiso   1.00
C60    C     0.14867   0.42718   0.82749   0.00000  Uiso   1.00
C61    C     0.11101   0.35261   0.85813   0.00000  Uiso   1.00
C62    C     0.05951   0.31900   0.75429   0.00000  Uiso   1.00
C63    C     0.03153   0.25076   0.80439   0.00000  Uiso   1.00
C64    C     0.23194   0.41207   0.83231   0.00000  Uiso   1.00
C65    C     0.28211   0.42848   0.70677   0.00000  Uiso   1.00
C66    C     0.35594   0.41030   0.73512   0.00000  Uiso   1.00
C67    C     0.13176   0.47475   0.97950   0.00000  Uiso   1.00
C68    C     0.09773   0.54387   0.97772   0.00000  Uiso   1.00
C69    C     0.08724   0.57848   0.13000   0.00000  Uiso   1.00
H70    H     0.20827   0.33975   0.21677   0.00000  Uiso   1.00
H71    H     0.12348   0.22521   0.17199   0.00000  Uiso   1.00
H72    H     0.34605   0.33468   0.12448   0.00000  Uiso   1.00
H73    H     0.16170   0.45005   0.39539   0.00000  Uiso   1.00
H74    H     0.01946   0.11292   0.05678   0.00000  Uiso   1.00
H75    H     0.48876   0.34376   0.95662   0.00000  Uiso   1.00
H76    H     0.10002   0.58705   0.52789   0.00000  Uiso   1.00
H77    H     0.13095   0.45316   0.71179   0.00000  Uiso   1.00
H78    H     0.04192   0.34484   0.63930   0.00000  Uiso   1.00
H79    H     0.26449   0.45431   0.59179   0.00000  Uiso   1.00
H80    H     0.08013   0.56968   0.86270   0.00000  Uiso   1.00
H81    H     0.95326   0.21002   0.62443   0.00000  Uiso   1.00
H82    H     0.42256   0.44086   0.52427   0.00000  Uiso   1.00
H83    H     0.03382   0.68414   0.09554   0.00000  Uiso   1.00
O84    O     0.92921   0.08816   0.80200   0.00000  Uiso   1.00
O85    O     0.54491   0.39102   0.67062   0.00000  Uiso   1.00
O86    O     0.03489   0.71020   0.42010   0.00000  Uiso   1.00
N87    N     0.01609   0.15065   0.96499   0.00000  Uiso   1.00
N88    N     0.45486   0.36646   0.87134   0.00000  Uiso   1.00
N89    N     0.09144   0.59392   0.40542   0.00000  Uiso   1.00
N90    N     0.98047   0.20290   0.73235   0.00000  Uiso   1.00
N91    N     0.41923   0.41871   0.63869   0.00000  Uiso   1.00
N92    N     0.05581   0.64616   0.17278   0.00000  Uiso   1.00
C93    C     0.63427   0.19055   0.89892   0.00000  Uiso   1.00
C94    C     0.68077   0.13376   0.99326   0.00000  Uiso   1.00
C95    C     0.74898   0.10586   0.94301   0.00000  Uiso   1.00
C96    C     0.78268   0.05433   0.04675   0.00000  Uiso   1.00
C97    C     0.85998   0.96963   0.17068   0.00000  Uiso   1.00
C98    C     0.62130   0.25469   0.01909   0.00000  Uiso   1.00
C99    C     0.63950   0.32846   0.99054   0.00000  Uiso   1.00
C100   C     0.62313   0.37873   0.11601   0.00000  Uiso   1.00
C101   C     0.60806   0.48178   0.27999   0.00000  Uiso   1.00
C102   C     0.55862   0.15452   0.87190   0.00000  Uiso   1.00
C103   C     0.52411   0.14408   0.71958   0.00000  Uiso   1.00
C104   C     0.45496   0.11004   0.72113   0.00000  Uiso   1.00
C105   C     0.34257   0.05756   0.65656   0.00000  Uiso   1.00
C106   C     0.57282   0.14867   0.17251   0.00000  Uiso   1.00
C107   C     0.64739   0.11101   0.14187   0.00000  Uiso   1.00
C108   C     0.68100   0.05951   0.24571   0.00000  Uiso   1.00
C109   C     0.74924   0.03153   0.19561   0.00000  Uiso   1.00
C110   C     0.58793   0.23194   0.16769   0.00000  Uiso   1.00
C111   C     0.57152   0.28211   0.29323   0.00000  Uiso   1.00
C112   C     0.58970   0.35594   0.26488   0.00000  Uiso   1.00
C113   C     0.52525   0.13176   0.02050   0.00000  Uiso   1.00
C114   C     0.45613   0.09773   0.02228   0.00000  Uiso   1.00
C115   C     0.42152   0.08724   0.87000   0.00000  Uiso   1.00
H116   H     0.66025   0.20827   0.78323   0.00000  Uiso   1.00
H117   H     0.77479   0.12348   0.82801   0.00000  Uiso   1.00
H118   H     0.66532   0.34605   0.87552   0.00000  Uiso   1.00
H119   H     0.54995   0.16170   0.60461   0.00000  Uiso   1.00
H120   H     0.88708   0.01946   0.94322   0.00000  Uiso   1.00
H121   H     0.65624   0.48876   0.04338   0.00000  Uiso   1.00
H122   H     0.41295   0.10002   0.47211   0.00000  Uiso   1.00
H123   H     0.54684   0.13095   0.28821   0.00000  Uiso   1.00
H124   H     0.65516   0.04192   0.36070   0.00000  Uiso   1.00
H125   H     0.54569   0.26449   0.40821   0.00000  Uiso   1.00
H126   H     0.43032   0.08013   0.13730   0.00000  Uiso   1.00
H127   H     0.78998   0.95326   0.37557   0.00000  Uiso   1.00
H128   H     0.55914   0.42256   0.47573   0.00000  Uiso   1.00
H129   H     0.31586   0.03382   0.90446   0.00000  Uiso   1.00
O130   O     0.91184   0.92921   0.19800   0.00000  Uiso   1.00
O131   O     0.60898   0.54491   0.32938   0.00000  Uiso   1.00
O132   O     0.28980   0.03489   0.57990   0.00000  Uiso   1.00
N133   N     0.84935   0.01609   0.03501   0.00000  Uiso   1.00
N134   N     0.63354   0.45486   0.12866   0.00000  Uiso   1.00
N135   N     0.40608   0.09144   0.59458   0.00000  Uiso   1.00
N136   N     0.79710   0.98047   0.26765   0.00000  Uiso   1.00
N137   N     0.58129   0.41923   0.36131   0.00000  Uiso   1.00
N138   N     0.35384   0.05581   0.82722   0.00000  Uiso   1.00
C139   C     0.36573   0.80945   0.89892   0.00000  Uiso   1.00
C140   C     0.31923   0.86624   0.99326   0.00000  Uiso   1.00
C141   C     0.25102   0.89414   0.94301   0.00000  Uiso   1.00
C142   C     0.21732   0.94567   0.04675   0.00000  Uiso   1.00
C143   C     0.14002   0.03037   0.17068   0.00000  Uiso   1.00
C144   C     0.37870   0.74531   0.01909   0.00000  Uiso   1.00
C145   C     0.36050   0.67154   0.99054   0.00000  Uiso   1.00
C146   C     0.37687   0.62127   0.11601   0.00000  Uiso   1.00
C147   C     0.39194   0.51822   0.27999   0.00000  Uiso   1.00
C148   C     0.44138   0.84548   0.87190   0.00000  Uiso   1.00
C149   C     0.47589   0.85592   0.71958   0.00000  Uiso   1.00
C150   C     0.54504   0.88996   0.72113   0.00000  Uiso   1.00
C151   C     0.65743   0.94244   0.65656   0.00000  Uiso   1.00
C152   C     0.42718   0.85133   0.17251   0.00000  Uiso   1.00
C153   C     0.35261   0.88899   0.14187   0.00000  Uiso   1.00
C154   C     0.31900   0.94049   0.24571   0.00000  Uiso   1.00
C155   C     0.25076   0.96847   0.19561   0.00000  Uiso   1.00
C156   C     0.41207   0.76806   0.16769   0.00000  Uiso   1.00
C157   C     0.42848   0.71789   0.29323   0.00000  Uiso   1.00
C158   C     0.41030   0.64406   0.26488   0.00000  Uiso   1.00
C159   C     0.47475   0.86824   0.02050   0.00000  Uiso   1.00
C160   C     0.54387   0.90227   0.02228   0.00000  Uiso   1.00
C161   C     0.57848   0.91276   0.87000   0.00000  Uiso   1.00
H162   H     0.33975   0.79173   0.78323   0.00000  Uiso   1.00
H163   H     0.22521   0.87652   0.82801   0.00000  Uiso   1.00
H164   H     0.33468   0.65395   0.87552   0.00000  Uiso   1.00
H165   H     0.45005   0.83830   0.60461   0.00000  Uiso   1.00
H166   H     0.11292   0.98054   0.94322   0.00000  Uiso   1.00
H167   H     0.34376   0.51124   0.04338   0.00000  Uiso   1.00
H168   H     0.58705   0.89998   0.47211   0.00000  Uiso   1.00
H169   H     0.45316   0.86905   0.28821   0.00000  Uiso   1.00
H170   H     0.34484   0.95808   0.36070   0.00000  Uiso   1.00
H171   H     0.45431   0.73551   0.40821   0.00000  Uiso   1.00
H172   H     0.56968   0.91987   0.13730   0.00000  Uiso   1.00
H173   H     0.21002   0.04674   0.37557   0.00000  Uiso   1.00
H174   H     0.44086   0.57744   0.47573   0.00000  Uiso   1.00
H175   H     0.68414   0.96618   0.90446   0.00000  Uiso   1.00
O176   O     0.08816   0.07079   0.19800   0.00000  Uiso   1.00
O177   O     0.39102   0.45509   0.32938   0.00000  Uiso   1.00
O178   O     0.71020   0.96511   0.57990   0.00000  Uiso   1.00
N179   N     0.15065   0.98391   0.03501   0.00000  Uiso   1.00
N180   N     0.36646   0.54514   0.12866   0.00000  Uiso   1.00
N181   N     0.59392   0.90856   0.59458   0.00000  Uiso   1.00
N182   N     0.20290   0.01953   0.26765   0.00000  Uiso   1.00
N183   N     0.41871   0.58077   0.36131   0.00000  Uiso   1.00
N184   N     0.64616   0.94419   0.82722   0.00000  Uiso   1.00
