data_job_05318
_audit_creation_date              2018-12-19
_audit_creation_method            'Materials Studio'
_symmetry_space_group_name_H-M    'P1'
_symmetry_Int_Tables_number       1
_symmetry_cell_setting            triclinic
loop_
_symmetry_equiv_pos_as_xyz
  x,y,z
_cell_length_a                    8.2905
_cell_length_b                    14.2849
_cell_length_c                    21.7641
_cell_angle_alpha                 90.0000
_cell_angle_beta                  107.9800
_cell_angle_gamma                 90.0000
loop_
_atom_site_label
_atom_site_type_symbol
_atom_site_fract_x
_atom_site_fract_y
_atom_site_fract_z
_atom_site_U_iso_or_equiv
_atom_site_adp_type
_atom_site_occupancy
C1     C     0.39732   0.74680   0.97387   0.00000  Uiso   1.00
C2     C     0.34108   0.67209   0.92155   0.00000  Uiso   1.00
C3     C     0.44779   0.61389   0.90075   0.00000  Uiso   1.00
C4     C     0.37158   0.55014   0.85234   0.00000  Uiso   1.00
C5     C     0.31112   0.43496   0.77513   0.00000  Uiso   1.00
C6     C     0.31877   0.83835   0.94252   0.00000  Uiso   1.00
C7     C     0.40673   0.91995   0.93937   0.00000  Uiso   1.00
C8     C     0.31172   0.99615   0.90863   0.00000  Uiso   1.00
C9     C     0.21661   0.13912   0.86401   0.00000  Uiso   1.00
C10    C     0.30930   0.72329   0.02396   0.00000  Uiso   1.00
C11    C     0.38929   0.70818   0.08930   0.00000  Uiso   1.00
C12    C     0.28631   0.68755   0.12713   0.00000  Uiso   1.00
C13    C     0.17650   0.65188   0.20897   0.00000  Uiso   1.00
C14    C     0.07218   0.73705   0.92489   0.00000  Uiso   1.00
C15    C     0.16447   0.66679   0.89494   0.00000  Uiso   1.00
C16    C     0.08807   0.60311   0.84656   0.00000  Uiso   1.00
C17    C     0.19466   0.54483   0.82569   0.00000  Uiso   1.00
C18    C     0.14217   0.83305   0.91592   0.00000  Uiso   1.00
C19    C     0.04701   0.90916   0.88518   0.00000  Uiso   1.00
C20    C     0.13480   0.99085   0.88197   0.00000  Uiso   1.00
C21    C     0.13270   0.71800   0.99736   0.00000  Uiso   1.00
C22    C     0.02957   0.69739   0.03510   0.00000  Uiso   1.00
C23    C     0.10939   0.68224   0.10048   0.00000  Uiso   1.00
H24    H     0.53480   0.75093   0.99458   0.00000  Uiso   1.00
H25    H     0.58446   0.61802   0.92134   0.00000  Uiso   1.00
H26    H     0.54339   0.92402   0.95996   0.00000  Uiso   1.00
H27    H     0.52596   0.71229   0.10987   0.00000  Uiso   1.00
H28    H     0.56163   0.46835   0.82840   0.00000  Uiso   1.00
H29    H     0.47503   0.11359   0.90985   0.00000  Uiso   1.00
H30    H     0.43827   0.66711   0.22595   0.00000  Uiso   1.00
H31    H     0.93469   0.73293   0.90417   0.00000  Uiso   1.00
H32    H     0.95141   0.59903   0.82598   0.00000  Uiso   1.00
H33    H     0.91035   0.90504   0.86460   0.00000  Uiso   1.00
H34    H     0.89291   0.69330   0.01450   0.00000  Uiso   1.00
H35    H     0.04782   0.45294   0.75100   0.00000  Uiso   1.00
H36    H     0.96123   0.09818   0.83245   0.00000  Uiso   1.00
H37    H     0.92447   0.65169   0.14855   0.00000  Uiso   1.00
O38    O     0.32655   0.37291   0.73988   0.00000  Uiso   1.00
O39    O     0.21295   0.21944   0.84675   0.00000  Uiso   1.00
O40    O     0.16472   0.63366   0.26146   0.00000  Uiso   1.00
N41    N     0.43841   0.48309   0.82093   0.00000  Uiso   1.00
N42    N     0.35745   0.08634   0.89707   0.00000  Uiso   1.00
N43    N     0.32308   0.66894   0.19260   0.00000  Uiso   1.00
N44    N     0.16193   0.47479   0.77928   0.00000  Uiso   1.00
N45    N     0.08098   0.07805   0.85542   0.00000  Uiso   1.00
N46    N     0.04661   0.66065   0.15095   0.00000  Uiso   1.00
C47    C     0.60268   0.24680   0.52613   0.00000  Uiso   1.00
C48    C     0.65892   0.17209   0.57845   0.00000  Uiso   1.00
C49    C     0.55221   0.11389   0.59925   0.00000  Uiso   1.00
C50    C     0.62842   0.05014   0.64766   0.00000  Uiso   1.00
C51    C     0.68888   0.93496   0.72487   0.00000  Uiso   1.00
C52    C     0.68123   0.33835   0.55748   0.00000  Uiso   1.00
C53    C     0.59327   0.41995   0.56063   0.00000  Uiso   1.00
C54    C     0.68828   0.49615   0.59137   0.00000  Uiso   1.00
C55    C     0.78339   0.63912   0.63599   0.00000  Uiso   1.00
C56    C     0.69070   0.22329   0.47604   0.00000  Uiso   1.00
C57    C     0.61071   0.20818   0.41070   0.00000  Uiso   1.00
C58    C     0.71369   0.18755   0.37287   0.00000  Uiso   1.00
C59    C     0.82350   0.15188   0.29103   0.00000  Uiso   1.00
C60    C     0.92782   0.23705   0.57511   0.00000  Uiso   1.00
C61    C     0.83553   0.16679   0.60506   0.00000  Uiso   1.00
C62    C     0.91193   0.10311   0.65344   0.00000  Uiso   1.00
C63    C     0.80534   0.04483   0.67431   0.00000  Uiso   1.00
C64    C     0.85783   0.33305   0.58408   0.00000  Uiso   1.00
C65    C     0.95299   0.40916   0.61482   0.00000  Uiso   1.00
C66    C     0.86520   0.49085   0.61803   0.00000  Uiso   1.00
C67    C     0.86730   0.21800   0.50264   0.00000  Uiso   1.00
C68    C     0.97043   0.19739   0.46490   0.00000  Uiso   1.00
C69    C     0.89061   0.18224   0.39952   0.00000  Uiso   1.00
H70    H     0.46520   0.25093   0.50542   0.00000  Uiso   1.00
H71    H     0.41554   0.11802   0.57866   0.00000  Uiso   1.00
H72    H     0.45661   0.42402   0.54004   0.00000  Uiso   1.00
H73    H     0.47404   0.21229   0.39013   0.00000  Uiso   1.00
H74    H     0.43837   0.96835   0.67160   0.00000  Uiso   1.00
H75    H     0.52497   0.61359   0.59015   0.00000  Uiso   1.00
H76    H     0.56173   0.16711   0.27405   0.00000  Uiso   1.00
H77    H     0.06531   0.23293   0.59583   0.00000  Uiso   1.00
H78    H     0.04859   0.09903   0.67402   0.00000  Uiso   1.00
H79    H     0.08965   0.40504   0.63540   0.00000  Uiso   1.00
H80    H     0.10709   0.19330   0.48550   0.00000  Uiso   1.00
H81    H     0.95218   0.95294   0.74900   0.00000  Uiso   1.00
H82    H     0.03877   0.59818   0.66755   0.00000  Uiso   1.00
H83    H     0.07553   0.15169   0.35145   0.00000  Uiso   1.00
O84    O     0.67345   0.87291   0.76012   0.00000  Uiso   1.00
O85    O     0.78705   0.71944   0.65325   0.00000  Uiso   1.00
O86    O     0.83528   0.13366   0.23854   0.00000  Uiso   1.00
N87    N     0.56159   0.98309   0.67907   0.00000  Uiso   1.00
N88    N     0.64255   0.58634   0.60293   0.00000  Uiso   1.00
N89    N     0.67692   0.16894   0.30740   0.00000  Uiso   1.00
N90    N     0.83807   0.97479   0.72072   0.00000  Uiso   1.00
N91    N     0.91902   0.57805   0.64458   0.00000  Uiso   1.00
N92    N     0.95339   0.16065   0.34905   0.00000  Uiso   1.00
C93    C     0.60268   0.25320   0.02613   0.00000  Uiso   1.00
C94    C     0.65892   0.32791   0.07845   0.00000  Uiso   1.00
C95    C     0.55221   0.38611   0.09925   0.00000  Uiso   1.00
C96    C     0.62842   0.44986   0.14766   0.00000  Uiso   1.00
C97    C     0.68888   0.56504   0.22487   0.00000  Uiso   1.00
C98    C     0.68123   0.16165   0.05748   0.00000  Uiso   1.00
C99    C     0.59327   0.08005   0.06063   0.00000  Uiso   1.00
C100   C     0.68828   0.00385   0.09137   0.00000  Uiso   1.00
C101   C     0.78339   0.86088   0.13599   0.00000  Uiso   1.00
C102   C     0.69070   0.27671   0.97604   0.00000  Uiso   1.00
C103   C     0.61071   0.29182   0.91070   0.00000  Uiso   1.00
C104   C     0.71369   0.31245   0.87287   0.00000  Uiso   1.00
C105   C     0.82350   0.34812   0.79103   0.00000  Uiso   1.00
C106   C     0.92782   0.26295   0.07511   0.00000  Uiso   1.00
C107   C     0.83553   0.33321   0.10506   0.00000  Uiso   1.00
C108   C     0.91193   0.39689   0.15344   0.00000  Uiso   1.00
C109   C     0.80534   0.45517   0.17431   0.00000  Uiso   1.00
C110   C     0.85783   0.16695   0.08408   0.00000  Uiso   1.00
C111   C     0.95299   0.09084   0.11482   0.00000  Uiso   1.00
C112   C     0.86520   0.00915   0.11803   0.00000  Uiso   1.00
C113   C     0.86730   0.28200   0.00264   0.00000  Uiso   1.00
C114   C     0.97043   0.30261   0.96490   0.00000  Uiso   1.00
C115   C     0.89061   0.31776   0.89952   0.00000  Uiso   1.00
H116   H     0.46520   0.24907   0.00542   0.00000  Uiso   1.00
H117   H     0.41554   0.38198   0.07866   0.00000  Uiso   1.00
H118   H     0.45661   0.07598   0.04004   0.00000  Uiso   1.00
H119   H     0.47404   0.28771   0.89013   0.00000  Uiso   1.00
H120   H     0.43837   0.53165   0.17160   0.00000  Uiso   1.00
H121   H     0.52497   0.88641   0.09015   0.00000  Uiso   1.00
H122   H     0.56173   0.33289   0.77405   0.00000  Uiso   1.00
H123   H     0.06531   0.26707   0.09583   0.00000  Uiso   1.00
H124   H     0.04859   0.40097   0.17402   0.00000  Uiso   1.00
H125   H     0.08965   0.09496   0.13540   0.00000  Uiso   1.00
H126   H     0.10709   0.30670   0.98550   0.00000  Uiso   1.00
H127   H     0.95218   0.54706   0.24900   0.00000  Uiso   1.00
H128   H     0.03877   0.90182   0.16755   0.00000  Uiso   1.00
H129   H     0.07553   0.34831   0.85145   0.00000  Uiso   1.00
O130   O     0.67345   0.62709   0.26012   0.00000  Uiso   1.00
O131   O     0.78705   0.78056   0.15325   0.00000  Uiso   1.00
O132   O     0.83528   0.36634   0.73854   0.00000  Uiso   1.00
N133   N     0.56159   0.51691   0.17907   0.00000  Uiso   1.00
N134   N     0.64255   0.91366   0.10293   0.00000  Uiso   1.00
N135   N     0.67692   0.33106   0.80740   0.00000  Uiso   1.00
N136   N     0.83807   0.52521   0.22072   0.00000  Uiso   1.00
N137   N     0.91902   0.92195   0.14458   0.00000  Uiso   1.00
N138   N     0.95339   0.33935   0.84905   0.00000  Uiso   1.00
C139   C     0.39732   0.75320   0.47387   0.00000  Uiso   1.00
C140   C     0.34108   0.82791   0.42155   0.00000  Uiso   1.00
C141   C     0.44779   0.88611   0.40075   0.00000  Uiso   1.00
C142   C     0.37158   0.94986   0.35234   0.00000  Uiso   1.00
C143   C     0.31112   0.06504   0.27513   0.00000  Uiso   1.00
C144   C     0.31877   0.66165   0.44252   0.00000  Uiso   1.00
C145   C     0.40673   0.58005   0.43937   0.00000  Uiso   1.00
C146   C     0.31172   0.50385   0.40863   0.00000  Uiso   1.00
C147   C     0.21661   0.36088   0.36401   0.00000  Uiso   1.00
C148   C     0.30930   0.77671   0.52396   0.00000  Uiso   1.00
C149   C     0.38929   0.79182   0.58930   0.00000  Uiso   1.00
C150   C     0.28631   0.81245   0.62713   0.00000  Uiso   1.00
C151   C     0.17650   0.84812   0.70897   0.00000  Uiso   1.00
C152   C     0.07218   0.76295   0.42489   0.00000  Uiso   1.00
C153   C     0.16447   0.83321   0.39494   0.00000  Uiso   1.00
C154   C     0.08807   0.89689   0.34656   0.00000  Uiso   1.00
C155   C     0.19466   0.95517   0.32569   0.00000  Uiso   1.00
C156   C     0.14217   0.66695   0.41592   0.00000  Uiso   1.00
C157   C     0.04701   0.59084   0.38518   0.00000  Uiso   1.00
C158   C     0.13480   0.50915   0.38197   0.00000  Uiso   1.00
C159   C     0.13270   0.78200   0.49736   0.00000  Uiso   1.00
C160   C     0.02957   0.80261   0.53510   0.00000  Uiso   1.00
C161   C     0.10939   0.81776   0.60048   0.00000  Uiso   1.00
H162   H     0.53480   0.74907   0.49458   0.00000  Uiso   1.00
H163   H     0.58446   0.88198   0.42134   0.00000  Uiso   1.00
H164   H     0.54339   0.57598   0.45996   0.00000  Uiso   1.00
H165   H     0.52596   0.78771   0.60987   0.00000  Uiso   1.00
H166   H     0.56163   0.03165   0.32840   0.00000  Uiso   1.00
H167   H     0.47503   0.38641   0.40985   0.00000  Uiso   1.00
H168   H     0.43827   0.83289   0.72595   0.00000  Uiso   1.00
H169   H     0.93469   0.76707   0.40417   0.00000  Uiso   1.00
H170   H     0.95141   0.90097   0.32598   0.00000  Uiso   1.00
H171   H     0.91035   0.59496   0.36460   0.00000  Uiso   1.00
H172   H     0.89291   0.80670   0.51450   0.00000  Uiso   1.00
H173   H     0.04782   0.04706   0.25100   0.00000  Uiso   1.00
H174   H     0.96123   0.40182   0.33245   0.00000  Uiso   1.00
H175   H     0.92447   0.84831   0.64855   0.00000  Uiso   1.00
O176   O     0.32655   0.12709   0.23988   0.00000  Uiso   1.00
O177   O     0.21295   0.28056   0.34675   0.00000  Uiso   1.00
O178   O     0.16472   0.86634   0.76146   0.00000  Uiso   1.00
N179   N     0.43841   0.01691   0.32093   0.00000  Uiso   1.00
N180   N     0.35745   0.41366   0.39707   0.00000  Uiso   1.00
N181   N     0.32308   0.83106   0.69260   0.00000  Uiso   1.00
N182   N     0.16193   0.02521   0.27928   0.00000  Uiso   1.00
N183   N     0.08098   0.42195   0.35542   0.00000  Uiso   1.00
N184   N     0.04661   0.83935   0.65095   0.00000  Uiso   1.00
