data_job_01456
_audit_creation_date              2018-12-19
_audit_creation_method            'Materials Studio'
_symmetry_space_group_name_H-M    'P1'
_symmetry_Int_Tables_number       1
_symmetry_cell_setting            triclinic
loop_
_symmetry_equiv_pos_as_xyz
  x,y,z
_cell_length_a                    12.4294
_cell_length_b                    12.4294
_cell_length_c                    30.9021
_cell_angle_alpha                 90.0000
_cell_angle_beta                  90.0000
_cell_angle_gamma                 120.0000
loop_
_atom_site_label
_atom_site_type_symbol
_atom_site_fract_x
_atom_site_fract_y
_atom_site_fract_z
_atom_site_U_iso_or_equiv
_atom_site_adp_type
_atom_site_occupancy
C1     C     0.87113   0.52397   0.68186   0.00000  Uiso   1.00
C2     C     0.77425   0.45512   0.71691   0.00000  Uiso   1.00
C3     C     0.70862   0.32736   0.72288   0.00000  Uiso   1.00
C4     C     0.62407   0.28249   0.75680   0.00000  Uiso   1.00
C5     C     0.47635   0.16339   0.80712   0.00000  Uiso   1.00
C6     C     0.82697   0.60104   0.65720   0.00000  Uiso   1.00
C7     C     0.80568   0.59598   0.61296   0.00000  Uiso   1.00
C8     C     0.76553   0.67396   0.59661   0.00000  Uiso   1.00
C9     C     0.69974   0.78147   0.55422   0.00000  Uiso   1.00
C10    C     0.98926   0.61685   0.70546   0.00000  Uiso   1.00
C11    C     0.10444   0.62510   0.70179   0.00000  Uiso   1.00
C12    C     0.20093   0.71641   0.72606   0.00000  Uiso   1.00
C13    C     0.38712   0.84846   0.75860   0.00000  Uiso   1.00
C14    C     0.83770   0.67150   0.73147   0.00000  Uiso   1.00
C15    C     0.75609   0.53525   0.74386   0.00000  Uiso   1.00
C16    C     0.67162   0.49057   0.77778   0.00000  Uiso   1.00
C17    C     0.60588   0.36276   0.78380   0.00000  Uiso   1.00
C18    C     0.80881   0.68117   0.68415   0.00000  Uiso   1.00
C19    C     0.76868   0.75919   0.66786   0.00000  Uiso   1.00
C20    C     0.74733   0.75423   0.62361   0.00000  Uiso   1.00
C21    C     0.97110   0.69698   0.73241   0.00000  Uiso   1.00
C22    C     0.06743   0.78831   0.75669   0.00000  Uiso   1.00
C23    C     0.18273   0.79669   0.75306   0.00000  Uiso   1.00
H24    H     0.88527   0.46160   0.66088   0.00000  Uiso   1.00
H25    H     0.72269   0.26538   0.70202   0.00000  Uiso   1.00
H26    H     0.81975   0.53397   0.59212   0.00000  Uiso   1.00
H27    H     0.11846   0.56308   0.68093   0.00000  Uiso   1.00
H28    H     0.53440   0.08317   0.75951   0.00000  Uiso   1.00
H29    H     0.73910   0.64953   0.52777   0.00000  Uiso   1.00
H30    H     0.36898   0.71092   0.71505   0.00000  Uiso   1.00
H31    H     0.82356   0.73388   0.75246   0.00000  Uiso   1.00
H32    H     0.65759   0.55260   0.79863   0.00000  Uiso   1.00
H33    H     0.75465   0.82119   0.68872   0.00000  Uiso   1.00
H34    H     0.05335   0.85030   0.77754   0.00000  Uiso   1.00
H35    H     0.48155   0.31629   0.83792   0.00000  Uiso   1.00
H36    H     0.68626   0.88265   0.60618   0.00000  Uiso   1.00
H37    H     0.31613   0.94404   0.79346   0.00000  Uiso   1.00
O38    O     0.39988   0.07556   0.82742   0.00000  Uiso   1.00
O39    O     0.66846   0.81862   0.52339   0.00000  Uiso   1.00
O40    O     0.49484   0.89915   0.76910   0.00000  Uiso   1.00
N41    N     0.54476   0.16291   0.77163   0.00000  Uiso   1.00
N42    N     0.73612   0.69241   0.55497   0.00000  Uiso   1.00
N43    N     0.32501   0.74983   0.73005   0.00000  Uiso   1.00
N44    N     0.51632   0.28835   0.81382   0.00000  Uiso   1.00
N45    N     0.70768   0.81785   0.59716   0.00000  Uiso   1.00
N46    N     0.29657   0.87526   0.77225   0.00000  Uiso   1.00
C47    C     0.47603   0.34716   0.34853   0.00000  Uiso   1.00
C48    C     0.54488   0.31913   0.38358   0.00000  Uiso   1.00
C49    C     0.67264   0.38126   0.38955   0.00000  Uiso   1.00
C50    C     0.71751   0.34158   0.42346   0.00000  Uiso   1.00
C51    C     0.83661   0.31296   0.47378   0.00000  Uiso   1.00
C52    C     0.39896   0.22592   0.32387   0.00000  Uiso   1.00
C53    C     0.40402   0.20970   0.27963   0.00000  Uiso   1.00
C54    C     0.32604   0.09157   0.26328   0.00000  Uiso   1.00
C55    C     0.21853   0.91827   0.22089   0.00000  Uiso   1.00
C56    C     0.38315   0.37241   0.37213   0.00000  Uiso   1.00
C57    C     0.37490   0.47934   0.36846   0.00000  Uiso   1.00
C58    C     0.28359   0.48452   0.39273   0.00000  Uiso   1.00
C59    C     0.15154   0.53866   0.42526   0.00000  Uiso   1.00
C60    C     0.32850   0.16620   0.39814   0.00000  Uiso   1.00
C61    C     0.46475   0.22083   0.41053   0.00000  Uiso   1.00
C62    C     0.50943   0.18105   0.44444   0.00000  Uiso   1.00
C63    C     0.63724   0.24312   0.45046   0.00000  Uiso   1.00
C64    C     0.31883   0.12764   0.35082   0.00000  Uiso   1.00
C65    C     0.24081   0.00950   0.33452   0.00000  Uiso   1.00
C66    C     0.24577   0.99310   0.29027   0.00000  Uiso   1.00
C67    C     0.30302   0.27412   0.39908   0.00000  Uiso   1.00
C68    C     0.21169   0.27913   0.42335   0.00000  Uiso   1.00
C69    C     0.20331   0.38605   0.41972   0.00000  Uiso   1.00
H70    H     0.53840   0.42368   0.32754   0.00000  Uiso   1.00
H71    H     0.73462   0.45731   0.36868   0.00000  Uiso   1.00
H72    H     0.46603   0.28579   0.25878   0.00000  Uiso   1.00
H73    H     0.43692   0.55538   0.34760   0.00000  Uiso   1.00
H74    H     0.91683   0.45123   0.42617   0.00000  Uiso   1.00
H75    H     0.35047   0.08957   0.19444   0.00000  Uiso   1.00
H76    H     0.28908   0.65806   0.38172   0.00000  Uiso   1.00
H77    H     0.26612   0.08967   0.41912   0.00000  Uiso   1.00
H78    H     0.44740   0.10499   0.46529   0.00000  Uiso   1.00
H79    H     0.17881   0.93346   0.35539   0.00000  Uiso   1.00
H80    H     0.14970   0.20305   0.44420   0.00000  Uiso   1.00
H81    H     0.68371   0.16527   0.50458   0.00000  Uiso   1.00
H82    H     0.11735   0.80360   0.27284   0.00000  Uiso   1.00
H83    H     0.05596   0.37209   0.46013   0.00000  Uiso   1.00
O84    O     0.92444   0.32432   0.49409   0.00000  Uiso   1.00
O85    O     0.18138   0.84984   0.19006   0.00000  Uiso   1.00
O86    O     0.10085   0.59569   0.43577   0.00000  Uiso   1.00
N87    N     0.83709   0.38184   0.43830   0.00000  Uiso   1.00
N88    N     0.30759   0.04371   0.22164   0.00000  Uiso   1.00
N89    N     0.25017   0.57518   0.39672   0.00000  Uiso   1.00
N90    N     0.71165   0.22797   0.48049   0.00000  Uiso   1.00
N91    N     0.18215   0.88983   0.26383   0.00000  Uiso   1.00
N92    N     0.12474   0.42131   0.43891   0.00000  Uiso   1.00
C93    C     0.65284   0.12887   0.01519   0.00000  Uiso   1.00
C94    C     0.68087   0.22575   0.05025   0.00000  Uiso   1.00
C95    C     0.61874   0.29138   0.05622   0.00000  Uiso   1.00
C96    C     0.65842   0.37593   0.09013   0.00000  Uiso   1.00
C97    C     0.68704   0.52365   0.14045   0.00000  Uiso   1.00
C98    C     0.77408   0.17303   0.99053   0.00000  Uiso   1.00
C99    C     0.79030   0.19432   0.94630   0.00000  Uiso   1.00
C100   C     0.90843   0.23447   0.92994   0.00000  Uiso   1.00
C101   C     0.08173   0.30026   0.88755   0.00000  Uiso   1.00
C102   C     0.62759   0.01074   0.03879   0.00000  Uiso   1.00
C103   C     0.52066   0.89556   0.03512   0.00000  Uiso   1.00
C104   C     0.51548   0.79907   0.05939   0.00000  Uiso   1.00
C105   C     0.46134   0.61288   0.09193   0.00000  Uiso   1.00
C106   C     0.83380   0.16230   0.06481   0.00000  Uiso   1.00
C107   C     0.77917   0.24391   0.07720   0.00000  Uiso   1.00
C108   C     0.81895   0.32838   0.11111   0.00000  Uiso   1.00
C109   C     0.75688   0.39412   0.11713   0.00000  Uiso   1.00
C110   C     0.87236   0.19119   0.01748   0.00000  Uiso   1.00
C111   C     0.99050   0.23132   0.00119   0.00000  Uiso   1.00
C112   C     0.00690   0.25267   0.95694   0.00000  Uiso   1.00
C113   C     0.72588   0.02890   0.06574   0.00000  Uiso   1.00
C114   C     0.72087   0.93257   0.09002   0.00000  Uiso   1.00
C115   C     0.61395   0.81727   0.08639   0.00000  Uiso   1.00
H116   H     0.57632   0.11473   0.99421   0.00000  Uiso   1.00
H117   H     0.54269   0.27731   0.03535   0.00000  Uiso   1.00
H118   H     0.71421   0.18025   0.92545   0.00000  Uiso   1.00
H119   H     0.44462   0.88154   0.01426   0.00000  Uiso   1.00
H120   H     0.54877   0.46560   0.09284   0.00000  Uiso   1.00
H121   H     0.91043   0.26090   0.86110   0.00000  Uiso   1.00
H122   H     0.34194   0.63102   0.04839   0.00000  Uiso   1.00
H123   H     0.91033   0.17644   0.08579   0.00000  Uiso   1.00
H124   H     0.89501   0.34241   0.13196   0.00000  Uiso   1.00
H125   H     0.06654   0.24535   0.02206   0.00000  Uiso   1.00
H126   H     0.79695   0.94665   0.11087   0.00000  Uiso   1.00
H127   H     0.83473   0.51845   0.17125   0.00000  Uiso   1.00
H128   H     0.19640   0.31374   0.93951   0.00000  Uiso   1.00
H129   H     0.62791   0.68387   0.12680   0.00000  Uiso   1.00
O130   O     0.67568   0.60012   0.16076   0.00000  Uiso   1.00
O131   O     0.15016   0.33154   0.85672   0.00000  Uiso   1.00
O132   O     0.40431   0.50516   0.10244   0.00000  Uiso   1.00
N133   N     0.61816   0.45524   0.10496   0.00000  Uiso   1.00
N134   N     0.95629   0.26388   0.88830   0.00000  Uiso   1.00
N135   N     0.42482   0.67499   0.06339   0.00000  Uiso   1.00
N136   N     0.77203   0.48368   0.14716   0.00000  Uiso   1.00
N137   N     0.11017   0.29232   0.93050   0.00000  Uiso   1.00
N138   N     0.57869   0.70343   0.10558   0.00000  Uiso   1.00
C139   C     0.52397   0.87113   0.31814   0.00000  Uiso   1.00
C140   C     0.45512   0.77425   0.28309   0.00000  Uiso   1.00
C141   C     0.32736   0.70862   0.27712   0.00000  Uiso   1.00
C142   C     0.28249   0.62407   0.24320   0.00000  Uiso   1.00
C143   C     0.16339   0.47635   0.19288   0.00000  Uiso   1.00
C144   C     0.60104   0.82697   0.34280   0.00000  Uiso   1.00
C145   C     0.59598   0.80568   0.38704   0.00000  Uiso   1.00
C146   C     0.67396   0.76553   0.40339   0.00000  Uiso   1.00
C147   C     0.78147   0.69974   0.44578   0.00000  Uiso   1.00
C148   C     0.61685   0.98926   0.29454   0.00000  Uiso   1.00
C149   C     0.62510   0.10444   0.29821   0.00000  Uiso   1.00
C150   C     0.71641   0.20093   0.27394   0.00000  Uiso   1.00
C151   C     0.84846   0.38712   0.24140   0.00000  Uiso   1.00
C152   C     0.67150   0.83770   0.26853   0.00000  Uiso   1.00
C153   C     0.53525   0.75609   0.25614   0.00000  Uiso   1.00
C154   C     0.49057   0.67162   0.22222   0.00000  Uiso   1.00
C155   C     0.36276   0.60588   0.21620   0.00000  Uiso   1.00
C156   C     0.68117   0.80881   0.31585   0.00000  Uiso   1.00
C157   C     0.75919   0.76868   0.33214   0.00000  Uiso   1.00
C158   C     0.75423   0.74733   0.37639   0.00000  Uiso   1.00
C159   C     0.69698   0.97110   0.26759   0.00000  Uiso   1.00
C160   C     0.78831   0.06743   0.24331   0.00000  Uiso   1.00
C161   C     0.79669   0.18273   0.24694   0.00000  Uiso   1.00
H162   H     0.46160   0.88527   0.33912   0.00000  Uiso   1.00
H163   H     0.26538   0.72269   0.29798   0.00000  Uiso   1.00
H164   H     0.53397   0.81975   0.40788   0.00000  Uiso   1.00
H165   H     0.56308   0.11846   0.31907   0.00000  Uiso   1.00
H166   H     0.08317   0.53440   0.24049   0.00000  Uiso   1.00
H167   H     0.64953   0.73910   0.47223   0.00000  Uiso   1.00
H168   H     0.71092   0.36898   0.28495   0.00000  Uiso   1.00
H169   H     0.73388   0.82356   0.24754   0.00000  Uiso   1.00
H170   H     0.55260   0.65759   0.20137   0.00000  Uiso   1.00
H171   H     0.82119   0.75465   0.31128   0.00000  Uiso   1.00
H172   H     0.85030   0.05335   0.22246   0.00000  Uiso   1.00
H173   H     0.31629   0.48155   0.16208   0.00000  Uiso   1.00
H174   H     0.88265   0.68626   0.39382   0.00000  Uiso   1.00
H175   H     0.94404   0.31613   0.20654   0.00000  Uiso   1.00
O176   O     0.07556   0.39988   0.17258   0.00000  Uiso   1.00
O177   O     0.81862   0.66846   0.47661   0.00000  Uiso   1.00
O178   O     0.89915   0.49484   0.23090   0.00000  Uiso   1.00
N179   N     0.16291   0.54476   0.22837   0.00000  Uiso   1.00
N180   N     0.69241   0.73612   0.44503   0.00000  Uiso   1.00
N181   N     0.74983   0.32501   0.26995   0.00000  Uiso   1.00
N182   N     0.28835   0.51632   0.18618   0.00000  Uiso   1.00
N183   N     0.81785   0.70768   0.40284   0.00000  Uiso   1.00
N184   N     0.87526   0.29657   0.22775   0.00000  Uiso   1.00
C185   C     0.34716   0.47603   0.65147   0.00000  Uiso   1.00
C186   C     0.31913   0.54488   0.61642   0.00000  Uiso   1.00
C187   C     0.38126   0.67264   0.61045   0.00000  Uiso   1.00
C188   C     0.34158   0.71751   0.57654   0.00000  Uiso   1.00
C189   C     0.31296   0.83661   0.52622   0.00000  Uiso   1.00
C190   C     0.22592   0.39896   0.67613   0.00000  Uiso   1.00
C191   C     0.20970   0.40402   0.72037   0.00000  Uiso   1.00
C192   C     0.09157   0.32604   0.73672   0.00000  Uiso   1.00
C193   C     0.91827   0.21853   0.77911   0.00000  Uiso   1.00
C194   C     0.37241   0.38315   0.62787   0.00000  Uiso   1.00
C195   C     0.47934   0.37490   0.63154   0.00000  Uiso   1.00
C196   C     0.48452   0.28359   0.60727   0.00000  Uiso   1.00
C197   C     0.53866   0.15154   0.57474   0.00000  Uiso   1.00
C198   C     0.16620   0.32850   0.60186   0.00000  Uiso   1.00
C199   C     0.22083   0.46475   0.58947   0.00000  Uiso   1.00
C200   C     0.18105   0.50943   0.55556   0.00000  Uiso   1.00
C201   C     0.24312   0.63724   0.54954   0.00000  Uiso   1.00
C202   C     0.12764   0.31883   0.64918   0.00000  Uiso   1.00
C203   C     0.00950   0.24081   0.66548   0.00000  Uiso   1.00
C204   C     0.99310   0.24577   0.70973   0.00000  Uiso   1.00
C205   C     0.27412   0.30302   0.60092   0.00000  Uiso   1.00
C206   C     0.27913   0.21169   0.57665   0.00000  Uiso   1.00
C207   C     0.38605   0.20331   0.58028   0.00000  Uiso   1.00
H208   H     0.42368   0.53840   0.67246   0.00000  Uiso   1.00
H209   H     0.45731   0.73462   0.63132   0.00000  Uiso   1.00
H210   H     0.28579   0.46603   0.74122   0.00000  Uiso   1.00
H211   H     0.55538   0.43692   0.65240   0.00000  Uiso   1.00
H212   H     0.45123   0.91683   0.57383   0.00000  Uiso   1.00
H213   H     0.08957   0.35047   0.80556   0.00000  Uiso   1.00
H214   H     0.65806   0.28908   0.61828   0.00000  Uiso   1.00
H215   H     0.08967   0.26612   0.58088   0.00000  Uiso   1.00
H216   H     0.10499   0.44740   0.53471   0.00000  Uiso   1.00
H217   H     0.93346   0.17881   0.64461   0.00000  Uiso   1.00
H218   H     0.20305   0.14970   0.55580   0.00000  Uiso   1.00
H219   H     0.16527   0.68371   0.49542   0.00000  Uiso   1.00
H220   H     0.80360   0.11735   0.72716   0.00000  Uiso   1.00
H221   H     0.37209   0.05596   0.53987   0.00000  Uiso   1.00
O222   O     0.32432   0.92444   0.50591   0.00000  Uiso   1.00
O223   O     0.84984   0.18138   0.80994   0.00000  Uiso   1.00
O224   O     0.59569   0.10085   0.56423   0.00000  Uiso   1.00
N225   N     0.38184   0.83709   0.56170   0.00000  Uiso   1.00
N226   N     0.04371   0.30759   0.77836   0.00000  Uiso   1.00
N227   N     0.57518   0.25017   0.60328   0.00000  Uiso   1.00
N228   N     0.22797   0.71165   0.51951   0.00000  Uiso   1.00
N229   N     0.88983   0.18215   0.73617   0.00000  Uiso   1.00
N230   N     0.42131   0.12474   0.56109   0.00000  Uiso   1.00
C231   C     0.12887   0.65284   0.98481   0.00000  Uiso   1.00
C232   C     0.22575   0.68087   0.94975   0.00000  Uiso   1.00
C233   C     0.29138   0.61874   0.94378   0.00000  Uiso   1.00
C234   C     0.37593   0.65842   0.90987   0.00000  Uiso   1.00
C235   C     0.52365   0.68704   0.85955   0.00000  Uiso   1.00
C236   C     0.17303   0.77408   0.00947   0.00000  Uiso   1.00
C237   C     0.19432   0.79030   0.05370   0.00000  Uiso   1.00
C238   C     0.23447   0.90843   0.07006   0.00000  Uiso   1.00
C239   C     0.30026   0.08173   0.11245   0.00000  Uiso   1.00
C240   C     0.01074   0.62759   0.96121   0.00000  Uiso   1.00
C241   C     0.89556   0.52066   0.96488   0.00000  Uiso   1.00
C242   C     0.79907   0.51548   0.94061   0.00000  Uiso   1.00
C243   C     0.61288   0.46134   0.90807   0.00000  Uiso   1.00
C244   C     0.16230   0.83380   0.93519   0.00000  Uiso   1.00
C245   C     0.24391   0.77917   0.92280   0.00000  Uiso   1.00
C246   C     0.32838   0.81895   0.88889   0.00000  Uiso   1.00
C247   C     0.39412   0.75688   0.88287   0.00000  Uiso   1.00
C248   C     0.19119   0.87236   0.98252   0.00000  Uiso   1.00
C249   C     0.23132   0.99050   0.99881   0.00000  Uiso   1.00
C250   C     0.25267   0.00690   0.04306   0.00000  Uiso   1.00
C251   C     0.02890   0.72588   0.93426   0.00000  Uiso   1.00
C252   C     0.93257   0.72087   0.90998   0.00000  Uiso   1.00
C253   C     0.81727   0.61395   0.91361   0.00000  Uiso   1.00
H254   H     0.11473   0.57632   0.00579   0.00000  Uiso   1.00
H255   H     0.27731   0.54269   0.96465   0.00000  Uiso   1.00
H256   H     0.18025   0.71421   0.07455   0.00000  Uiso   1.00
H257   H     0.88154   0.44462   0.98574   0.00000  Uiso   1.00
H258   H     0.46560   0.54877   0.90716   0.00000  Uiso   1.00
H259   H     0.26090   0.91043   0.13890   0.00000  Uiso   1.00
H260   H     0.63102   0.34194   0.95161   0.00000  Uiso   1.00
H261   H     0.17644   0.91033   0.91421   0.00000  Uiso   1.00
H262   H     0.34241   0.89501   0.86804   0.00000  Uiso   1.00
H263   H     0.24535   0.06654   0.97794   0.00000  Uiso   1.00
H264   H     0.94665   0.79695   0.88913   0.00000  Uiso   1.00
H265   H     0.51845   0.83473   0.82875   0.00000  Uiso   1.00
H266   H     0.31374   0.19640   0.06049   0.00000  Uiso   1.00
H267   H     0.68387   0.62791   0.87320   0.00000  Uiso   1.00
O268   O     0.60012   0.67568   0.83924   0.00000  Uiso   1.00
O269   O     0.33154   0.15016   0.14328   0.00000  Uiso   1.00
O270   O     0.50516   0.40431   0.89756   0.00000  Uiso   1.00
N271   N     0.45524   0.61816   0.89504   0.00000  Uiso   1.00
N272   N     0.26388   0.95629   0.11170   0.00000  Uiso   1.00
N273   N     0.67499   0.42482   0.93661   0.00000  Uiso   1.00
N274   N     0.48368   0.77203   0.85284   0.00000  Uiso   1.00
N275   N     0.29232   0.11017   0.06950   0.00000  Uiso   1.00
N276   N     0.70343   0.57869   0.89442   0.00000  Uiso   1.00
