data_job_04983
_audit_creation_date              2018-12-19
_audit_creation_method            'Materials Studio'
_symmetry_space_group_name_H-M    'P1'
_symmetry_Int_Tables_number       1
_symmetry_cell_setting            triclinic
loop_
_symmetry_equiv_pos_as_xyz
  x,y,z
_cell_length_a                    12.2320
_cell_length_b                    13.7441
_cell_length_c                    16.3394
_cell_angle_alpha                 90.0000
_cell_angle_beta                  114.4460
_cell_angle_gamma                 90.0000
loop_
_atom_site_label
_atom_site_type_symbol
_atom_site_fract_x
_atom_site_fract_y
_atom_site_fract_z
_atom_site_U_iso_or_equiv
_atom_site_adp_type
_atom_site_occupancy
C1     C     0.60051   0.99766   0.24048   0.00000  Uiso   1.00
C2     C     0.65119   0.02746   0.33918   0.00000  Uiso   1.00
C3     C     0.69631   0.11858   0.37298   0.00000  Uiso   1.00
C4     C     0.73853   0.13128   0.46530   0.00000  Uiso   1.00
C5     C     0.81771   0.18907   0.60998   0.00000  Uiso   1.00
C6     C     0.67308   0.90926   0.23585   0.00000  Uiso   1.00
C7     C     0.73659   0.90100   0.18277   0.00000  Uiso   1.00
C8     C     0.79723   0.81419   0.18810   0.00000  Uiso   1.00
C9     C     0.91033   0.68844   0.17232   0.00000  Uiso   1.00
C10    C     0.47366   0.96066   0.21755   0.00000  Uiso   1.00
C11    C     0.36950   0.99560   0.14907   0.00000  Uiso   1.00
C12    C     0.26223   0.95205   0.13898   0.00000  Uiso   1.00
C13    C     0.06570   0.90611   0.09479   0.00000  Uiso   1.00
C14    C     0.59525   0.85817   0.34430   0.00000  Uiso   1.00
C15    C     0.64834   0.95170   0.39557   0.00000  Uiso   1.00
C16    C     0.69049   0.96426   0.48786   0.00000  Uiso   1.00
C17    C     0.73566   0.05539   0.52180   0.00000  Uiso   1.00
C18    C     0.67023   0.83350   0.29224   0.00000  Uiso   1.00
C19    C     0.73078   0.74668   0.29765   0.00000  Uiso   1.00
C20    C     0.79437   0.73829   0.24460   0.00000  Uiso   1.00
C21    C     0.47081   0.88490   0.27395   0.00000  Uiso   1.00
C22    C     0.36368   0.84128   0.26395   0.00000  Uiso   1.00
C23    C     0.25937   0.87615   0.19548   0.00000  Uiso   1.00
H24    H     0.60274   0.05664   0.19657   0.00000  Uiso   1.00
H25    H     0.69851   0.17719   0.32932   0.00000  Uiso   1.00
H26    H     0.73878   0.95964   0.13913   0.00000  Uiso   1.00
H27    H     0.37174   0.05423   0.10545   0.00000  Uiso   1.00
H28    H     0.80348   0.27743   0.50137   0.00000  Uiso   1.00
H29    H     0.88835   0.81869   0.10033   0.00000  Uiso   1.00
H30    H     0.11438   0.01815   0.02929   0.00000  Uiso   1.00
H31    H     0.59303   0.79919   0.38821   0.00000  Uiso   1.00
H32    H     0.68827   0.90562   0.53148   0.00000  Uiso   1.00
H33    H     0.72854   0.68806   0.34129   0.00000  Uiso   1.00
H34    H     0.36151   0.78266   0.30761   0.00000  Uiso   1.00
H35    H     0.79518   0.05701   0.66546   0.00000  Uiso   1.00
H36    H     0.88004   0.59827   0.26441   0.00000  Uiso   1.00
H37    H     0.10607   0.79773   0.19337   0.00000  Uiso   1.00
O38    O     0.86219   0.24187   0.67421   0.00000  Uiso   1.00
O39    O     0.97352   0.64002   0.14804   0.00000  Uiso   1.00
O40    O     0.95809   0.90171   0.05485   0.00000  Uiso   1.00
N41    N     0.78843   0.21095   0.52033   0.00000  Uiso   1.00
N42    N     0.86780   0.78207   0.14538   0.00000  Uiso   1.00
N43    N     0.14420   0.96853   0.07895   0.00000  Uiso   1.00
N44    N     0.78396   0.09235   0.60862   0.00000  Uiso   1.00
N45    N     0.86332   0.66346   0.23368   0.00000  Uiso   1.00
N46    N     0.13973   0.84992   0.16725   0.00000  Uiso   1.00
C47    C     0.39949   0.49766   0.25952   0.00000  Uiso   1.00
C48    C     0.34881   0.52746   0.16082   0.00000  Uiso   1.00
C49    C     0.30369   0.61858   0.12702   0.00000  Uiso   1.00
C50    C     0.26147   0.63128   0.03470   0.00000  Uiso   1.00
C51    C     0.18229   0.68907   0.89002   0.00000  Uiso   1.00
C52    C     0.32692   0.40926   0.26415   0.00000  Uiso   1.00
C53    C     0.26341   0.40100   0.31723   0.00000  Uiso   1.00
C54    C     0.20277   0.31419   0.31190   0.00000  Uiso   1.00
C55    C     0.08967   0.18844   0.32768   0.00000  Uiso   1.00
C56    C     0.52634   0.46066   0.28245   0.00000  Uiso   1.00
C57    C     0.63050   0.49560   0.35093   0.00000  Uiso   1.00
C58    C     0.73777   0.45205   0.36102   0.00000  Uiso   1.00
C59    C     0.93430   0.40611   0.40521   0.00000  Uiso   1.00
C60    C     0.40475   0.35817   0.15570   0.00000  Uiso   1.00
C61    C     0.35166   0.45170   0.10443   0.00000  Uiso   1.00
C62    C     0.30951   0.46426   0.01214   0.00000  Uiso   1.00
C63    C     0.26434   0.55539   0.97820   0.00000  Uiso   1.00
C64    C     0.32977   0.33350   0.20776   0.00000  Uiso   1.00
C65    C     0.26922   0.24668   0.20235   0.00000  Uiso   1.00
C66    C     0.20563   0.23829   0.25540   0.00000  Uiso   1.00
C67    C     0.52919   0.38490   0.22605   0.00000  Uiso   1.00
C68    C     0.63632   0.34128   0.23605   0.00000  Uiso   1.00
C69    C     0.74063   0.37615   0.30452   0.00000  Uiso   1.00
H70    H     0.39726   0.55664   0.30343   0.00000  Uiso   1.00
H71    H     0.30149   0.67719   0.17068   0.00000  Uiso   1.00
H72    H     0.26122   0.45964   0.36087   0.00000  Uiso   1.00
H73    H     0.62826   0.55423   0.39455   0.00000  Uiso   1.00
H74    H     0.19652   0.77743   0.99863   0.00000  Uiso   1.00
H75    H     0.11165   0.31869   0.39967   0.00000  Uiso   1.00
H76    H     0.88562   0.51815   0.47071   0.00000  Uiso   1.00
H77    H     0.40697   0.29919   0.11179   0.00000  Uiso   1.00
H78    H     0.31173   0.40562   0.96852   0.00000  Uiso   1.00
H79    H     0.27146   0.18806   0.15871   0.00000  Uiso   1.00
H80    H     0.63849   0.28266   0.19239   0.00000  Uiso   1.00
H81    H     0.20482   0.55701   0.83454   0.00000  Uiso   1.00
H82    H     0.11996   0.09827   0.23559   0.00000  Uiso   1.00
H83    H     0.89393   0.29773   0.30663   0.00000  Uiso   1.00
O84    O     0.13781   0.74187   0.82579   0.00000  Uiso   1.00
O85    O     0.02648   0.14002   0.35196   0.00000  Uiso   1.00
O86    O     0.04191   0.40171   0.44515   0.00000  Uiso   1.00
N87    N     0.21157   0.71095   0.97967   0.00000  Uiso   1.00
N88    N     0.13220   0.28207   0.35462   0.00000  Uiso   1.00
N89    N     0.85580   0.46853   0.42105   0.00000  Uiso   1.00
N90    N     0.21604   0.59235   0.89138   0.00000  Uiso   1.00
N91    N     0.13668   0.16346   0.26632   0.00000  Uiso   1.00
N92    N     0.86027   0.34992   0.33275   0.00000  Uiso   1.00
C93    C     0.39949   0.00234   0.75952   0.00000  Uiso   1.00
C94    C     0.34881   0.97254   0.66082   0.00000  Uiso   1.00
C95    C     0.30369   0.88142   0.62702   0.00000  Uiso   1.00
C96    C     0.26147   0.86872   0.53470   0.00000  Uiso   1.00
C97    C     0.18229   0.81093   0.39002   0.00000  Uiso   1.00
C98    C     0.32692   0.09074   0.76415   0.00000  Uiso   1.00
C99    C     0.26341   0.09900   0.81723   0.00000  Uiso   1.00
C100   C     0.20277   0.18581   0.81190   0.00000  Uiso   1.00
C101   C     0.08967   0.31156   0.82768   0.00000  Uiso   1.00
C102   C     0.52634   0.03934   0.78245   0.00000  Uiso   1.00
C103   C     0.63050   0.00440   0.85093   0.00000  Uiso   1.00
C104   C     0.73777   0.04795   0.86102   0.00000  Uiso   1.00
C105   C     0.93430   0.09389   0.90521   0.00000  Uiso   1.00
C106   C     0.40475   0.14183   0.65570   0.00000  Uiso   1.00
C107   C     0.35166   0.04830   0.60443   0.00000  Uiso   1.00
C108   C     0.30951   0.03574   0.51214   0.00000  Uiso   1.00
C109   C     0.26434   0.94461   0.47820   0.00000  Uiso   1.00
C110   C     0.32977   0.16650   0.70776   0.00000  Uiso   1.00
C111   C     0.26922   0.25332   0.70235   0.00000  Uiso   1.00
C112   C     0.20563   0.26171   0.75540   0.00000  Uiso   1.00
C113   C     0.52919   0.11510   0.72605   0.00000  Uiso   1.00
C114   C     0.63632   0.15872   0.73605   0.00000  Uiso   1.00
C115   C     0.74063   0.12385   0.80452   0.00000  Uiso   1.00
H116   H     0.39726   0.94336   0.80343   0.00000  Uiso   1.00
H117   H     0.30149   0.82281   0.67068   0.00000  Uiso   1.00
H118   H     0.26122   0.04036   0.86087   0.00000  Uiso   1.00
H119   H     0.62826   0.94577   0.89455   0.00000  Uiso   1.00
H120   H     0.19652   0.72257   0.49863   0.00000  Uiso   1.00
H121   H     0.11165   0.18131   0.89967   0.00000  Uiso   1.00
H122   H     0.88562   0.98185   0.97071   0.00000  Uiso   1.00
H123   H     0.40697   0.20081   0.61179   0.00000  Uiso   1.00
H124   H     0.31173   0.09438   0.46852   0.00000  Uiso   1.00
H125   H     0.27146   0.31194   0.65871   0.00000  Uiso   1.00
H126   H     0.63849   0.21734   0.69239   0.00000  Uiso   1.00
H127   H     0.20482   0.94299   0.33454   0.00000  Uiso   1.00
H128   H     0.11996   0.40173   0.73559   0.00000  Uiso   1.00
H129   H     0.89393   0.20227   0.80663   0.00000  Uiso   1.00
O130   O     0.13781   0.75813   0.32579   0.00000  Uiso   1.00
O131   O     0.02648   0.35998   0.85196   0.00000  Uiso   1.00
O132   O     0.04191   0.09829   0.94515   0.00000  Uiso   1.00
N133   N     0.21157   0.78905   0.47967   0.00000  Uiso   1.00
N134   N     0.13220   0.21793   0.85462   0.00000  Uiso   1.00
N135   N     0.85580   0.03147   0.92105   0.00000  Uiso   1.00
N136   N     0.21604   0.90765   0.39138   0.00000  Uiso   1.00
N137   N     0.13668   0.33654   0.76632   0.00000  Uiso   1.00
N138   N     0.86027   0.15008   0.83275   0.00000  Uiso   1.00
C139   C     0.60051   0.50234   0.74048   0.00000  Uiso   1.00
C140   C     0.65119   0.47254   0.83918   0.00000  Uiso   1.00
C141   C     0.69631   0.38142   0.87298   0.00000  Uiso   1.00
C142   C     0.73853   0.36872   0.96530   0.00000  Uiso   1.00
C143   C     0.81771   0.31093   0.10998   0.00000  Uiso   1.00
C144   C     0.67308   0.59074   0.73585   0.00000  Uiso   1.00
C145   C     0.73659   0.59900   0.68277   0.00000  Uiso   1.00
C146   C     0.79723   0.68581   0.68810   0.00000  Uiso   1.00
C147   C     0.91033   0.81156   0.67232   0.00000  Uiso   1.00
C148   C     0.47366   0.53934   0.71755   0.00000  Uiso   1.00
C149   C     0.36950   0.50440   0.64907   0.00000  Uiso   1.00
C150   C     0.26223   0.54795   0.63898   0.00000  Uiso   1.00
C151   C     0.06570   0.59389   0.59479   0.00000  Uiso   1.00
C152   C     0.59525   0.64183   0.84430   0.00000  Uiso   1.00
C153   C     0.64834   0.54830   0.89557   0.00000  Uiso   1.00
C154   C     0.69049   0.53574   0.98786   0.00000  Uiso   1.00
C155   C     0.73566   0.44461   0.02180   0.00000  Uiso   1.00
C156   C     0.67023   0.66650   0.79224   0.00000  Uiso   1.00
C157   C     0.73078   0.75332   0.79765   0.00000  Uiso   1.00
C158   C     0.79437   0.76171   0.74460   0.00000  Uiso   1.00
C159   C     0.47081   0.61510   0.77395   0.00000  Uiso   1.00
C160   C     0.36368   0.65872   0.76395   0.00000  Uiso   1.00
C161   C     0.25937   0.62385   0.69548   0.00000  Uiso   1.00
H162   H     0.60274   0.44336   0.69657   0.00000  Uiso   1.00
H163   H     0.69851   0.32281   0.82932   0.00000  Uiso   1.00
H164   H     0.73878   0.54036   0.63913   0.00000  Uiso   1.00
H165   H     0.37174   0.44577   0.60545   0.00000  Uiso   1.00
H166   H     0.80348   0.22257   0.00137   0.00000  Uiso   1.00
H167   H     0.88835   0.68131   0.60033   0.00000  Uiso   1.00
H168   H     0.11438   0.48185   0.52929   0.00000  Uiso   1.00
H169   H     0.59303   0.70081   0.88821   0.00000  Uiso   1.00
H170   H     0.68827   0.59438   0.03148   0.00000  Uiso   1.00
H171   H     0.72854   0.81194   0.84129   0.00000  Uiso   1.00
H172   H     0.36151   0.71734   0.80761   0.00000  Uiso   1.00
H173   H     0.79518   0.44299   0.16546   0.00000  Uiso   1.00
H174   H     0.88004   0.90173   0.76441   0.00000  Uiso   1.00
H175   H     0.10607   0.70227   0.69337   0.00000  Uiso   1.00
O176   O     0.86219   0.25813   0.17421   0.00000  Uiso   1.00
O177   O     0.97352   0.85998   0.64804   0.00000  Uiso   1.00
O178   O     0.95809   0.59829   0.55485   0.00000  Uiso   1.00
N179   N     0.78843   0.28905   0.02033   0.00000  Uiso   1.00
N180   N     0.86780   0.71793   0.64538   0.00000  Uiso   1.00
N181   N     0.14420   0.53147   0.57895   0.00000  Uiso   1.00
N182   N     0.78396   0.40765   0.10862   0.00000  Uiso   1.00
N183   N     0.86332   0.83654   0.73368   0.00000  Uiso   1.00
N184   N     0.13973   0.65008   0.66725   0.00000  Uiso   1.00
