data_job_00923
_audit_creation_date              2018-12-19
_audit_creation_method            'Materials Studio'
_symmetry_space_group_name_H-M    'P1'
_symmetry_Int_Tables_number       1
_symmetry_cell_setting            triclinic
loop_
_symmetry_equiv_pos_as_xyz
  x,y,z
_cell_length_a                    21.1079
_cell_length_b                    8.3902
_cell_length_c                    18.5053
_cell_angle_alpha                 90.0000
_cell_angle_beta                  75.1763
_cell_angle_gamma                 90.0000
loop_
_atom_site_label
_atom_site_type_symbol
_atom_site_fract_x
_atom_site_fract_y
_atom_site_fract_z
_atom_site_U_iso_or_equiv
_atom_site_adp_type
_atom_site_occupancy
C1     C     0.19392   0.50094   0.72740   0.00000  Uiso   1.00
C2     C     0.25012   0.57326   0.66769   0.00000  Uiso   1.00
C3     C     0.31147   0.50530   0.63992   0.00000  Uiso   1.00
C4     C     0.35614   0.59033   0.58545   0.00000  Uiso   1.00
C5     C     0.44586   0.68020   0.49668   0.00000  Uiso   1.00
C6     C     0.17537   0.62503   0.78945   0.00000  Uiso   1.00
C7     C     0.17386   0.60058   0.86404   0.00000  Uiso   1.00
C8     C     0.15560   0.72920   0.91207   0.00000  Uiso   1.00
C9     C     0.12924   0.89940   0.01233   0.00000  Uiso   1.00
C10    C     0.13588   0.49087   0.69264   0.00000  Uiso   1.00
C11    C     0.10116   0.35361   0.68586   0.00000  Uiso   1.00
C12    C     0.04964   0.36928   0.65240   0.00000  Uiso   1.00
C13    C     0.96196   0.33117   0.60235   0.00000  Uiso   1.00
C14    C     0.16415   0.77283   0.68007   0.00000  Uiso   1.00
C15    C     0.23394   0.72095   0.64199   0.00000  Uiso   1.00
C16    C     0.27853   0.80611   0.58755   0.00000  Uiso   1.00
C17    C     0.33994   0.73828   0.55970   0.00000  Uiso   1.00
C18    C     0.15920   0.77271   0.76374   0.00000  Uiso   1.00
C19    C     0.14093   0.90139   0.81167   0.00000  Uiso   1.00
C20    C     0.13940   0.87714   0.88632   0.00000  Uiso   1.00
C21    C     0.11971   0.63855   0.66693   0.00000  Uiso   1.00
C22    C     0.06822   0.65443   0.63348   0.00000  Uiso   1.00
C23    C     0.03344   0.51723   0.62665   0.00000  Uiso   1.00
H24    H     0.20651   0.38598   0.74743   0.00000  Uiso   1.00
H25    H     0.32397   0.39101   0.65983   0.00000  Uiso   1.00
H26    H     0.18638   0.48628   0.88392   0.00000  Uiso   1.00
H27    H     0.11369   0.23935   0.70576   0.00000  Uiso   1.00
H28    H     0.44706   0.46175   0.55140   0.00000  Uiso   1.00
H29    H     0.15693   0.66261   0.02391   0.00000  Uiso   1.00
H30    H     0.00365   0.14192   0.64823   0.00000  Uiso   1.00
H31    H     0.15156   0.88782   0.66006   0.00000  Uiso   1.00
H32    H     0.26600   0.92039   0.56766   0.00000  Uiso   1.00
H33    H     0.12841   0.01565   0.79176   0.00000  Uiso   1.00
H34    H     0.05572   0.76873   0.61360   0.00000  Uiso   1.00
H35    H     0.40002   0.89142   0.47660   0.00000  Uiso   1.00
H36    H     0.10988   0.09227   0.94911   0.00000  Uiso   1.00
H37    H     0.95660   0.57158   0.57342   0.00000  Uiso   1.00
O38    O     0.49983   0.68898   0.45482   0.00000  Uiso   1.00
O39    O     0.11917   0.95248   0.07473   0.00000  Uiso   1.00
O40    O     0.91807   0.26935   0.58184   0.00000  Uiso   1.00
N41    N     0.42028   0.55839   0.54647   0.00000  Uiso   1.00
N42    N     0.14903   0.74618   0.98823   0.00000  Uiso   1.00
N43    N     0.00572   0.25939   0.63702   0.00000  Uiso   1.00
N44    N     0.39497   0.78959   0.50621   0.00000  Uiso   1.00
N45    N     0.12372   0.97738   0.94798   0.00000  Uiso   1.00
N46    N     0.98040   0.49059   0.59676   0.00000  Uiso   1.00
C47    C     0.80608   0.50094   0.77260   0.00000  Uiso   1.00
C48    C     0.74988   0.57326   0.83231   0.00000  Uiso   1.00
C49    C     0.68853   0.50530   0.86008   0.00000  Uiso   1.00
C50    C     0.64386   0.59033   0.91455   0.00000  Uiso   1.00
C51    C     0.55414   0.68020   0.00332   0.00000  Uiso   1.00
C52    C     0.82463   0.62503   0.71055   0.00000  Uiso   1.00
C53    C     0.82614   0.60058   0.63596   0.00000  Uiso   1.00
C54    C     0.84440   0.72920   0.58793   0.00000  Uiso   1.00
C55    C     0.87076   0.89940   0.48767   0.00000  Uiso   1.00
C56    C     0.86412   0.49087   0.80736   0.00000  Uiso   1.00
C57    C     0.89884   0.35361   0.81414   0.00000  Uiso   1.00
C58    C     0.95036   0.36928   0.84760   0.00000  Uiso   1.00
C59    C     0.03804   0.33117   0.89765   0.00000  Uiso   1.00
C60    C     0.83585   0.77283   0.81993   0.00000  Uiso   1.00
C61    C     0.76606   0.72095   0.85801   0.00000  Uiso   1.00
C62    C     0.72147   0.80611   0.91245   0.00000  Uiso   1.00
C63    C     0.66006   0.73828   0.94030   0.00000  Uiso   1.00
C64    C     0.84080   0.77271   0.73626   0.00000  Uiso   1.00
C65    C     0.85907   0.90139   0.68833   0.00000  Uiso   1.00
C66    C     0.86060   0.87714   0.61368   0.00000  Uiso   1.00
C67    C     0.88029   0.63855   0.83307   0.00000  Uiso   1.00
C68    C     0.93178   0.65443   0.86652   0.00000  Uiso   1.00
C69    C     0.96656   0.51723   0.87335   0.00000  Uiso   1.00
H70    H     0.79349   0.38598   0.75257   0.00000  Uiso   1.00
H71    H     0.67603   0.39101   0.84017   0.00000  Uiso   1.00
H72    H     0.81362   0.48628   0.61608   0.00000  Uiso   1.00
H73    H     0.88631   0.23935   0.79424   0.00000  Uiso   1.00
H74    H     0.55294   0.46175   0.94860   0.00000  Uiso   1.00
H75    H     0.84307   0.66261   0.47609   0.00000  Uiso   1.00
H76    H     0.99635   0.14192   0.85177   0.00000  Uiso   1.00
H77    H     0.84844   0.88782   0.83994   0.00000  Uiso   1.00
H78    H     0.73400   0.92039   0.93234   0.00000  Uiso   1.00
H79    H     0.87159   0.01565   0.70824   0.00000  Uiso   1.00
H80    H     0.94428   0.76873   0.88640   0.00000  Uiso   1.00
H81    H     0.59998   0.89142   0.02340   0.00000  Uiso   1.00
H82    H     0.89012   0.09227   0.55089   0.00000  Uiso   1.00
H83    H     0.04340   0.57158   0.92658   0.00000  Uiso   1.00
O84    O     0.50017   0.68898   0.04518   0.00000  Uiso   1.00
O85    O     0.88083   0.95248   0.42527   0.00000  Uiso   1.00
O86    O     0.08193   0.26935   0.91816   0.00000  Uiso   1.00
N87    N     0.57972   0.55839   0.95353   0.00000  Uiso   1.00
N88    N     0.85097   0.74618   0.51177   0.00000  Uiso   1.00
N89    N     0.99428   0.25939   0.86298   0.00000  Uiso   1.00
N90    N     0.60503   0.78959   0.99379   0.00000  Uiso   1.00
N91    N     0.87628   0.97738   0.55202   0.00000  Uiso   1.00
N92    N     0.01960   0.49059   0.90324   0.00000  Uiso   1.00
C93    C     0.80608   0.49906   0.27260   0.00000  Uiso   1.00
C94    C     0.74988   0.42674   0.33231   0.00000  Uiso   1.00
C95    C     0.68853   0.49470   0.36008   0.00000  Uiso   1.00
C96    C     0.64386   0.40967   0.41455   0.00000  Uiso   1.00
C97    C     0.55414   0.31980   0.50332   0.00000  Uiso   1.00
C98    C     0.82463   0.37497   0.21055   0.00000  Uiso   1.00
C99    C     0.82614   0.39942   0.13596   0.00000  Uiso   1.00
C100   C     0.84440   0.27080   0.08793   0.00000  Uiso   1.00
C101   C     0.87076   0.10060   0.98767   0.00000  Uiso   1.00
C102   C     0.86412   0.50913   0.30736   0.00000  Uiso   1.00
C103   C     0.89884   0.64639   0.31414   0.00000  Uiso   1.00
C104   C     0.95036   0.63072   0.34760   0.00000  Uiso   1.00
C105   C     0.03804   0.66883   0.39765   0.00000  Uiso   1.00
C106   C     0.83585   0.22717   0.31993   0.00000  Uiso   1.00
C107   C     0.76606   0.27905   0.35801   0.00000  Uiso   1.00
C108   C     0.72147   0.19389   0.41245   0.00000  Uiso   1.00
C109   C     0.66006   0.26172   0.44030   0.00000  Uiso   1.00
C110   C     0.84080   0.22729   0.23626   0.00000  Uiso   1.00
C111   C     0.85907   0.09861   0.18833   0.00000  Uiso   1.00
C112   C     0.86060   0.12286   0.11368   0.00000  Uiso   1.00
C113   C     0.88029   0.36145   0.33307   0.00000  Uiso   1.00
C114   C     0.93178   0.34557   0.36652   0.00000  Uiso   1.00
C115   C     0.96656   0.48277   0.37335   0.00000  Uiso   1.00
H116   H     0.79349   0.61402   0.25257   0.00000  Uiso   1.00
H117   H     0.67603   0.60899   0.34017   0.00000  Uiso   1.00
H118   H     0.81362   0.51372   0.11608   0.00000  Uiso   1.00
H119   H     0.88631   0.76065   0.29424   0.00000  Uiso   1.00
H120   H     0.55294   0.53825   0.44860   0.00000  Uiso   1.00
H121   H     0.84307   0.33739   0.97609   0.00000  Uiso   1.00
H122   H     0.99635   0.85808   0.35177   0.00000  Uiso   1.00
H123   H     0.84844   0.11218   0.33994   0.00000  Uiso   1.00
H124   H     0.73400   0.07961   0.43234   0.00000  Uiso   1.00
H125   H     0.87159   0.98435   0.20824   0.00000  Uiso   1.00
H126   H     0.94428   0.23127   0.38640   0.00000  Uiso   1.00
H127   H     0.59998   0.10858   0.52340   0.00000  Uiso   1.00
H128   H     0.89012   0.90773   0.05089   0.00000  Uiso   1.00
H129   H     0.04340   0.42842   0.42658   0.00000  Uiso   1.00
O130   O     0.50017   0.31102   0.54518   0.00000  Uiso   1.00
O131   O     0.88083   0.04752   0.92527   0.00000  Uiso   1.00
O132   O     0.08193   0.73065   0.41816   0.00000  Uiso   1.00
N133   N     0.57972   0.44161   0.45353   0.00000  Uiso   1.00
N134   N     0.85097   0.25382   0.01177   0.00000  Uiso   1.00
N135   N     0.99428   0.74061   0.36298   0.00000  Uiso   1.00
N136   N     0.60503   0.21041   0.49379   0.00000  Uiso   1.00
N137   N     0.87628   0.02262   0.05202   0.00000  Uiso   1.00
N138   N     0.01960   0.50941   0.40324   0.00000  Uiso   1.00
C139   C     0.19392   0.49906   0.22740   0.00000  Uiso   1.00
C140   C     0.25012   0.42674   0.16769   0.00000  Uiso   1.00
C141   C     0.31147   0.49470   0.13992   0.00000  Uiso   1.00
C142   C     0.35614   0.40967   0.08545   0.00000  Uiso   1.00
C143   C     0.44586   0.31980   0.99668   0.00000  Uiso   1.00
C144   C     0.17537   0.37497   0.28945   0.00000  Uiso   1.00
C145   C     0.17386   0.39942   0.36404   0.00000  Uiso   1.00
C146   C     0.15560   0.27080   0.41207   0.00000  Uiso   1.00
C147   C     0.12924   0.10060   0.51233   0.00000  Uiso   1.00
C148   C     0.13588   0.50913   0.19264   0.00000  Uiso   1.00
C149   C     0.10116   0.64639   0.18586   0.00000  Uiso   1.00
C150   C     0.04964   0.63072   0.15240   0.00000  Uiso   1.00
C151   C     0.96196   0.66883   0.10235   0.00000  Uiso   1.00
C152   C     0.16415   0.22717   0.18007   0.00000  Uiso   1.00
C153   C     0.23394   0.27905   0.14199   0.00000  Uiso   1.00
C154   C     0.27853   0.19389   0.08755   0.00000  Uiso   1.00
C155   C     0.33994   0.26172   0.05970   0.00000  Uiso   1.00
C156   C     0.15920   0.22729   0.26374   0.00000  Uiso   1.00
C157   C     0.14093   0.09861   0.31167   0.00000  Uiso   1.00
C158   C     0.13940   0.12286   0.38632   0.00000  Uiso   1.00
C159   C     0.11971   0.36145   0.16693   0.00000  Uiso   1.00
C160   C     0.06822   0.34557   0.13348   0.00000  Uiso   1.00
C161   C     0.03344   0.48277   0.12665   0.00000  Uiso   1.00
H162   H     0.20651   0.61402   0.24743   0.00000  Uiso   1.00
H163   H     0.32397   0.60899   0.15983   0.00000  Uiso   1.00
H164   H     0.18638   0.51372   0.38392   0.00000  Uiso   1.00
H165   H     0.11369   0.76065   0.20576   0.00000  Uiso   1.00
H166   H     0.44706   0.53825   0.05140   0.00000  Uiso   1.00
H167   H     0.15693   0.33739   0.52391   0.00000  Uiso   1.00
H168   H     0.00365   0.85808   0.14823   0.00000  Uiso   1.00
H169   H     0.15156   0.11218   0.16006   0.00000  Uiso   1.00
H170   H     0.26600   0.07961   0.06766   0.00000  Uiso   1.00
H171   H     0.12841   0.98435   0.29176   0.00000  Uiso   1.00
H172   H     0.05572   0.23127   0.11360   0.00000  Uiso   1.00
H173   H     0.40002   0.10858   0.97660   0.00000  Uiso   1.00
H174   H     0.10988   0.90773   0.44911   0.00000  Uiso   1.00
H175   H     0.95660   0.42842   0.07342   0.00000  Uiso   1.00
O176   O     0.49983   0.31102   0.95482   0.00000  Uiso   1.00
O177   O     0.11917   0.04752   0.57473   0.00000  Uiso   1.00
O178   O     0.91807   0.73065   0.08184   0.00000  Uiso   1.00
N179   N     0.42028   0.44161   0.04647   0.00000  Uiso   1.00
N180   N     0.14903   0.25382   0.48823   0.00000  Uiso   1.00
N181   N     0.00572   0.74061   0.13702   0.00000  Uiso   1.00
N182   N     0.39497   0.21041   0.00621   0.00000  Uiso   1.00
N183   N     0.12372   0.02262   0.44798   0.00000  Uiso   1.00
N184   N     0.98040   0.50941   0.09676   0.00000  Uiso   1.00
