data_job_05873
_audit_creation_date              2018-12-19
_audit_creation_method            'Materials Studio'
_symmetry_space_group_name_H-M    'P1'
_symmetry_Int_Tables_number       1
_symmetry_cell_setting            triclinic
loop_
_symmetry_equiv_pos_as_xyz
  x,y,z
_cell_length_a                    29.5070
_cell_length_b                    29.5070
_cell_length_c                    7.5414
_cell_angle_alpha                 90.0000
_cell_angle_beta                  90.0000
_cell_angle_gamma                 90.0000
loop_
_atom_site_label
_atom_site_type_symbol
_atom_site_fract_x
_atom_site_fract_y
_atom_site_fract_z
_atom_site_U_iso_or_equiv
_atom_site_adp_type
_atom_site_occupancy
C1     C     0.34213   0.83445   0.95947   0.00000  Uiso   1.00
C2     C     0.36555   0.79292   0.88135   0.00000  Uiso   1.00
C3     C     0.38524   0.75801   0.97760   0.00000  Uiso   1.00
C4     C     0.40495   0.72306   0.88148   0.00000  Uiso   1.00
C5     C     0.44133   0.65859   0.78842   0.00000  Uiso   1.00
C6     C     0.36639   0.87549   0.88141   0.00000  Uiso   1.00
C7     C     0.38679   0.90999   0.97772   0.00000  Uiso   1.00
C8     C     0.40721   0.94454   0.88164   0.00000  Uiso   1.00
C9     C     0.44487   0.00827   0.78868   0.00000  Uiso   1.00
C10    C     0.29447   0.83494   0.88136   0.00000  Uiso   1.00
C11    C     0.25439   0.83537   0.97763   0.00000  Uiso   1.00
C12    C     0.21426   0.83580   0.88151   0.00000  Uiso   1.00
C13    C     0.14024   0.83658   0.78848   0.00000  Uiso   1.00
C14    C     0.34214   0.83446   0.61759   0.00000  Uiso   1.00
C15    C     0.36555   0.79294   0.69565   0.00000  Uiso   1.00
C16    C     0.38524   0.75803   0.59935   0.00000  Uiso   1.00
C17    C     0.40496   0.72306   0.69545   0.00000  Uiso   1.00
C18    C     0.36640   0.87550   0.69572   0.00000  Uiso   1.00
C19    C     0.38680   0.91001   0.59947   0.00000  Uiso   1.00
C20    C     0.40722   0.94455   0.69561   0.00000  Uiso   1.00
C21    C     0.29447   0.83495   0.69566   0.00000  Uiso   1.00
C22    C     0.25440   0.83539   0.59937   0.00000  Uiso   1.00
C23    C     0.21426   0.83581   0.69547   0.00000  Uiso   1.00
H24    H     0.34213   0.83444   0.10404   0.00000  Uiso   1.00
H25    H     0.38523   0.75801   0.12132   0.00000  Uiso   1.00
H26    H     0.38678   0.90997   0.12142   0.00000  Uiso   1.00
H27    H     0.25440   0.83536   0.12133   0.00000  Uiso   1.00
H28    H     0.43303   0.67329   0.05857   0.00000  Uiso   1.00
H29    H     0.43628   0.99372   0.05881   0.00000  Uiso   1.00
H30    H     0.15713   0.83638   0.05861   0.00000  Uiso   1.00
H31    H     0.34214   0.83447   0.47300   0.00000  Uiso   1.00
H32    H     0.38524   0.75804   0.45565   0.00000  Uiso   1.00
H33    H     0.38679   0.91001   0.45576   0.00000  Uiso   1.00
H34    H     0.25441   0.83539   0.45567   0.00000  Uiso   1.00
H35    H     0.43304   0.67332   0.51829   0.00000  Uiso   1.00
H36    H     0.43628   0.99374   0.51853   0.00000  Uiso   1.00
H37    H     0.15714   0.83641   0.51833   0.00000  Uiso   1.00
O38    O     0.46140   0.62304   0.78840   0.00000  Uiso   1.00
O39    O     0.46565   0.04342   0.78871   0.00000  Uiso   1.00
O40    O     0.09942   0.83701   0.78846   0.00000  Uiso   1.00
N41    N     0.42711   0.68378   0.93380   0.00000  Uiso   1.00
N42    N     0.43015   0.98336   0.93402   0.00000  Uiso   1.00
N43    N     0.16917   0.83628   0.93384   0.00000  Uiso   1.00
N44    N     0.42711   0.68380   0.64308   0.00000  Uiso   1.00
N45    N     0.43016   0.98337   0.64330   0.00000  Uiso   1.00
N46    N     0.16918   0.83629   0.64312   0.00000  Uiso   1.00
C47    C     0.84213   0.33445   0.45947   0.00000  Uiso   1.00
C48    C     0.86555   0.29292   0.38135   0.00000  Uiso   1.00
C49    C     0.88524   0.25801   0.47760   0.00000  Uiso   1.00
C50    C     0.90495   0.22306   0.38148   0.00000  Uiso   1.00
C51    C     0.94133   0.15859   0.28842   0.00000  Uiso   1.00
C52    C     0.86639   0.37549   0.38141   0.00000  Uiso   1.00
C53    C     0.88679   0.40999   0.47772   0.00000  Uiso   1.00
C54    C     0.90721   0.44454   0.38164   0.00000  Uiso   1.00
C55    C     0.94487   0.50827   0.28868   0.00000  Uiso   1.00
C56    C     0.79447   0.33494   0.38136   0.00000  Uiso   1.00
C57    C     0.75439   0.33537   0.47763   0.00000  Uiso   1.00
C58    C     0.71426   0.33580   0.38151   0.00000  Uiso   1.00
C59    C     0.64024   0.33658   0.28848   0.00000  Uiso   1.00
C60    C     0.84214   0.33446   0.11759   0.00000  Uiso   1.00
C61    C     0.86555   0.29294   0.19565   0.00000  Uiso   1.00
C62    C     0.88524   0.25803   0.09935   0.00000  Uiso   1.00
C63    C     0.90496   0.22306   0.19545   0.00000  Uiso   1.00
C64    C     0.86640   0.37550   0.19572   0.00000  Uiso   1.00
C65    C     0.88680   0.41001   0.09947   0.00000  Uiso   1.00
C66    C     0.90722   0.44455   0.19561   0.00000  Uiso   1.00
C67    C     0.79447   0.33495   0.19566   0.00000  Uiso   1.00
C68    C     0.75440   0.33539   0.09937   0.00000  Uiso   1.00
C69    C     0.71426   0.33581   0.19547   0.00000  Uiso   1.00
H70    H     0.84213   0.33444   0.60404   0.00000  Uiso   1.00
H71    H     0.88523   0.25801   0.62132   0.00000  Uiso   1.00
H72    H     0.88678   0.40997   0.62142   0.00000  Uiso   1.00
H73    H     0.75440   0.33536   0.62133   0.00000  Uiso   1.00
H74    H     0.93303   0.17329   0.55857   0.00000  Uiso   1.00
H75    H     0.93628   0.49372   0.55881   0.00000  Uiso   1.00
H76    H     0.65713   0.33638   0.55861   0.00000  Uiso   1.00
H77    H     0.84214   0.33447   0.97300   0.00000  Uiso   1.00
H78    H     0.88524   0.25804   0.95565   0.00000  Uiso   1.00
H79    H     0.88679   0.41001   0.95576   0.00000  Uiso   1.00
H80    H     0.75441   0.33539   0.95567   0.00000  Uiso   1.00
H81    H     0.93304   0.17332   0.01829   0.00000  Uiso   1.00
H82    H     0.93628   0.49374   0.01853   0.00000  Uiso   1.00
H83    H     0.65714   0.33641   0.01833   0.00000  Uiso   1.00
O84    O     0.96140   0.12304   0.28840   0.00000  Uiso   1.00
O85    O     0.96565   0.54342   0.28871   0.00000  Uiso   1.00
O86    O     0.59942   0.33701   0.28846   0.00000  Uiso   1.00
N87    N     0.92711   0.18378   0.43380   0.00000  Uiso   1.00
N88    N     0.93015   0.48336   0.43402   0.00000  Uiso   1.00
N89    N     0.66917   0.33628   0.43384   0.00000  Uiso   1.00
N90    N     0.92711   0.18380   0.14308   0.00000  Uiso   1.00
N91    N     0.93016   0.48337   0.14330   0.00000  Uiso   1.00
N92    N     0.66918   0.33629   0.14312   0.00000  Uiso   1.00
C93    C     0.65787   0.16555   0.95947   0.00000  Uiso   1.00
C94    C     0.63445   0.20708   0.88135   0.00000  Uiso   1.00
C95    C     0.61476   0.24199   0.97760   0.00000  Uiso   1.00
C96    C     0.59505   0.27694   0.88148   0.00000  Uiso   1.00
C97    C     0.55867   0.34141   0.78842   0.00000  Uiso   1.00
C98    C     0.63361   0.12451   0.88141   0.00000  Uiso   1.00
C99    C     0.61321   0.09001   0.97772   0.00000  Uiso   1.00
C100   C     0.59279   0.05546   0.88164   0.00000  Uiso   1.00
C101   C     0.55513   0.99173   0.78868   0.00000  Uiso   1.00
C102   C     0.70553   0.16506   0.88136   0.00000  Uiso   1.00
C103   C     0.74561   0.16463   0.97763   0.00000  Uiso   1.00
C104   C     0.78574   0.16420   0.88151   0.00000  Uiso   1.00
C105   C     0.85976   0.16342   0.78848   0.00000  Uiso   1.00
C106   C     0.65786   0.16554   0.61759   0.00000  Uiso   1.00
C107   C     0.63445   0.20706   0.69565   0.00000  Uiso   1.00
C108   C     0.61476   0.24197   0.59935   0.00000  Uiso   1.00
C109   C     0.59504   0.27694   0.69545   0.00000  Uiso   1.00
C110   C     0.63360   0.12450   0.69572   0.00000  Uiso   1.00
C111   C     0.61320   0.08999   0.59947   0.00000  Uiso   1.00
C112   C     0.59278   0.05545   0.69561   0.00000  Uiso   1.00
C113   C     0.70553   0.16505   0.69566   0.00000  Uiso   1.00
C114   C     0.74560   0.16461   0.59937   0.00000  Uiso   1.00
C115   C     0.78574   0.16419   0.69547   0.00000  Uiso   1.00
H116   H     0.65787   0.16556   0.10404   0.00000  Uiso   1.00
H117   H     0.61477   0.24199   0.12132   0.00000  Uiso   1.00
H118   H     0.61322   0.09003   0.12142   0.00000  Uiso   1.00
H119   H     0.74560   0.16464   0.12133   0.00000  Uiso   1.00
H120   H     0.56697   0.32671   0.05857   0.00000  Uiso   1.00
H121   H     0.56372   0.00628   0.05881   0.00000  Uiso   1.00
H122   H     0.84287   0.16362   0.05861   0.00000  Uiso   1.00
H123   H     0.65786   0.16553   0.47300   0.00000  Uiso   1.00
H124   H     0.61476   0.24196   0.45565   0.00000  Uiso   1.00
H125   H     0.61321   0.08999   0.45576   0.00000  Uiso   1.00
H126   H     0.74559   0.16461   0.45567   0.00000  Uiso   1.00
H127   H     0.56696   0.32668   0.51829   0.00000  Uiso   1.00
H128   H     0.56372   0.00626   0.51853   0.00000  Uiso   1.00
H129   H     0.84286   0.16359   0.51833   0.00000  Uiso   1.00
O130   O     0.53860   0.37696   0.78840   0.00000  Uiso   1.00
O131   O     0.53435   0.95658   0.78871   0.00000  Uiso   1.00
O132   O     0.90058   0.16299   0.78846   0.00000  Uiso   1.00
N133   N     0.57289   0.31622   0.93380   0.00000  Uiso   1.00
N134   N     0.56985   0.01664   0.93402   0.00000  Uiso   1.00
N135   N     0.83083   0.16372   0.93384   0.00000  Uiso   1.00
N136   N     0.57289   0.31620   0.64308   0.00000  Uiso   1.00
N137   N     0.56984   0.01663   0.64330   0.00000  Uiso   1.00
N138   N     0.83082   0.16371   0.64312   0.00000  Uiso   1.00
C139   C     0.15787   0.66555   0.45947   0.00000  Uiso   1.00
C140   C     0.13445   0.70708   0.38135   0.00000  Uiso   1.00
C141   C     0.11476   0.74199   0.47760   0.00000  Uiso   1.00
C142   C     0.09505   0.77694   0.38148   0.00000  Uiso   1.00
C143   C     0.05867   0.84141   0.28842   0.00000  Uiso   1.00
C144   C     0.13361   0.62451   0.38141   0.00000  Uiso   1.00
C145   C     0.11321   0.59001   0.47772   0.00000  Uiso   1.00
C146   C     0.09279   0.55546   0.38164   0.00000  Uiso   1.00
C147   C     0.05513   0.49173   0.28868   0.00000  Uiso   1.00
C148   C     0.20553   0.66506   0.38136   0.00000  Uiso   1.00
C149   C     0.24561   0.66463   0.47763   0.00000  Uiso   1.00
C150   C     0.28574   0.66420   0.38151   0.00000  Uiso   1.00
C151   C     0.35976   0.66342   0.28848   0.00000  Uiso   1.00
C152   C     0.15786   0.66554   0.11759   0.00000  Uiso   1.00
C153   C     0.13445   0.70706   0.19565   0.00000  Uiso   1.00
C154   C     0.11476   0.74197   0.09935   0.00000  Uiso   1.00
C155   C     0.09504   0.77694   0.19545   0.00000  Uiso   1.00
C156   C     0.13360   0.62450   0.19572   0.00000  Uiso   1.00
C157   C     0.11320   0.58999   0.09947   0.00000  Uiso   1.00
C158   C     0.09278   0.55545   0.19561   0.00000  Uiso   1.00
C159   C     0.20553   0.66505   0.19566   0.00000  Uiso   1.00
C160   C     0.24560   0.66461   0.09937   0.00000  Uiso   1.00
C161   C     0.28574   0.66419   0.19547   0.00000  Uiso   1.00
H162   H     0.15787   0.66556   0.60404   0.00000  Uiso   1.00
H163   H     0.11477   0.74199   0.62132   0.00000  Uiso   1.00
H164   H     0.11322   0.59003   0.62142   0.00000  Uiso   1.00
H165   H     0.24560   0.66464   0.62133   0.00000  Uiso   1.00
H166   H     0.06697   0.82671   0.55857   0.00000  Uiso   1.00
H167   H     0.06372   0.50628   0.55881   0.00000  Uiso   1.00
H168   H     0.34287   0.66362   0.55861   0.00000  Uiso   1.00
H169   H     0.15786   0.66553   0.97300   0.00000  Uiso   1.00
H170   H     0.11476   0.74196   0.95565   0.00000  Uiso   1.00
H171   H     0.11321   0.58999   0.95576   0.00000  Uiso   1.00
H172   H     0.24559   0.66461   0.95567   0.00000  Uiso   1.00
H173   H     0.06696   0.82668   0.01829   0.00000  Uiso   1.00
H174   H     0.06372   0.50626   0.01853   0.00000  Uiso   1.00
H175   H     0.34286   0.66359   0.01833   0.00000  Uiso   1.00
O176   O     0.03860   0.87696   0.28840   0.00000  Uiso   1.00
O177   O     0.03435   0.45658   0.28871   0.00000  Uiso   1.00
O178   O     0.40058   0.66299   0.28846   0.00000  Uiso   1.00
N179   N     0.07289   0.81622   0.43380   0.00000  Uiso   1.00
N180   N     0.06985   0.51664   0.43402   0.00000  Uiso   1.00
N181   N     0.33083   0.66372   0.43384   0.00000  Uiso   1.00
N182   N     0.07289   0.81620   0.14308   0.00000  Uiso   1.00
N183   N     0.06984   0.51663   0.14330   0.00000  Uiso   1.00
N184   N     0.33082   0.66371   0.14312   0.00000  Uiso   1.00
C185   C     0.16555   0.34213   0.95947   0.00000  Uiso   1.00
C186   C     0.20708   0.36555   0.88135   0.00000  Uiso   1.00
C187   C     0.24199   0.38524   0.97760   0.00000  Uiso   1.00
C188   C     0.27694   0.40495   0.88148   0.00000  Uiso   1.00
C189   C     0.34141   0.44133   0.78842   0.00000  Uiso   1.00
C190   C     0.12451   0.36639   0.88141   0.00000  Uiso   1.00
C191   C     0.09001   0.38679   0.97772   0.00000  Uiso   1.00
C192   C     0.05546   0.40721   0.88164   0.00000  Uiso   1.00
C193   C     0.99173   0.44487   0.78868   0.00000  Uiso   1.00
C194   C     0.16506   0.29447   0.88136   0.00000  Uiso   1.00
C195   C     0.16463   0.25439   0.97763   0.00000  Uiso   1.00
C196   C     0.16420   0.21426   0.88151   0.00000  Uiso   1.00
C197   C     0.16342   0.14024   0.78848   0.00000  Uiso   1.00
C198   C     0.16554   0.34214   0.61759   0.00000  Uiso   1.00
C199   C     0.20706   0.36555   0.69565   0.00000  Uiso   1.00
C200   C     0.24197   0.38524   0.59935   0.00000  Uiso   1.00
C201   C     0.27694   0.40496   0.69545   0.00000  Uiso   1.00
C202   C     0.12450   0.36640   0.69572   0.00000  Uiso   1.00
C203   C     0.08999   0.38680   0.59947   0.00000  Uiso   1.00
C204   C     0.05545   0.40722   0.69561   0.00000  Uiso   1.00
C205   C     0.16505   0.29447   0.69566   0.00000  Uiso   1.00
C206   C     0.16461   0.25440   0.59937   0.00000  Uiso   1.00
C207   C     0.16419   0.21426   0.69547   0.00000  Uiso   1.00
H208   H     0.16556   0.34213   0.10404   0.00000  Uiso   1.00
H209   H     0.24199   0.38523   0.12132   0.00000  Uiso   1.00
H210   H     0.09003   0.38678   0.12142   0.00000  Uiso   1.00
H211   H     0.16464   0.25440   0.12133   0.00000  Uiso   1.00
H212   H     0.32671   0.43303   0.05857   0.00000  Uiso   1.00
H213   H     0.00628   0.43628   0.05881   0.00000  Uiso   1.00
H214   H     0.16362   0.15713   0.05861   0.00000  Uiso   1.00
H215   H     0.16553   0.34214   0.47300   0.00000  Uiso   1.00
H216   H     0.24196   0.38524   0.45565   0.00000  Uiso   1.00
H217   H     0.08999   0.38679   0.45576   0.00000  Uiso   1.00
H218   H     0.16461   0.25441   0.45567   0.00000  Uiso   1.00
H219   H     0.32668   0.43304   0.51829   0.00000  Uiso   1.00
H220   H     0.00626   0.43628   0.51853   0.00000  Uiso   1.00
H221   H     0.16359   0.15714   0.51833   0.00000  Uiso   1.00
O222   O     0.37696   0.46140   0.78840   0.00000  Uiso   1.00
O223   O     0.95658   0.46565   0.78871   0.00000  Uiso   1.00
O224   O     0.16299   0.09942   0.78846   0.00000  Uiso   1.00
N225   N     0.31622   0.42711   0.93380   0.00000  Uiso   1.00
N226   N     0.01664   0.43015   0.93402   0.00000  Uiso   1.00
N227   N     0.16372   0.16917   0.93384   0.00000  Uiso   1.00
N228   N     0.31620   0.42711   0.64308   0.00000  Uiso   1.00
N229   N     0.01663   0.43016   0.64330   0.00000  Uiso   1.00
N230   N     0.16371   0.16918   0.64312   0.00000  Uiso   1.00
C231   C     0.66555   0.84213   0.45947   0.00000  Uiso   1.00
C232   C     0.70708   0.86555   0.38135   0.00000  Uiso   1.00
C233   C     0.74199   0.88524   0.47760   0.00000  Uiso   1.00
C234   C     0.77694   0.90495   0.38148   0.00000  Uiso   1.00
C235   C     0.84141   0.94133   0.28842   0.00000  Uiso   1.00
C236   C     0.62451   0.86639   0.38141   0.00000  Uiso   1.00
C237   C     0.59001   0.88679   0.47772   0.00000  Uiso   1.00
C238   C     0.55546   0.90721   0.38164   0.00000  Uiso   1.00
C239   C     0.49173   0.94487   0.28868   0.00000  Uiso   1.00
C240   C     0.66506   0.79447   0.38136   0.00000  Uiso   1.00
C241   C     0.66463   0.75439   0.47763   0.00000  Uiso   1.00
C242   C     0.66420   0.71426   0.38151   0.00000  Uiso   1.00
C243   C     0.66342   0.64024   0.28848   0.00000  Uiso   1.00
C244   C     0.66554   0.84214   0.11759   0.00000  Uiso   1.00
C245   C     0.70706   0.86555   0.19565   0.00000  Uiso   1.00
C246   C     0.74197   0.88524   0.09935   0.00000  Uiso   1.00
C247   C     0.77694   0.90496   0.19545   0.00000  Uiso   1.00
C248   C     0.62450   0.86640   0.19572   0.00000  Uiso   1.00
C249   C     0.58999   0.88680   0.09947   0.00000  Uiso   1.00
C250   C     0.55545   0.90722   0.19561   0.00000  Uiso   1.00
C251   C     0.66505   0.79447   0.19566   0.00000  Uiso   1.00
C252   C     0.66461   0.75440   0.09937   0.00000  Uiso   1.00
C253   C     0.66419   0.71426   0.19547   0.00000  Uiso   1.00
H254   H     0.66556   0.84213   0.60404   0.00000  Uiso   1.00
H255   H     0.74199   0.88523   0.62132   0.00000  Uiso   1.00
H256   H     0.59003   0.88678   0.62142   0.00000  Uiso   1.00
H257   H     0.66464   0.75440   0.62133   0.00000  Uiso   1.00
H258   H     0.82671   0.93303   0.55857   0.00000  Uiso   1.00
H259   H     0.50628   0.93628   0.55881   0.00000  Uiso   1.00
H260   H     0.66362   0.65713   0.55861   0.00000  Uiso   1.00
H261   H     0.66553   0.84214   0.97300   0.00000  Uiso   1.00
H262   H     0.74196   0.88524   0.95565   0.00000  Uiso   1.00
H263   H     0.58999   0.88679   0.95576   0.00000  Uiso   1.00
H264   H     0.66461   0.75441   0.95567   0.00000  Uiso   1.00
H265   H     0.82668   0.93304   0.01829   0.00000  Uiso   1.00
H266   H     0.50626   0.93628   0.01853   0.00000  Uiso   1.00
H267   H     0.66359   0.65714   0.01833   0.00000  Uiso   1.00
O268   O     0.87696   0.96140   0.28840   0.00000  Uiso   1.00
O269   O     0.45658   0.96565   0.28871   0.00000  Uiso   1.00
O270   O     0.66299   0.59942   0.28846   0.00000  Uiso   1.00
N271   N     0.81622   0.92711   0.43380   0.00000  Uiso   1.00
N272   N     0.51664   0.93015   0.43402   0.00000  Uiso   1.00
N273   N     0.66372   0.66917   0.43384   0.00000  Uiso   1.00
N274   N     0.81620   0.92711   0.14308   0.00000  Uiso   1.00
N275   N     0.51663   0.93016   0.14330   0.00000  Uiso   1.00
N276   N     0.66371   0.66918   0.14312   0.00000  Uiso   1.00
C277   C     0.83445   0.65787   0.95947   0.00000  Uiso   1.00
C278   C     0.79292   0.63445   0.88135   0.00000  Uiso   1.00
C279   C     0.75801   0.61476   0.97760   0.00000  Uiso   1.00
C280   C     0.72306   0.59505   0.88148   0.00000  Uiso   1.00
C281   C     0.65859   0.55867   0.78842   0.00000  Uiso   1.00
C282   C     0.87549   0.63361   0.88141   0.00000  Uiso   1.00
C283   C     0.90999   0.61321   0.97772   0.00000  Uiso   1.00
C284   C     0.94454   0.59279   0.88164   0.00000  Uiso   1.00
C285   C     0.00827   0.55513   0.78868   0.00000  Uiso   1.00
C286   C     0.83494   0.70553   0.88136   0.00000  Uiso   1.00
C287   C     0.83537   0.74561   0.97763   0.00000  Uiso   1.00
C288   C     0.83580   0.78574   0.88151   0.00000  Uiso   1.00
C289   C     0.83658   0.85976   0.78848   0.00000  Uiso   1.00
C290   C     0.83446   0.65786   0.61759   0.00000  Uiso   1.00
C291   C     0.79294   0.63445   0.69565   0.00000  Uiso   1.00
C292   C     0.75803   0.61476   0.59935   0.00000  Uiso   1.00
C293   C     0.72306   0.59504   0.69545   0.00000  Uiso   1.00
C294   C     0.87550   0.63360   0.69572   0.00000  Uiso   1.00
C295   C     0.91001   0.61320   0.59947   0.00000  Uiso   1.00
C296   C     0.94455   0.59278   0.69561   0.00000  Uiso   1.00
C297   C     0.83495   0.70553   0.69566   0.00000  Uiso   1.00
C298   C     0.83539   0.74560   0.59937   0.00000  Uiso   1.00
C299   C     0.83581   0.78574   0.69547   0.00000  Uiso   1.00
H300   H     0.83444   0.65787   0.10404   0.00000  Uiso   1.00
H301   H     0.75801   0.61477   0.12132   0.00000  Uiso   1.00
H302   H     0.90997   0.61322   0.12142   0.00000  Uiso   1.00
H303   H     0.83536   0.74560   0.12133   0.00000  Uiso   1.00
H304   H     0.67329   0.56697   0.05857   0.00000  Uiso   1.00
H305   H     0.99372   0.56372   0.05881   0.00000  Uiso   1.00
H306   H     0.83638   0.84287   0.05861   0.00000  Uiso   1.00
H307   H     0.83447   0.65786   0.47300   0.00000  Uiso   1.00
H308   H     0.75804   0.61476   0.45565   0.00000  Uiso   1.00
H309   H     0.91001   0.61321   0.45576   0.00000  Uiso   1.00
H310   H     0.83539   0.74559   0.45567   0.00000  Uiso   1.00
H311   H     0.67332   0.56696   0.51829   0.00000  Uiso   1.00
H312   H     0.99374   0.56372   0.51853   0.00000  Uiso   1.00
H313   H     0.83641   0.84286   0.51833   0.00000  Uiso   1.00
O314   O     0.62304   0.53860   0.78840   0.00000  Uiso   1.00
O315   O     0.04342   0.53435   0.78871   0.00000  Uiso   1.00
O316   O     0.83701   0.90058   0.78846   0.00000  Uiso   1.00
N317   N     0.68378   0.57289   0.93380   0.00000  Uiso   1.00
N318   N     0.98336   0.56985   0.93402   0.00000  Uiso   1.00
N319   N     0.83628   0.83083   0.93384   0.00000  Uiso   1.00
N320   N     0.68380   0.57289   0.64308   0.00000  Uiso   1.00
N321   N     0.98337   0.56984   0.64330   0.00000  Uiso   1.00
N322   N     0.83629   0.83082   0.64312   0.00000  Uiso   1.00
C323   C     0.33445   0.15787   0.45947   0.00000  Uiso   1.00
C324   C     0.29292   0.13445   0.38135   0.00000  Uiso   1.00
C325   C     0.25801   0.11476   0.47760   0.00000  Uiso   1.00
C326   C     0.22306   0.09505   0.38148   0.00000  Uiso   1.00
C327   C     0.15859   0.05867   0.28842   0.00000  Uiso   1.00
C328   C     0.37549   0.13361   0.38141   0.00000  Uiso   1.00
C329   C     0.40999   0.11321   0.47772   0.00000  Uiso   1.00
C330   C     0.44454   0.09279   0.38164   0.00000  Uiso   1.00
C331   C     0.50827   0.05513   0.28868   0.00000  Uiso   1.00
C332   C     0.33494   0.20553   0.38136   0.00000  Uiso   1.00
C333   C     0.33537   0.24561   0.47763   0.00000  Uiso   1.00
C334   C     0.33580   0.28574   0.38151   0.00000  Uiso   1.00
C335   C     0.33658   0.35976   0.28848   0.00000  Uiso   1.00
C336   C     0.33446   0.15786   0.11759   0.00000  Uiso   1.00
C337   C     0.29294   0.13445   0.19565   0.00000  Uiso   1.00
C338   C     0.25803   0.11476   0.09935   0.00000  Uiso   1.00
C339   C     0.22306   0.09504   0.19545   0.00000  Uiso   1.00
C340   C     0.37550   0.13360   0.19572   0.00000  Uiso   1.00
C341   C     0.41001   0.11320   0.09947   0.00000  Uiso   1.00
C342   C     0.44455   0.09278   0.19561   0.00000  Uiso   1.00
C343   C     0.33495   0.20553   0.19566   0.00000  Uiso   1.00
C344   C     0.33539   0.24560   0.09937   0.00000  Uiso   1.00
C345   C     0.33581   0.28574   0.19547   0.00000  Uiso   1.00
H346   H     0.33444   0.15787   0.60404   0.00000  Uiso   1.00
H347   H     0.25801   0.11477   0.62132   0.00000  Uiso   1.00
H348   H     0.40997   0.11322   0.62142   0.00000  Uiso   1.00
H349   H     0.33536   0.24560   0.62133   0.00000  Uiso   1.00
H350   H     0.17329   0.06697   0.55857   0.00000  Uiso   1.00
H351   H     0.49372   0.06372   0.55881   0.00000  Uiso   1.00
H352   H     0.33638   0.34287   0.55861   0.00000  Uiso   1.00
H353   H     0.33447   0.15786   0.97300   0.00000  Uiso   1.00
H354   H     0.25804   0.11476   0.95565   0.00000  Uiso   1.00
H355   H     0.41001   0.11321   0.95576   0.00000  Uiso   1.00
H356   H     0.33539   0.24559   0.95567   0.00000  Uiso   1.00
H357   H     0.17332   0.06696   0.01829   0.00000  Uiso   1.00
H358   H     0.49374   0.06372   0.01853   0.00000  Uiso   1.00
H359   H     0.33641   0.34286   0.01833   0.00000  Uiso   1.00
O360   O     0.12304   0.03860   0.28840   0.00000  Uiso   1.00
O361   O     0.54342   0.03435   0.28871   0.00000  Uiso   1.00
O362   O     0.33701   0.40058   0.28846   0.00000  Uiso   1.00
N363   N     0.18378   0.07289   0.43380   0.00000  Uiso   1.00
N364   N     0.48336   0.06985   0.43402   0.00000  Uiso   1.00
N365   N     0.33628   0.33083   0.43384   0.00000  Uiso   1.00
N366   N     0.18380   0.07289   0.14308   0.00000  Uiso   1.00
N367   N     0.48337   0.06984   0.14330   0.00000  Uiso   1.00
N368   N     0.33629   0.33082   0.14312   0.00000  Uiso   1.00
