data_job_00912
_audit_creation_date              2018-12-19
_audit_creation_method            'Materials Studio'
_symmetry_space_group_name_H-M    'P1'
_symmetry_Int_Tables_number       1
_symmetry_cell_setting            triclinic
loop_
_symmetry_equiv_pos_as_xyz
  x,y,z
_cell_length_a                    12.8042
_cell_length_b                    11.4569
_cell_length_c                    22.5037
_cell_angle_alpha                 90.0000
_cell_angle_beta                  130.9200
_cell_angle_gamma                 90.0000
loop_
_atom_site_label
_atom_site_type_symbol
_atom_site_fract_x
_atom_site_fract_y
_atom_site_fract_z
_atom_site_U_iso_or_equiv
_atom_site_adp_type
_atom_site_occupancy
C1     C     0.29090   0.32961   0.53370   0.00000  Uiso   1.00
C2     C     0.28514   0.21559   0.56642   0.00000  Uiso   1.00
C3     C     0.33363   0.19901   0.64191   0.00000  Uiso   1.00
C4     C     0.31882   0.08814   0.66047   0.00000  Uiso   1.00
C5     C     0.31925   0.92490   0.71966   0.00000  Uiso   1.00
C6     C     0.36803   0.30203   0.50504   0.00000  Uiso   1.00
C7     C     0.48619   0.35815   0.52891   0.00000  Uiso   1.00
C8     C     0.54113   0.32006   0.49579   0.00000  Uiso   1.00
C9     C     0.67017   0.29109   0.45965   0.00000  Uiso   1.00
C10    C     0.14241   0.35649   0.46023   0.00000  Uiso   1.00
C11    C     0.07088   0.45842   0.44641   0.00000  Uiso   1.00
C12    C     0.93588   0.46619   0.37555   0.00000  Uiso   1.00
C13    C     0.71462   0.52178   0.26982   0.00000  Uiso   1.00
C14    C     0.17836   0.16220   0.43241   0.00000  Uiso   1.00
C15    C     0.22402   0.12465   0.51141   0.00000  Uiso   1.00
C16    C     0.20912   0.01378   0.52985   0.00000  Uiso   1.00
C17    C     0.25758   0.99704   0.60536   0.00000  Uiso   1.00
C18    C     0.30691   0.21110   0.45003   0.00000  Uiso   1.00
C19    C     0.36168   0.17293   0.41686   0.00000  Uiso   1.00
C20    C     0.47989   0.22896   0.44068   0.00000  Uiso   1.00
C21    C     0.08128   0.26556   0.40521   0.00000  Uiso   1.00
C22    C     0.94637   0.27319   0.33435   0.00000  Uiso   1.00
C23    C     0.87464   0.37510   0.32043   0.00000  Uiso   1.00
H24    H     0.33849   0.40041   0.57652   0.00000  Uiso   1.00
H25    H     0.38094   0.26940   0.68447   0.00000  Uiso   1.00
H26    H     0.53346   0.42852   0.57148   0.00000  Uiso   1.00
H27    H     0.11822   0.52876   0.48899   0.00000  Uiso   1.00
H28    H     0.40110   0.08403   0.77990   0.00000  Uiso   1.00
H29    H     0.72266   0.41958   0.54164   0.00000  Uiso   1.00
H30    H     0.84704   0.63098   0.36769   0.00000  Uiso   1.00
H31    H     0.13077   0.09141   0.38958   0.00000  Uiso   1.00
H32    H     0.16181   0.94343   0.48727   0.00000  Uiso   1.00
H33    H     0.31434   0.10256   0.37428   0.00000  Uiso   1.00
H34    H     0.89910   0.20280   0.29180   0.00000  Uiso   1.00
H35    H     0.22325   0.81947   0.61984   0.00000  Uiso   1.00
H36    H     0.54482   0.15502   0.38158   0.00000  Uiso   1.00
H37    H     0.66920   0.36641   0.20764   0.00000  Uiso   1.00
O38    O     0.33639   0.85997   0.76751   0.00000  Uiso   1.00
O39    O     0.75825   0.30022   0.45492   0.00000  Uiso   1.00
O40    O     0.60946   0.57756   0.22671   0.00000  Uiso   1.00
N41    N     0.35495   0.04208   0.72882   0.00000  Uiso   1.00
N42    N     0.65561   0.35579   0.50607   0.00000  Uiso   1.00
N43    N     0.83699   0.55343   0.34343   0.00000  Uiso   1.00
N44    N     0.25925   0.89972   0.64269   0.00000  Uiso   1.00
N45    N     0.55991   0.21343   0.41994   0.00000  Uiso   1.00
N46    N     0.74130   0.41107   0.25731   0.00000  Uiso   1.00
C47    C     0.70910   0.32961   0.96630   0.00000  Uiso   1.00
C48    C     0.71486   0.21559   0.93358   0.00000  Uiso   1.00
C49    C     0.66637   0.19901   0.85809   0.00000  Uiso   1.00
C50    C     0.68118   0.08814   0.83953   0.00000  Uiso   1.00
C51    C     0.68075   0.92490   0.78034   0.00000  Uiso   1.00
C52    C     0.63197   0.30203   0.99496   0.00000  Uiso   1.00
C53    C     0.51381   0.35815   0.97109   0.00000  Uiso   1.00
C54    C     0.45887   0.32006   0.00421   0.00000  Uiso   1.00
C55    C     0.32983   0.29109   0.04035   0.00000  Uiso   1.00
C56    C     0.85759   0.35649   0.03977   0.00000  Uiso   1.00
C57    C     0.92912   0.45842   0.05359   0.00000  Uiso   1.00
C58    C     0.06412   0.46619   0.12445   0.00000  Uiso   1.00
C59    C     0.28538   0.52178   0.23018   0.00000  Uiso   1.00
C60    C     0.82164   0.16220   0.06759   0.00000  Uiso   1.00
C61    C     0.77598   0.12465   0.98859   0.00000  Uiso   1.00
C62    C     0.79088   0.01378   0.97015   0.00000  Uiso   1.00
C63    C     0.74242   0.99704   0.89464   0.00000  Uiso   1.00
C64    C     0.69309   0.21110   0.04997   0.00000  Uiso   1.00
C65    C     0.63832   0.17293   0.08314   0.00000  Uiso   1.00
C66    C     0.52011   0.22896   0.05932   0.00000  Uiso   1.00
C67    C     0.91872   0.26556   0.09479   0.00000  Uiso   1.00
C68    C     0.05363   0.27319   0.16565   0.00000  Uiso   1.00
C69    C     0.12536   0.37510   0.17957   0.00000  Uiso   1.00
H70    H     0.66151   0.40041   0.92348   0.00000  Uiso   1.00
H71    H     0.61906   0.26940   0.81553   0.00000  Uiso   1.00
H72    H     0.46654   0.42852   0.92852   0.00000  Uiso   1.00
H73    H     0.88178   0.52876   0.01101   0.00000  Uiso   1.00
H74    H     0.59890   0.08403   0.72010   0.00000  Uiso   1.00
H75    H     0.27734   0.41958   0.95836   0.00000  Uiso   1.00
H76    H     0.15296   0.63098   0.13231   0.00000  Uiso   1.00
H77    H     0.86923   0.09141   0.11042   0.00000  Uiso   1.00
H78    H     0.83819   0.94343   0.01273   0.00000  Uiso   1.00
H79    H     0.68566   0.10256   0.12572   0.00000  Uiso   1.00
H80    H     0.10090   0.20280   0.20820   0.00000  Uiso   1.00
H81    H     0.77675   0.81947   0.88016   0.00000  Uiso   1.00
H82    H     0.45518   0.15502   0.11842   0.00000  Uiso   1.00
H83    H     0.33080   0.36641   0.29236   0.00000  Uiso   1.00
O84    O     0.66361   0.85997   0.73249   0.00000  Uiso   1.00
O85    O     0.24175   0.30022   0.04508   0.00000  Uiso   1.00
O86    O     0.39054   0.57756   0.27329   0.00000  Uiso   1.00
N87    N     0.64505   0.04208   0.77118   0.00000  Uiso   1.00
N88    N     0.34439   0.35579   0.99393   0.00000  Uiso   1.00
N89    N     0.16301   0.55343   0.15657   0.00000  Uiso   1.00
N90    N     0.74075   0.89972   0.85731   0.00000  Uiso   1.00
N91    N     0.44009   0.21343   0.08006   0.00000  Uiso   1.00
N92    N     0.25870   0.41107   0.24269   0.00000  Uiso   1.00
C93    C     0.70910   0.67039   0.46630   0.00000  Uiso   1.00
C94    C     0.71486   0.78441   0.43358   0.00000  Uiso   1.00
C95    C     0.66637   0.80099   0.35809   0.00000  Uiso   1.00
C96    C     0.68118   0.91186   0.33953   0.00000  Uiso   1.00
C97    C     0.68075   0.07510   0.28034   0.00000  Uiso   1.00
C98    C     0.63197   0.69797   0.49496   0.00000  Uiso   1.00
C99    C     0.51381   0.64185   0.47109   0.00000  Uiso   1.00
C100   C     0.45887   0.67994   0.50421   0.00000  Uiso   1.00
C101   C     0.32983   0.70891   0.54035   0.00000  Uiso   1.00
C102   C     0.85759   0.64351   0.53977   0.00000  Uiso   1.00
C103   C     0.92912   0.54158   0.55359   0.00000  Uiso   1.00
C104   C     0.06412   0.53381   0.62445   0.00000  Uiso   1.00
C105   C     0.28538   0.47822   0.73018   0.00000  Uiso   1.00
C106   C     0.82164   0.83780   0.56759   0.00000  Uiso   1.00
C107   C     0.77598   0.87535   0.48859   0.00000  Uiso   1.00
C108   C     0.79088   0.98622   0.47015   0.00000  Uiso   1.00
C109   C     0.74242   0.00296   0.39464   0.00000  Uiso   1.00
C110   C     0.69309   0.78890   0.54997   0.00000  Uiso   1.00
C111   C     0.63832   0.82707   0.58314   0.00000  Uiso   1.00
C112   C     0.52011   0.77104   0.55932   0.00000  Uiso   1.00
C113   C     0.91872   0.73444   0.59479   0.00000  Uiso   1.00
C114   C     0.05363   0.72681   0.66565   0.00000  Uiso   1.00
C115   C     0.12536   0.62490   0.67957   0.00000  Uiso   1.00
H116   H     0.66151   0.59959   0.42348   0.00000  Uiso   1.00
H117   H     0.61906   0.73060   0.31553   0.00000  Uiso   1.00
H118   H     0.46654   0.57148   0.42852   0.00000  Uiso   1.00
H119   H     0.88178   0.47124   0.51101   0.00000  Uiso   1.00
H120   H     0.59890   0.91597   0.22010   0.00000  Uiso   1.00
H121   H     0.27734   0.58042   0.45836   0.00000  Uiso   1.00
H122   H     0.15296   0.36902   0.63231   0.00000  Uiso   1.00
H123   H     0.86923   0.90859   0.61042   0.00000  Uiso   1.00
H124   H     0.83819   0.05657   0.51273   0.00000  Uiso   1.00
H125   H     0.68566   0.89744   0.62572   0.00000  Uiso   1.00
H126   H     0.10090   0.79720   0.70820   0.00000  Uiso   1.00
H127   H     0.77675   0.18053   0.38016   0.00000  Uiso   1.00
H128   H     0.45518   0.84498   0.61842   0.00000  Uiso   1.00
H129   H     0.33080   0.63359   0.79236   0.00000  Uiso   1.00
O130   O     0.66361   0.14003   0.23249   0.00000  Uiso   1.00
O131   O     0.24175   0.69978   0.54508   0.00000  Uiso   1.00
O132   O     0.39054   0.42244   0.77329   0.00000  Uiso   1.00
N133   N     0.64505   0.95792   0.27118   0.00000  Uiso   1.00
N134   N     0.34439   0.64421   0.49393   0.00000  Uiso   1.00
N135   N     0.16301   0.44657   0.65657   0.00000  Uiso   1.00
N136   N     0.74075   0.10028   0.35731   0.00000  Uiso   1.00
N137   N     0.44009   0.78657   0.58006   0.00000  Uiso   1.00
N138   N     0.25870   0.58893   0.74269   0.00000  Uiso   1.00
C139   C     0.29090   0.67039   0.03370   0.00000  Uiso   1.00
C140   C     0.28514   0.78441   0.06642   0.00000  Uiso   1.00
C141   C     0.33363   0.80099   0.14191   0.00000  Uiso   1.00
C142   C     0.31882   0.91186   0.16047   0.00000  Uiso   1.00
C143   C     0.31925   0.07510   0.21966   0.00000  Uiso   1.00
C144   C     0.36803   0.69797   0.00504   0.00000  Uiso   1.00
C145   C     0.48619   0.64185   0.02891   0.00000  Uiso   1.00
C146   C     0.54113   0.67994   0.99579   0.00000  Uiso   1.00
C147   C     0.67017   0.70891   0.95965   0.00000  Uiso   1.00
C148   C     0.14241   0.64351   0.96023   0.00000  Uiso   1.00
C149   C     0.07088   0.54158   0.94641   0.00000  Uiso   1.00
C150   C     0.93588   0.53381   0.87555   0.00000  Uiso   1.00
C151   C     0.71462   0.47822   0.76982   0.00000  Uiso   1.00
C152   C     0.17836   0.83780   0.93241   0.00000  Uiso   1.00
C153   C     0.22402   0.87535   0.01141   0.00000  Uiso   1.00
C154   C     0.20912   0.98622   0.02985   0.00000  Uiso   1.00
C155   C     0.25758   0.00296   0.10536   0.00000  Uiso   1.00
C156   C     0.30691   0.78890   0.95003   0.00000  Uiso   1.00
C157   C     0.36168   0.82707   0.91686   0.00000  Uiso   1.00
C158   C     0.47989   0.77104   0.94068   0.00000  Uiso   1.00
C159   C     0.08128   0.73444   0.90521   0.00000  Uiso   1.00
C160   C     0.94637   0.72681   0.83435   0.00000  Uiso   1.00
C161   C     0.87464   0.62490   0.82043   0.00000  Uiso   1.00
H162   H     0.33849   0.59959   0.07652   0.00000  Uiso   1.00
H163   H     0.38094   0.73060   0.18447   0.00000  Uiso   1.00
H164   H     0.53346   0.57148   0.07148   0.00000  Uiso   1.00
H165   H     0.11822   0.47124   0.98899   0.00000  Uiso   1.00
H166   H     0.40110   0.91597   0.27990   0.00000  Uiso   1.00
H167   H     0.72266   0.58042   0.04164   0.00000  Uiso   1.00
H168   H     0.84704   0.36902   0.86769   0.00000  Uiso   1.00
H169   H     0.13077   0.90859   0.88958   0.00000  Uiso   1.00
H170   H     0.16181   0.05657   0.98727   0.00000  Uiso   1.00
H171   H     0.31434   0.89744   0.87428   0.00000  Uiso   1.00
H172   H     0.89910   0.79720   0.79180   0.00000  Uiso   1.00
H173   H     0.22325   0.18053   0.11984   0.00000  Uiso   1.00
H174   H     0.54482   0.84498   0.88158   0.00000  Uiso   1.00
H175   H     0.66920   0.63359   0.70764   0.00000  Uiso   1.00
O176   O     0.33639   0.14003   0.26751   0.00000  Uiso   1.00
O177   O     0.75825   0.69978   0.95492   0.00000  Uiso   1.00
O178   O     0.60946   0.42244   0.72671   0.00000  Uiso   1.00
N179   N     0.35495   0.95792   0.22882   0.00000  Uiso   1.00
N180   N     0.65561   0.64421   0.00607   0.00000  Uiso   1.00
N181   N     0.83699   0.44657   0.84343   0.00000  Uiso   1.00
N182   N     0.25925   0.10028   0.14269   0.00000  Uiso   1.00
N183   N     0.55991   0.78657   0.91994   0.00000  Uiso   1.00
N184   N     0.74130   0.58893   0.75731   0.00000  Uiso   1.00
