data_job_06777
_audit_creation_date              2018-12-19
_audit_creation_method            'Materials Studio'
_symmetry_space_group_name_H-M    'P1'
_symmetry_Int_Tables_number       1
_symmetry_cell_setting            triclinic
loop_
_symmetry_equiv_pos_as_xyz
  x,y,z
_cell_length_a                    17.2891
_cell_length_b                    22.7493
_cell_length_c                    22.8012
_cell_angle_alpha                 118.3996
_cell_angle_beta                  99.8203
_cell_angle_gamma                 92.4713
loop_
_atom_site_label
_atom_site_type_symbol
_atom_site_fract_x
_atom_site_fract_y
_atom_site_fract_z
_atom_site_U_iso_or_equiv
_atom_site_adp_type
_atom_site_occupancy
C1     C     0.23594   0.61494   0.64140   0.00000  Uiso   1.00
C2     C     0.18742   0.58557   0.56863   0.00000  Uiso   1.00
C3     C     0.21801   0.56508   0.51051   0.00000  Uiso   1.00
C4     C     0.16378   0.53958   0.44868   0.00000  Uiso   1.00
C5     C     0.10089   0.49473   0.33622   0.00000  Uiso   1.00
C6     C     0.20943   0.68320   0.68268   0.00000  Uiso   1.00
C7     C     0.25854   0.74480   0.72045   0.00000  Uiso   1.00
C8     C     0.22283   0.80148   0.75463   0.00000  Uiso   1.00
C9     C     0.19413   0.90820   0.81927   0.00000  Uiso   1.00
C10    C     0.20768   0.56999   0.66846   0.00000  Uiso   1.00
C11    C     0.25532   0.53641   0.69431   0.00000  Uiso   1.00
C12    C     0.21815   0.49779   0.71653   0.00000  Uiso   1.00
C13    C     0.18674   0.42873   0.75910   0.00000  Uiso   1.00
C14    C     0.08522   0.60608   0.63493   0.00000  Uiso   1.00
C15    C     0.10556   0.58076   0.56512   0.00000  Uiso   1.00
C16    C     0.05126   0.55527   0.50336   0.00000  Uiso   1.00
C17    C     0.08177   0.53475   0.44516   0.00000  Uiso   1.00
C18    C     0.12757   0.67839   0.67916   0.00000  Uiso   1.00
C19    C     0.09179   0.73499   0.71329   0.00000  Uiso   1.00
C20    C     0.14082   0.79666   0.75111   0.00000  Uiso   1.00
C21    C     0.12582   0.56517   0.66495   0.00000  Uiso   1.00
C22    C     0.08857   0.52660   0.68714   0.00000  Uiso   1.00
C23    C     0.13614   0.49296   0.71301   0.00000  Uiso   1.00
H24    H     0.29967   0.61870   0.64414   0.00000  Uiso   1.00
H25    H     0.28137   0.56882   0.51325   0.00000  Uiso   1.00
H26    H     0.32189   0.74851   0.72316   0.00000  Uiso   1.00
H27    H     0.31867   0.54015   0.69702   0.00000  Uiso   1.00
H28    H     0.22497   0.51143   0.36660   0.00000  Uiso   1.00
H29    H     0.31041   0.89030   0.80922   0.00000  Uiso   1.00
H30    H     0.30363   0.45094   0.75409   0.00000  Uiso   1.00
H31    H     0.02149   0.60233   0.63220   0.00000  Uiso   1.00
H32    H     0.98791   0.55155   0.50065   0.00000  Uiso   1.00
H33    H     0.02844   0.73124   0.71057   0.00000  Uiso   1.00
H34    H     0.02522   0.52288   0.68442   0.00000  Uiso   1.00
H35    H     0.98680   0.49741   0.35637   0.00000  Uiso   1.00
H36    H     0.07224   0.87629   0.79900   0.00000  Uiso   1.00
H37    H     0.06545   0.43692   0.74386   0.00000  Uiso   1.00
O38    O     0.08882   0.47133   0.27517   0.00000  Uiso   1.00
O39    O     0.20092   0.96840   0.85589   0.00000  Uiso   1.00
O40    O     0.19202   0.39196   0.78355   0.00000  Uiso   1.00
N41    N     0.17353   0.51508   0.38224   0.00000  Uiso   1.00
N42    N     0.25340   0.86931   0.79606   0.00000  Uiso   1.00
N43    N     0.24707   0.45856   0.74453   0.00000  Uiso   1.00
N44    N     0.04536   0.50754   0.37674   0.00000  Uiso   1.00
N45    N     0.12524   0.86177   0.79056   0.00000  Uiso   1.00
N46    N     0.11891   0.45102   0.73903   0.00000  Uiso   1.00
C47    C     0.91614   0.71652   0.34675   0.00000  Uiso   1.00
C48    C     0.98183   0.77049   0.35878   0.00000  Uiso   1.00
C49    C     0.04930   0.75866   0.33179   0.00000  Uiso   1.00
C50    C     0.10232   0.81481   0.34889   0.00000  Uiso   1.00
C51    C     0.20647   0.88862   0.36113   0.00000  Uiso   1.00
C52    C     0.90951   0.72854   0.41733   0.00000  Uiso   1.00
C53    C     0.91614   0.68143   0.43957   0.00000  Uiso   1.00
C54    C     0.90827   0.70228   0.50595   0.00000  Uiso   1.00
C55    C     0.90007   0.71095   0.60908   0.00000  Uiso   1.00
C56    C     0.83941   0.73330   0.31783   0.00000  Uiso   1.00
C57    C     0.78709   0.69019   0.25641   0.00000  Uiso   1.00
C58    C     0.72018   0.71504   0.23903   0.00000  Uiso   1.00
C59    C     0.60315   0.73111   0.18766   0.00000  Uiso   1.00
C60    C     0.89034   0.83729   0.42510   0.00000  Uiso   1.00
C61    C     0.96782   0.83608   0.40134   0.00000  Uiso   1.00
C62    C     0.02074   0.89227   0.41848   0.00000  Uiso   1.00
C63    C     0.08827   0.88053   0.39152   0.00000  Uiso   1.00
C64    C     0.89549   0.79413   0.45989   0.00000  Uiso   1.00
C65    C     0.88759   0.81505   0.52626   0.00000  Uiso   1.00
C66    C     0.89422   0.76799   0.54859   0.00000  Uiso   1.00
C67    C     0.82539   0.79890   0.36039   0.00000  Uiso   1.00
C68    C     0.75854   0.82381   0.34310   0.00000  Uiso   1.00
C69    C     0.70614   0.78076   0.28167   0.00000  Uiso   1.00
H70    H     0.92706   0.66545   0.31362   0.00000  Uiso   1.00
H71    H     0.06013   0.70788   0.29886   0.00000  Uiso   1.00
H72    H     0.92699   0.63067   0.40662   0.00000  Uiso   1.00
H73    H     0.79796   0.63944   0.22349   0.00000  Uiso   1.00
H74    H     0.20149   0.78385   0.30129   0.00000  Uiso   1.00
H75    H     0.92073   0.62104   0.52850   0.00000  Uiso   1.00
H76    H     0.64865   0.63952   0.14233   0.00000  Uiso   1.00
H77    H     0.87942   0.88836   0.45824   0.00000  Uiso   1.00
H78    H     0.00988   0.94303   0.45142   0.00000  Uiso   1.00
H79    H     0.87674   0.86581   0.55918   0.00000  Uiso   1.00
H80    H     0.74771   0.87458   0.37605   0.00000  Uiso   1.00
H81    H     0.16072   0.97470   0.42512   0.00000  Uiso   1.00
H82    H     0.87995   0.81189   0.65232   0.00000  Uiso   1.00
H83    H     0.60787   0.83037   0.26616   0.00000  Uiso   1.00
O84    O     0.26780   0.91122   0.35613   0.00000  Uiso   1.00
O85    O     0.89943   0.69761   0.65420   0.00000  Uiso   1.00
O86    O     0.54247   0.72185   0.14757   0.00000  Uiso   1.00
N87    N     0.17399   0.82127   0.33136   0.00000  Uiso   1.00
N88    N     0.91150   0.66905   0.54379   0.00000  Uiso   1.00
N89    N     0.65711   0.68632   0.18276   0.00000  Uiso   1.00
N90    N     0.15204   0.92396   0.39799   0.00000  Uiso   1.00
N91    N     0.88956   0.77175   0.61041   0.00000  Uiso   1.00
N92    N     0.63517   0.78902   0.24939   0.00000  Uiso   1.00
C93    C     0.36767   0.11893   0.87832   0.00000  Uiso   1.00
C94    C     0.39677   0.05529   0.87496   0.00000  Uiso   1.00
C95    C     0.42476   0.00623   0.82131   0.00000  Uiso   1.00
C96    C     0.44859   0.95181   0.82800   0.00000  Uiso   1.00
C97    C     0.49436   0.85375   0.81391   0.00000  Uiso   1.00
C98    C     0.28351   0.11706   0.88991   0.00000  Uiso   1.00
C99    C     0.21627   0.11996   0.84885   0.00000  Uiso   1.00
C100   C     0.14475   0.11755   0.86814   0.00000  Uiso   1.00
C101   C     0.01469   0.11546   0.87728   0.00000  Uiso   1.00
C102   C     0.41760   0.17798   0.94360   0.00000  Uiso   1.00
C103   C     0.46310   0.23211   0.94768   0.00000  Uiso   1.00
C104   C     0.50447   0.28100   0.01217   0.00000  Uiso   1.00
C105   C     0.58261   0.37349   0.10467   0.00000  Uiso   1.00
C106   C     0.36021   0.10953   0.98559   0.00000  Uiso   1.00
C107   C     0.39272   0.05018   0.93322   0.00000  Uiso   1.00
C108   C     0.41651   0.99583   0.94000   0.00000  Uiso   1.00
C109   C     0.44454   0.94670   0.88638   0.00000  Uiso   1.00
C110   C     0.27945   0.11196   0.94818   0.00000  Uiso   1.00
C111   C     0.20802   0.10956   0.96753   0.00000  Uiso   1.00
C112   C     0.14069   0.11244   0.92651   0.00000  Uiso   1.00
C113   C     0.41355   0.17288   0.00187   0.00000  Uiso   1.00
C114   C     0.45485   0.22171   0.06636   0.00000  Uiso   1.00
C115   C     0.50041   0.27589   0.07054   0.00000  Uiso   1.00
H116   H     0.37082   0.12290   0.83296   0.00000  Uiso   1.00
H117   H     0.42788   0.01019   0.77623   0.00000  Uiso   1.00
H118   H     0.21943   0.12391   0.80377   0.00000  Uiso   1.00
H119   H     0.46622   0.23604   0.90258   0.00000  Uiso   1.00
H120   H     0.48934   0.88297   0.73902   0.00000  Uiso   1.00
H121   H     0.04980   0.12278   0.79709   0.00000  Uiso   1.00
H122   H     0.57022   0.35922   0.00546   0.00000  Uiso   1.00
H123   H     0.35705   0.10556   0.03096   0.00000  Uiso   1.00
H124   H     0.41337   0.99189   0.98510   0.00000  Uiso   1.00
H125   H     0.20491   0.10561   0.01263   0.00000  Uiso   1.00
H126   H     0.45170   0.21774   0.11144   0.00000  Uiso   1.00
H127   H     0.47755   0.86812   0.90854   0.00000  Uiso   1.00
H128   H     0.03801   0.10793   0.96662   0.00000  Uiso   1.00
H129   H     0.55843   0.34437   0.17498   0.00000  Uiso   1.00
O130   O     0.52072   0.80107   0.79003   0.00000  Uiso   1.00
O131   O     0.94406   0.11571   0.86623   0.00000  Uiso   1.00
O132   O     0.62684   0.42591   0.13960   0.00000  Uiso   1.00
N133   N     0.47885   0.89508   0.78522   0.00000  Uiso   1.00
N134   N     0.06791   0.11927   0.83951   0.00000  Uiso   1.00
N135   N     0.55444   0.34034   0.03431   0.00000  Uiso   1.00
N136   N     0.47251   0.88709   0.87644   0.00000  Uiso   1.00
N137   N     0.06157   0.11128   0.93073   0.00000  Uiso   1.00
N138   N     0.54809   0.33235   0.12553   0.00000  Uiso   1.00
C139   C     0.71414   0.52635   0.63622   0.00000  Uiso   1.00
C140   C     0.66807   0.49378   0.56234   0.00000  Uiso   1.00
C141   C     0.69823   0.45597   0.50493   0.00000  Uiso   1.00
C142   C     0.64653   0.43049   0.44184   0.00000  Uiso   1.00
C143   C     0.58701   0.37807   0.32794   0.00000  Uiso   1.00
C144   C     0.66798   0.49904   0.67157   0.00000  Uiso   1.00
C145   C     0.69808   0.46565   0.70601   0.00000  Uiso   1.00
C146   C     0.64630   0.44461   0.73488   0.00000  Uiso   1.00
C147   C     0.58667   0.40039   0.79061   0.00000  Uiso   1.00
C148   C     0.70668   0.60131   0.66795   0.00000  Uiso   1.00
C149   C     0.76930   0.65392   0.69936   0.00000  Uiso   1.00
C150   C     0.75010   0.71899   0.72520   0.00000  Uiso   1.00
C151   C     0.75054   0.83357   0.77530   0.00000  Uiso   1.00
C152   C     0.56869   0.54835   0.62628   0.00000  Uiso   1.00
C153   C     0.58907   0.50573   0.55694   0.00000  Uiso   1.00
C154   C     0.53731   0.48031   0.49393   0.00000  Uiso   1.00
C155   C     0.56739   0.44246   0.43643   0.00000  Uiso   1.00
C156   C     0.58898   0.51099   0.66617   0.00000  Uiso   1.00
C157   C     0.53715   0.48999   0.69501   0.00000  Uiso   1.00
C158   C     0.56716   0.45658   0.72947   0.00000  Uiso   1.00
C159   C     0.62767   0.61326   0.66255   0.00000  Uiso   1.00
C160   C     0.60837   0.67826   0.68835   0.00000  Uiso   1.00
C161   C     0.67096   0.73096   0.71979   0.00000  Uiso   1.00
H162   H     0.77564   0.51705   0.64043   0.00000  Uiso   1.00
H163   H     0.75937   0.44673   0.50913   0.00000  Uiso   1.00
H164   H     0.75922   0.45642   0.71018   0.00000  Uiso   1.00
H165   H     0.83043   0.64466   0.70353   0.00000  Uiso   1.00
H166   H     0.70649   0.37401   0.36118   0.00000  Uiso   1.00
H167   H     0.70617   0.39446   0.78513   0.00000  Uiso   1.00
H168   H     0.85633   0.79140   0.77110   0.00000  Uiso   1.00
H169   H     0.50718   0.55766   0.62208   0.00000  Uiso   1.00
H170   H     0.47617   0.48956   0.48976   0.00000  Uiso   1.00
H171   H     0.47602   0.49925   0.69082   0.00000  Uiso   1.00
H172   H     0.54723   0.68749   0.68417   0.00000  Uiso   1.00
H173   H     0.47663   0.40877   0.34546   0.00000  Uiso   1.00
H174   H     0.47632   0.42923   0.76941   0.00000  Uiso   1.00
H175   H     0.62648   0.82617   0.75539   0.00000  Uiso   1.00
O176   O     0.57600   0.34584   0.26661   0.00000  Uiso   1.00
O177   O     0.57560   0.37269   0.82283   0.00000  Uiso   1.00
O178   O     0.77260   0.89347   0.80442   0.00000  Uiso   1.00
N179   N     0.65665   0.39155   0.37563   0.00000  Uiso   1.00
N180   N     0.65635   0.41066   0.77199   0.00000  Uiso   1.00
N181   N     0.79674   0.78177   0.75890   0.00000  Uiso   1.00
N182   N     0.53297   0.41025   0.36718   0.00000  Uiso   1.00
N183   N     0.53267   0.42936   0.76354   0.00000  Uiso   1.00
N184   N     0.67306   0.80048   0.75044   0.00000  Uiso   1.00
C185   C     0.41534   0.16314   0.35358   0.00000  Uiso   1.00
C186   C     0.47872   0.11915   0.35558   0.00000  Uiso   1.00
C187   C     0.54976   0.11898   0.33493   0.00000  Uiso   1.00
C188   C     0.59980   0.07505   0.34081   0.00000  Uiso   1.00
C189   C     0.70133   0.01319   0.34005   0.00000  Uiso   1.00
C190   C     0.40286   0.20232   0.42634   0.00000  Uiso   1.00
C191   C     0.41010   0.27208   0.46517   0.00000  Uiso   1.00
C192   C     0.39626   0.29816   0.53062   0.00000  Uiso   1.00
C193   C     0.37995   0.36542   0.63969   0.00000  Uiso   1.00
C194   C     0.33878   0.11472   0.31115   0.00000  Uiso   1.00
C195   C     0.29213   0.11082   0.25315   0.00000  Uiso   1.00
C196   C     0.22433   0.06315   0.22162   0.00000  Uiso   1.00
C197   C     0.10854   0.99439   0.15186   0.00000  Uiso   1.00
C198   C     0.37789   0.08545   0.40075   0.00000  Uiso   1.00
C199   C     0.45838   0.07695   0.38120   0.00000  Uiso   1.00
C200   C     0.50833   0.03301   0.38712   0.00000  Uiso   1.00
C201   C     0.57942   0.03277   0.36648   0.00000  Uiso   1.00
C202   C     0.38252   0.16013   0.45196   0.00000  Uiso   1.00
C203   C     0.36867   0.18611   0.51736   0.00000  Uiso   1.00
C204   C     0.37589   0.25588   0.55629   0.00000  Uiso   1.00
C205   C     0.31844   0.07251   0.33677   0.00000  Uiso   1.00
C206   C     0.25070   0.02485   0.30534   0.00000  Uiso   1.00
C207   C     0.20396   0.02088   0.24729   0.00000  Uiso   1.00
H208   H     0.43118   0.19600   0.33363   0.00000  Uiso   1.00
H209   H     0.56548   0.15165   0.31511   0.00000  Uiso   1.00
H210   H     0.42583   0.30472   0.44533   0.00000  Uiso   1.00
H211   H     0.30789   0.14348   0.23333   0.00000  Uiso   1.00
H212   H     0.70543   0.08388   0.30589   0.00000  Uiso   1.00
H213   H     0.41094   0.40664   0.58046   0.00000  Uiso   1.00
H214   H     0.16223   0.06664   0.13343   0.00000  Uiso   1.00
H215   H     0.36206   0.05259   0.42070   0.00000  Uiso   1.00
H216   H     0.49257   0.00036   0.40695   0.00000  Uiso   1.00
H217   H     0.35292   0.15344   0.53717   0.00000  Uiso   1.00
H218   H     0.23498   0.99220   0.32518   0.00000  Uiso   1.00
H219   H     0.64625   0.96109   0.38043   0.00000  Uiso   1.00
H220   H     0.35176   0.28385   0.65500   0.00000  Uiso   1.00
H221   H     0.10306   0.94385   0.20797   0.00000  Uiso   1.00
O222   O     0.76295   0.99073   0.33257   0.00000  Uiso   1.00
O223   O     0.37659   0.41418   0.69278   0.00000  Uiso   1.00
O224   O     0.05029   0.96811   0.10629   0.00000  Uiso   1.00
N225   N     0.67358   0.06214   0.32531   0.00000  Uiso   1.00
N226   N     0.39827   0.36390   0.58202   0.00000  Uiso   1.00
N227   N     0.16573   0.04604   0.16409   0.00000  Uiso   1.00
N228   N     0.64174   0.99607   0.36542   0.00000  Uiso   1.00
N229   N     0.36643   0.29783   0.62213   0.00000  Uiso   1.00
N230   N     0.13389   0.97997   0.20420   0.00000  Uiso   1.00
C231   C     0.85815   0.30490   0.84654   0.00000  Uiso   1.00
C232   C     0.83699   0.37625   0.87345   0.00000  Uiso   1.00
C233   C     0.87323   0.42707   0.86581   0.00000  Uiso   1.00
C234   C     0.84529   0.48886   0.89413   0.00000  Uiso   1.00
C235   C     0.82184   0.59804   0.93060   0.00000  Uiso   1.00
C236   C     0.78170   0.25742   0.80161   0.00000  Uiso   1.00
C237   C     0.77145   0.20834   0.73357   0.00000  Uiso   1.00
C238   C     0.69696   0.17009   0.70141   0.00000  Uiso   1.00
C239   C     0.58768   0.09476   0.62637   0.00000  Uiso   1.00
C240   C     0.87757   0.29427   0.90832   0.00000  Uiso   1.00
C241   C     0.94793   0.27615   0.93001   0.00000  Uiso   1.00
C242   C     0.95415   0.26891   0.98769   0.00000  Uiso   1.00
C243   C     0.99373   0.25079   0.07834   0.00000  Uiso   1.00
C244   C     0.74408   0.32424   0.91040   0.00000  Uiso   1.00
C245   C     0.77504   0.38675   0.90813   0.00000  Uiso   1.00
C246   C     0.74703   0.44848   0.93647   0.00000  Uiso   1.00
C247   C     0.78322   0.49939   0.92888   0.00000  Uiso   1.00
C248   C     0.71974   0.26793   0.83629   0.00000  Uiso   1.00
C249   C     0.64525   0.22974   0.80423   0.00000  Uiso   1.00
C250   C     0.63489   0.18061   0.73616   0.00000  Uiso   1.00
C251   C     0.81562   0.30478   0.94301   0.00000  Uiso   1.00
C252   C     0.82173   0.29756   0.00066   0.00000  Uiso   1.00
C253   C     0.89208   0.27943   0.02244   0.00000  Uiso   1.00
H254   H     0.90638   0.29671   0.81953   0.00000  Uiso   1.00
H255   H     0.92117   0.41892   0.83896   0.00000  Uiso   1.00
H256   H     0.81941   0.20021   0.70675   0.00000  Uiso   1.00
H257   H     0.99586   0.26802   0.90315   0.00000  Uiso   1.00
H258   H     0.91023   0.55904   0.87578   0.00000  Uiso   1.00
H259   H     0.69566   0.09786   0.59700   0.00000  Uiso   1.00
H260   H     0.06774   0.24085   0.01116   0.00000  Uiso   1.00
H261   H     0.69584   0.33242   0.93740   0.00000  Uiso   1.00
H262   H     0.69909   0.45660   0.96330   0.00000  Uiso   1.00
H263   H     0.59732   0.23788   0.83109   0.00000  Uiso   1.00
H264   H     0.77377   0.30569   0.02749   0.00000  Uiso   1.00
H265   H     0.72997   0.58962   0.97669   0.00000  Uiso   1.00
H266   H     0.51541   0.12844   0.69792   0.00000  Uiso   1.00
H267   H     0.88749   0.27142   0.11208   0.00000  Uiso   1.00
O268   O     0.82602   0.65536   0.94113   0.00000  Uiso   1.00
O269   O     0.54452   0.05031   0.57539   0.00000  Uiso   1.00
O270   O     0.03268   0.23790   0.11876   0.00000  Uiso   1.00
N271   N     0.86737   0.54920   0.89599   0.00000  Uiso   1.00
N272   N     0.66676   0.11803   0.63534   0.00000  Uiso   1.00
N273   N     0.01462   0.25169   0.02254   0.00000  Uiso   1.00
N274   N     0.77038   0.56565   0.95029   0.00000  Uiso   1.00
N275   N     0.56977   0.13449   0.68965   0.00000  Uiso   1.00
N276   N     0.91763   0.26815   0.07685   0.00000  Uiso   1.00
C277   C     0.76667   0.23212   0.20625   0.00000  Uiso   1.00
C278   C     0.78831   0.24204   0.27838   0.00000  Uiso   1.00
C279   C     0.73497   0.23920   0.31637   0.00000  Uiso   1.00
C280   C     0.76660   0.24963   0.38133   0.00000  Uiso   1.00
C281   C     0.78773   0.26305   0.48937   0.00000  Uiso   1.00
C282   C     0.80950   0.17489   0.16309   0.00000  Uiso   1.00
C283   C     0.77398   0.11558   0.10414   0.00000  Uiso   1.00
C284   C     0.82345   0.06949   0.07204   0.00000  Uiso   1.00
C285   C     0.87749   0.97867   0.00105   0.00000  Uiso   1.00
C286   C     0.80570   0.29560   0.21005   0.00000  Uiso   1.00
C287   C     0.76697   0.33779   0.19058   0.00000  Uiso   1.00
C288   C     0.81325   0.39333   0.19801   0.00000  Uiso   1.00
C289   C     0.86137   0.48994   0.19995   0.00000  Uiso   1.00
C290   C     0.91771   0.25572   0.25407   0.00000  Uiso   1.00
C291   C     0.87035   0.25486   0.30435   0.00000  Uiso   1.00
C292   C     0.90208   0.26530   0.36928   0.00000  Uiso   1.00
C293   C     0.84879   0.26248   0.40736   0.00000  Uiso   1.00
C294   C     0.89154   0.18770   0.18906   0.00000  Uiso   1.00
C295   C     0.94109   0.14169   0.15704   0.00000  Uiso   1.00
C296   C     0.90564   0.08233   0.09806   0.00000  Uiso   1.00
C297   C     0.88774   0.30842   0.23603   0.00000  Uiso   1.00
C298   C     0.93408   0.36390   0.24349   0.00000  Uiso   1.00
C299   C     0.89544   0.40617   0.22403   0.00000  Uiso   1.00
H300   H     0.70280   0.22214   0.18603   0.00000  Uiso   1.00
H301   H     0.67148   0.22927   0.29625   0.00000  Uiso   1.00
H302   H     0.71049   0.10568   0.08404   0.00000  Uiso   1.00
H303   H     0.70348   0.32786   0.17048   0.00000  Uiso   1.00
H304   H     0.67294   0.24280   0.42989   0.00000  Uiso   1.00
H305   H     0.75519   0.98221   0.98244   0.00000  Uiso   1.00
H306   H     0.74042   0.45072   0.16470   0.00000  Uiso   1.00
H307   H     0.98159   0.26570   0.27429   0.00000  Uiso   1.00
H308   H     0.96557   0.27522   0.38936   0.00000  Uiso   1.00
H309   H     0.00458   0.15162   0.17716   0.00000  Uiso   1.00
H310   H     0.99757   0.37380   0.26359   0.00000  Uiso   1.00
H311   H     0.91163   0.28009   0.50547   0.00000  Uiso   1.00
H312   H     0.99389   0.01950   0.05801   0.00000  Uiso   1.00
H313   H     0.97911   0.48801   0.24027   0.00000  Uiso   1.00
O314   O     0.77672   0.26691   0.54178   0.00000  Uiso   1.00
O315   O     0.88463   0.92503   0.95473   0.00000  Uiso   1.00
O316   O     0.86525   0.53969   0.19385   0.00000  Uiso   1.00
N317   N     0.73131   0.25029   0.43189   0.00000  Uiso   1.00
N318   N     0.80821   0.00664   0.01356   0.00000  Uiso   1.00
N319   N     0.79440   0.44465   0.18393   0.00000  Uiso   1.00
N320   N     0.85975   0.27035   0.47256   0.00000  Uiso   1.00
N321   N     0.93665   0.02671   0.05422   0.00000  Uiso   1.00
N322   N     0.92284   0.46471   0.22460   0.00000  Uiso   1.00
C323   C     0.12550   0.25024   0.60026   0.00000  Uiso   1.00
C324   C     0.04671   0.20322   0.56848   0.00000  Uiso   1.00
C325   C     0.97755   0.21635   0.59280   0.00000  Uiso   1.00
C326   C     0.91175   0.16690   0.55647   0.00000  Uiso   1.00
C327   C     0.78889   0.10308   0.51601   0.00000  Uiso   1.00
C328   C     0.14728   0.26159   0.54400   0.00000  Uiso   1.00
C329   C     0.16270   0.32381   0.54776   0.00000  Uiso   1.00
C330   C     0.18157   0.32349   0.49082   0.00000  Uiso   1.00
C331   C     0.21491   0.35031   0.41238   0.00000  Uiso   1.00
C332   C     0.18672   0.20971   0.61443   0.00000  Uiso   1.00
C333   C     0.23531   0.22832   0.67740   0.00000  Uiso   1.00
C334   C     0.28740   0.18433   0.67976   0.00000  Uiso   1.00
C335   C     0.38197   0.13061   0.71067   0.00000  Uiso   1.00
C336   C     0.13163   0.13905   0.49248   0.00000  Uiso   1.00
C337   C     0.05004   0.14283   0.50993   0.00000  Uiso   1.00
C338   C     0.98433   0.09334   0.47356   0.00000  Uiso   1.00
C339   C     0.91509   0.10639   0.49782   0.00000  Uiso   1.00
C340   C     0.15061   0.20120   0.48546   0.00000  Uiso   1.00
C341   C     0.16948   0.20079   0.42851   0.00000  Uiso   1.00
C342   C     0.18491   0.26299   0.43217   0.00000  Uiso   1.00
C343   C     0.19005   0.14932   0.55589   0.00000  Uiso   1.00
C344   C     0.24209   0.10530   0.55815   0.00000  Uiso   1.00
C345   C     0.29074   0.12383   0.62111   0.00000  Uiso   1.00
H346   H     0.12291   0.29726   0.64583   0.00000  Uiso   1.00
H347   H     0.97499   0.26310   0.63811   0.00000  Uiso   1.00
H348   H     0.16012   0.37053   0.59307   0.00000  Uiso   1.00
H349   H     0.23271   0.27506   0.72269   0.00000  Uiso   1.00
H350   H     0.81246   0.19860   0.60371   0.00000  Uiso   1.00
H351   H     0.20284   0.42514   0.50875   0.00000  Uiso   1.00
H352   H     0.35592   0.22381   0.78208   0.00000  Uiso   1.00
H353   H     0.13423   0.09203   0.44690   0.00000  Uiso   1.00
H354   H     0.98693   0.04661   0.42825   0.00000  Uiso   1.00
H355   H     0.17206   0.15405   0.38322   0.00000  Uiso   1.00
H356   H     0.24465   0.05857   0.51284   0.00000  Uiso   1.00
H357   H     0.82215   0.02289   0.43338   0.00000  Uiso   1.00
H358   H     0.21253   0.24944   0.33843   0.00000  Uiso   1.00
H359   H     0.36560   0.04810   0.61176   0.00000  Uiso   1.00
O360   O     0.72020   0.08457   0.50985   0.00000  Uiso   1.00
O361   O     0.23237   0.38179   0.38528   0.00000  Uiso   1.00
O362   O     0.43320   0.11765   0.74389   0.00000  Uiso   1.00
N363   N     0.83496   0.16347   0.56619   0.00000  Uiso   1.00
N364   N     0.19993   0.37528   0.47740   0.00000  Uiso   1.00
N365   N     0.34306   0.18706   0.73295   0.00000  Uiso   1.00
N366   N     0.84017   0.06893   0.47454   0.00000  Uiso   1.00
N367   N     0.20514   0.28073   0.38575   0.00000  Uiso   1.00
N368   N     0.34827   0.09251   0.64130   0.00000  Uiso   1.00
C369   C     0.60475   0.86013   0.11281   0.00000  Uiso   1.00
C370   C     0.57581   0.92307   0.11421   0.00000  Uiso   1.00
C371   C     0.52877   0.96339   0.15660   0.00000  Uiso   1.00
C372   C     0.50868   0.01875   0.15006   0.00000  Uiso   1.00
C373   C     0.45982   0.11430   0.15945   0.00000  Uiso   1.00
C374   C     0.69492   0.87242   0.12525   0.00000  Uiso   1.00
C375   C     0.74803   0.87015   0.17690   0.00000  Uiso   1.00
C376   C     0.82821   0.88286   0.17965   0.00000  Uiso   1.00
C377   C     0.96427   0.89974   0.20613   0.00000  Uiso   1.00
C378   C     0.57639   0.80313   0.03938   0.00000  Uiso   1.00
C379   C     0.52984   0.74259   0.01883   0.00000  Uiso   1.00
C380   C     0.51024   0.69696   0.94928   0.00000  Uiso   1.00
C381   C     0.46225   0.60625   0.84244   0.00000  Uiso   1.00
C382   C     0.65271   0.88674   0.02583   0.00000  Uiso   1.00
C383   C     0.60186   0.93752   0.06697   0.00000  Uiso   1.00
C384   C     0.58183   0.99284   0.06036   0.00000  Uiso   1.00
C385   C     0.53477   0.03323   0.10273   0.00000  Uiso   1.00
C386   C     0.72098   0.88688   0.07801   0.00000  Uiso   1.00
C387   C     0.80109   0.89959   0.08067   0.00000  Uiso   1.00
C388   C     0.85431   0.89735   0.13232   0.00000  Uiso   1.00
C389   C     0.60243   0.81759   0.99213   0.00000  Uiso   1.00
C390   C     0.58290   0.77204   0.92260   0.00000  Uiso   1.00
C391   C     0.53633   0.71144   0.90195   0.00000  Uiso   1.00
H392   H     0.58447   0.84887   0.14960   0.00000  Uiso   1.00
H393   H     0.50863   0.95219   0.19316   0.00000  Uiso   1.00
H394   H     0.72786   0.85895   0.21345   0.00000  Uiso   1.00
H395   H     0.50970   0.73142   0.05541   0.00000  Uiso   1.00
H396   H     0.43606   0.07312   0.22064   0.00000  Uiso   1.00
H397   H     0.89830   0.87651   0.26342   0.00000  Uiso   1.00
H398   H     0.43828   0.60758   0.93015   0.00000  Uiso   1.00
H399   H     0.67299   0.89800   0.98905   0.00000  Uiso   1.00
H400   H     0.60200   0.00401   0.02380   0.00000  Uiso   1.00
H401   H     0.82123   0.91078   0.04410   0.00000  Uiso   1.00
H402   H     0.60307   0.78324   0.88605   0.00000  Uiso   1.00
H403   H     0.51184   0.11519   0.08318   0.00000  Uiso   1.00
H404   H     0.97409   0.91857   0.12596   0.00000  Uiso   1.00
H405   H     0.51406   0.64964   0.79269   0.00000  Uiso   1.00
O406   O     0.42568   0.16302   0.17768   0.00000  Uiso   1.00
O407   O     0.03212   0.90506   0.23380   0.00000  Uiso   1.00
O408   O     0.42858   0.55223   0.79656   0.00000  Uiso   1.00
N409   N     0.46362   0.06847   0.18351   0.00000  Uiso   1.00
N410   N     0.89580   0.88466   0.22351   0.00000  Uiso   1.00
N411   N     0.46573   0.63322   0.91193   0.00000  Uiso   1.00
N412   N     0.50440   0.09110   0.10954   0.00000  Uiso   1.00
N413   N     0.93658   0.90729   0.14955   0.00000  Uiso   1.00
N414   N     0.50651   0.65585   0.83797   0.00000  Uiso   1.00
C415   C     0.28308   0.50653   0.23443   0.00000  Uiso   1.00
C416   C     0.33360   0.55001   0.30637   0.00000  Uiso   1.00
C417   C     0.30839   0.59978   0.36145   0.00000  Uiso   1.00
C418   C     0.36362   0.63391   0.42303   0.00000  Uiso   1.00
C419   C     0.43027   0.70375   0.53378   0.00000  Uiso   1.00
C420   C     0.32732   0.51703   0.18697   0.00000  Uiso   1.00
C421   C     0.29683   0.53906   0.14166   0.00000  Uiso   1.00
C422   C     0.34678   0.54542   0.10272   0.00000  Uiso   1.00
C423   C     0.40366   0.56400   0.02807   0.00000  Uiso   1.00
C424   C     0.28624   0.43345   0.21776   0.00000  Uiso   1.00
C425   C     0.22121   0.38521   0.19831   0.00000  Uiso   1.00
C426   C     0.23657   0.32120   0.18527   0.00000  Uiso   1.00
C427   C     0.22967   0.21002   0.15843   0.00000  Uiso   1.00
C428   C     0.42598   0.47864   0.24583   0.00000  Uiso   1.00
C429   C     0.41122   0.53486   0.31256   0.00000  Uiso   1.00
C430   C     0.46650   0.56893   0.37407   0.00000  Uiso   1.00
C431   C     0.44138   0.61874   0.42924   0.00000  Uiso   1.00
C432   C     0.40494   0.50188   0.19316   0.00000  Uiso   1.00
C433   C     0.45494   0.50820   0.15428   0.00000  Uiso   1.00
C434   C     0.42454   0.53024   0.10892   0.00000  Uiso   1.00
C435   C     0.36387   0.41830   0.22395   0.00000  Uiso   1.00
C436   C     0.37932   0.35435   0.21094   0.00000  Uiso   1.00
C437   C     0.31433   0.30602   0.19148   0.00000  Uiso   1.00
H438   H     0.22265   0.51833   0.22960   0.00000  Uiso   1.00
H439   H     0.24832   0.61149   0.35663   0.00000  Uiso   1.00
H440   H     0.23676   0.55077   0.13687   0.00000  Uiso   1.00
H441   H     0.16115   0.39695   0.19352   0.00000  Uiso   1.00
H442   H     0.31102   0.70812   0.50020   0.00000  Uiso   1.00
H443   H     0.28664   0.58007   0.03680   0.00000  Uiso   1.00
H444   H     0.12720   0.25569   0.15626   0.00000  Uiso   1.00
H445   H     0.48642   0.46685   0.25066   0.00000  Uiso   1.00
H446   H     0.52657   0.55719   0.37885   0.00000  Uiso   1.00
H447   H     0.51500   0.49647   0.15909   0.00000  Uiso   1.00
H448   H     0.43940   0.34265   0.21574   0.00000  Uiso   1.00
H449   H     0.53686   0.66405   0.51823   0.00000  Uiso   1.00
H450   H     0.51247   0.53599   0.05483   0.00000  Uiso   1.00
H451   H     0.35304   0.21163   0.17429   0.00000  Uiso   1.00
O452   O     0.44559   0.74646   0.59316   0.00000  Uiso   1.00
O453   O     0.41360   0.57845   0.98519   0.00000  Uiso   1.00
O454   O     0.20443   0.15288   0.14192   0.00000  Uiso   1.00
N455   N     0.35865   0.68534   0.48685   0.00000  Uiso   1.00
N456   N     0.33586   0.56563   0.05361   0.00000  Uiso   1.00
N457   N     0.18681   0.26236   0.16527   0.00000  Uiso   1.00
N458   N     0.48018   0.66163   0.49656   0.00000  Uiso   1.00
N459   N     0.45738   0.54192   0.06332   0.00000  Uiso   1.00
N460   N     0.30833   0.23865   0.17498   0.00000  Uiso   1.00
C461   C     0.65357   0.86289   0.60741   0.00000  Uiso   1.00
C462   C     0.57649   0.87616   0.57497   0.00000  Uiso   1.00
C463   C     0.50808   0.88711   0.60062   0.00000  Uiso   1.00
C464   C     0.44385   0.89831   0.56338   0.00000  Uiso   1.00
C465   C     0.32351   0.91885   0.52222   0.00000  Uiso   1.00
C466   C     0.67130   0.79596   0.55297   0.00000  Uiso   1.00
C467   C     0.68261   0.73948   0.56013   0.00000  Uiso   1.00
C468   C     0.69821   0.68316   0.50437   0.00000  Uiso   1.00
C469   C     0.72512   0.57920   0.42907   0.00000  Uiso   1.00
C470   C     0.71813   0.91683   0.61771   0.00000  Uiso   1.00
C471   C     0.76885   0.96197   0.67930   0.00000  Uiso   1.00
C472   C     0.82389   0.00742   0.67804   0.00000  Uiso   1.00
C473   C     0.92352   0.09113   0.70326   0.00000  Uiso   1.00
C474   C     0.66116   0.86331   0.49565   0.00000  Uiso   1.00
C475   C     0.58061   0.87639   0.51427   0.00000  Uiso   1.00
C476   C     0.51647   0.88757   0.47698   0.00000  Uiso   1.00
C477   C     0.44797   0.89854   0.50257   0.00000  Uiso   1.00
C478   C     0.67542   0.79618   0.49227   0.00000  Uiso   1.00
C479   C     0.69100   0.73994   0.43648   0.00000  Uiso   1.00
C480   C     0.70233   0.68339   0.44355   0.00000  Uiso   1.00
C481   C     0.72225   0.91706   0.55701   0.00000  Uiso   1.00
C482   C     0.77723   0.96244   0.55565   0.00000  Uiso   1.00
C483   C     0.82801   0.00764   0.61723   0.00000  Uiso   1.00
H484   H     0.65037   0.86271   0.65467   0.00000  Uiso   1.00
H485   H     0.50491   0.88692   0.64760   0.00000  Uiso   1.00
H486   H     0.67943   0.73932   0.60711   0.00000  Uiso   1.00
H487   H     0.76564   0.96178   0.72626   0.00000  Uiso   1.00
H488   H     0.34545   0.91385   0.61298   0.00000  Uiso   1.00
H489   H     0.71346   0.60262   0.52762   0.00000  Uiso   1.00
H490   H     0.89526   0.07173   0.77887   0.00000  Uiso   1.00
H491   H     0.66437   0.86348   0.44839   0.00000  Uiso   1.00
H492   H     0.51967   0.88775   0.43000   0.00000  Uiso   1.00
H493   H     0.69419   0.74014   0.38952   0.00000  Uiso   1.00
H494   H     0.78040   0.96260   0.50867   0.00000  Uiso   1.00
H495   H     0.35743   0.91451   0.43637   0.00000  Uiso   1.00
H496   H     0.72544   0.60328   0.35101   0.00000  Uiso   1.00
H497   H     0.90724   0.07239   0.60226   0.00000  Uiso   1.00
O498   O     0.25599   0.93010   0.51629   0.00000  Uiso   1.00
O499   O     0.73882   0.52179   0.40430   0.00000  Uiso   1.00
O500   O     0.97733   0.13725   0.73394   0.00000  Uiso   1.00
N501   N     0.36813   0.91069   0.57394   0.00000  Uiso   1.00
N502   N     0.71218   0.61971   0.49413   0.00000  Uiso   1.00
N503   N     0.88217   0.05827   0.72903   0.00000  Uiso   1.00
N504   N     0.37458   0.91105   0.47891   0.00000  Uiso   1.00
N505   N     0.71863   0.62006   0.39910   0.00000  Uiso   1.00
N506   N     0.88861   0.05863   0.63400   0.00000  Uiso   1.00
C507   C     0.09110   0.74929   0.09654   0.00000  Uiso   1.00
C508   C     0.06584   0.67661   0.07864   0.00000  Uiso   1.00
C509   C     0.01097   0.65587   0.10536   0.00000  Uiso   1.00
C510   C     0.99602   0.58713   0.08246   0.00000  Uiso   1.00
C511   C     0.95095   0.48133   0.06196   0.00000  Uiso   1.00
C512   C     0.18102   0.76270   0.12145   0.00000  Uiso   1.00
C513   C     0.22299   0.81434   0.18417   0.00000  Uiso   1.00
C514   C     0.30499   0.81806   0.19731   0.00000  Uiso   1.00
C515   C     0.43875   0.84593   0.24327   0.00000  Uiso   1.00
C516   C     0.07512   0.75016   0.02912   0.00000  Uiso   1.00
C517   C     0.02807   0.79128   0.01420   0.00000  Uiso   1.00
C518   C     0.02093   0.78446   0.94960   0.00000  Uiso   1.00
C519   C     0.99027   0.79287   0.85219   0.00000  Uiso   1.00
C520   C     0.16212   0.66409   0.00835   0.00000  Uiso   1.00
C521   C     0.10441   0.63034   0.03073   0.00000  Uiso   1.00
C522   C     0.08954   0.56161   0.00778   0.00000  Uiso   1.00
C523   C     0.03465   0.54076   0.03447   0.00000  Uiso   1.00
C524   C     0.21959   0.71642   0.07356   0.00000  Uiso   1.00
C525   C     0.30155   0.72007   0.08660   0.00000  Uiso   1.00
C526   C     0.34364   0.77170   0.14932   0.00000  Uiso   1.00
C527   C     0.11369   0.70388   0.98121   0.00000  Uiso   1.00
C528   C     0.10663   0.69701   0.91663   0.00000  Uiso   1.00
C529   C     0.05957   0.73810   0.90161   0.00000  Uiso   1.00
H530   H     0.06108   0.78532   0.13384   0.00000  Uiso   1.00
H531   H     0.98114   0.69170   0.14243   0.00000  Uiso   1.00
H532   H     0.19312   0.85014   0.22123   0.00000  Uiso   1.00
H533   H     0.99823   0.82708   0.05128   0.00000  Uiso   1.00
H534   H     0.90954   0.56750   0.13085   0.00000  Uiso   1.00
H535   H     0.35652   0.90160   0.29699   0.00000  Uiso   1.00
H536   H     0.94556   0.85298   0.93862   0.00000  Uiso   1.00
H537   H     0.19215   0.62806   0.97106   0.00000  Uiso   1.00
H538   H     0.11940   0.52580   0.97072   0.00000  Uiso   1.00
H539   H     0.33138   0.68425   0.04952   0.00000  Uiso   1.00
H540   H     0.13649   0.66119   0.87957   0.00000  Uiso   1.00
H541   H     0.02176   0.43286   0.99148   0.00000  Uiso   1.00
H542   H     0.46875   0.76696   0.15762   0.00000  Uiso   1.00
H543   H     0.05777   0.71833   0.79926   0.00000  Uiso   1.00
O544   O     0.91545   0.43576   0.06390   0.00000  Uiso   1.00
O545   O     0.50187   0.87409   0.28186   0.00000  Uiso   1.00
O546   O     0.96269   0.81029   0.81169   0.00000  Uiso   1.00
N547   N     0.94592   0.54985   0.09809   0.00000  Uiso   1.00
N548   N     0.36383   0.86220   0.25342   0.00000  Uiso   1.00
N549   N     0.97962   0.81675   0.91839   0.00000  Uiso   1.00
N550   N     0.00631   0.47739   0.02309   0.00000  Uiso   1.00
N551   N     0.42421   0.78975   0.17843   0.00000  Uiso   1.00
N552   N     0.04000   0.74430   0.84339   0.00000  Uiso   1.00
