data_job_06596
_audit_creation_date              2018-12-19
_audit_creation_method            'Materials Studio'
_symmetry_space_group_name_H-M    'P1'
_symmetry_Int_Tables_number       1
_symmetry_cell_setting            triclinic
loop_
_symmetry_equiv_pos_as_xyz
  x,y,z
_cell_length_a                    18.5339
_cell_length_b                    18.6618
_cell_length_c                    25.6768
_cell_angle_alpha                 91.7233
_cell_angle_beta                  103.6455
_cell_angle_gamma                 62.6883
loop_
_atom_site_label
_atom_site_type_symbol
_atom_site_fract_x
_atom_site_fract_y
_atom_site_fract_z
_atom_site_U_iso_or_equiv
_atom_site_adp_type
_atom_site_occupancy
C1     C     0.04720   0.91187   0.42726   0.00000  Uiso   1.00
C2     C     0.99791   0.95438   0.37110   0.00000  Uiso   1.00
C3     C     0.91233   0.00601   0.35547   0.00000  Uiso   1.00
C4     C     0.87910   0.03881   0.30227   0.00000  Uiso   1.00
C5     C     0.79486   0.10756   0.22057   0.00000  Uiso   1.00
C6     C     0.09102   0.82166   0.42007   0.00000  Uiso   1.00
C7     C     0.08373   0.76169   0.44563   0.00000  Uiso   1.00
C8     C     0.12890   0.68276   0.43366   0.00000  Uiso   1.00
C9     C     0.18926   0.54544   0.42802   0.00000  Uiso   1.00
C10    C     0.11653   0.93657   0.44489   0.00000  Uiso   1.00
C11    C     0.13071   0.97321   0.49132   0.00000  Uiso   1.00
C12    C     0.19737   0.99102   0.50024   0.00000  Uiso   1.00
C13    C     0.29734   0.03213   0.53314   0.00000  Uiso   1.00
C14    C     0.14039   0.87831   0.36055   0.00000  Uiso   1.00
C15    C     0.04853   0.93615   0.33487   0.00000  Uiso   1.00
C16    C     0.01543   0.96888   0.28167   0.00000  Uiso   1.00
C17    C     0.92981   0.02055   0.26597   0.00000  Uiso   1.00
C18    C     0.14164   0.80343   0.38384   0.00000  Uiso   1.00
C19    C     0.18683   0.72456   0.37183   0.00000  Uiso   1.00
C20    C     0.17960   0.66449   0.39736   0.00000  Uiso   1.00
C21    C     0.16715   0.91835   0.40865   0.00000  Uiso   1.00
C22    C     0.23381   0.93609   0.41751   0.00000  Uiso   1.00
C23    C     0.24808   0.97276   0.46395   0.00000  Uiso   1.00
H24    H     0.00780   0.92606   0.45546   0.00000  Uiso   1.00
H25    H     0.87317   0.02009   0.38353   0.00000  Uiso   1.00
H26    H     0.04456   0.77581   0.47367   0.00000  Uiso   1.00
H27    H     0.09153   0.98731   0.51935   0.00000  Uiso   1.00
H28    H     0.74624   0.11629   0.28778   0.00000  Uiso   1.00
H29    H     0.10763   0.60121   0.47788   0.00000  Uiso   1.00
H30    H     0.20668   0.04719   0.57419   0.00000  Uiso   1.00
H31    H     0.17980   0.86412   0.33234   0.00000  Uiso   1.00
H32    H     0.05461   0.95477   0.25364   0.00000  Uiso   1.00
H33    H     0.22600   0.71048   0.34379   0.00000  Uiso   1.00
H34    H     0.27297   0.92198   0.38946   0.00000  Uiso   1.00
H35    H     0.89350   0.06326   0.18236   0.00000  Uiso   1.00
H36    H     0.25490   0.54818   0.37246   0.00000  Uiso   1.00
H37    H     0.35394   0.99416   0.46877   0.00000  Uiso   1.00
O38    O     0.73440   0.15050   0.18552   0.00000  Uiso   1.00
O39    O     0.20856   0.47473   0.43492   0.00000  Uiso   1.00
O40    O     0.33850   0.05985   0.56129   0.00000  Uiso   1.00
N41    N     0.79808   0.09138   0.27378   0.00000  Uiso   1.00
N42    N     0.13595   0.60981   0.45149   0.00000  Uiso   1.00
N43    N     0.22856   0.02675   0.54155   0.00000  Uiso   1.00
N44    N     0.87732   0.06285   0.21705   0.00000  Uiso   1.00
N45    N     0.21519   0.58128   0.39477   0.00000  Uiso   1.00
N46    N     0.30780   0.99822   0.48483   0.00000  Uiso   1.00
C47    C     0.48651   0.50812   0.34871   0.00000  Uiso   1.00
C48    C     0.42485   0.54187   0.29376   0.00000  Uiso   1.00
C49    C     0.39085   0.50019   0.25943   0.00000  Uiso   1.00
C50    C     0.33560   0.54173   0.21094   0.00000  Uiso   1.00
C51    C     0.24300   0.58190   0.12768   0.00000  Uiso   1.00
C52    C     0.56282   0.51831   0.34647   0.00000  Uiso   1.00
C53    C     0.64483   0.45681   0.35647   0.00000  Uiso   1.00
C54    C     0.70573   0.47852   0.35236   0.00000  Uiso   1.00
C55    C     0.82735   0.48212   0.35098   0.00000  Uiso   1.00
C56    C     0.44607   0.56555   0.38871   0.00000  Uiso   1.00
C57    C     0.42992   0.54376   0.43423   0.00000  Uiso   1.00
C58    C     0.39254   0.60524   0.46569   0.00000  Uiso   1.00
C59    C     0.33287   0.68218   0.52988   0.00000  Uiso   1.00
C60    C     0.44886   0.65604   0.32365   0.00000  Uiso   1.00
C61    C     0.40440   0.62222   0.28015   0.00000  Uiso   1.00
C62    C     0.34919   0.66384   0.23170   0.00000  Uiso   1.00
C63    C     0.31511   0.62222   0.19731   0.00000  Uiso   1.00
C64    C     0.54237   0.59865   0.33286   0.00000  Uiso   1.00
C65    C     0.60317   0.62046   0.32874   0.00000  Uiso   1.00
C66    C     0.68524   0.55901   0.33873   0.00000  Uiso   1.00
C67    C     0.42561   0.64589   0.37510   0.00000  Uiso   1.00
C68    C     0.38825   0.70741   0.40650   0.00000  Uiso   1.00
C69    C     0.37205   0.68573   0.45205   0.00000  Uiso   1.00
H70    H     0.50244   0.44557   0.35930   0.00000  Uiso   1.00
H71    H     0.40670   0.43801   0.26998   0.00000  Uiso   1.00
H72    H     0.66064   0.39464   0.36701   0.00000  Uiso   1.00
H73    H     0.44576   0.48159   0.44475   0.00000  Uiso   1.00
H74    H     0.29156   0.46504   0.16493   0.00000  Uiso   1.00
H75    H     0.82701   0.37361   0.36954   0.00000  Uiso   1.00
H76    H     0.37389   0.55694   0.53348   0.00000  Uiso   1.00
H77    H     0.43293   0.71859   0.31305   0.00000  Uiso   1.00
H78    H     0.33337   0.72601   0.22118   0.00000  Uiso   1.00
H79    H     0.58732   0.68264   0.31821   0.00000  Uiso   1.00
H80    H     0.37243   0.76958   0.39595   0.00000  Uiso   1.00
H81    H     0.23204   0.69879   0.12532   0.00000  Uiso   1.00
H82    H     0.76750   0.60735   0.32994   0.00000  Uiso   1.00
H83    H     0.31438   0.79069   0.49387   0.00000  Uiso   1.00
O84    O     0.19758   0.58186   0.08552   0.00000  Uiso   1.00
O85    O     0.90008   0.46190   0.35398   0.00000  Uiso   1.00
O86    O     0.30560   0.70243   0.56905   0.00000  Uiso   1.00
N87    N     0.29120   0.51904   0.16822   0.00000  Uiso   1.00
N88    N     0.79182   0.43355   0.35951   0.00000  Uiso   1.00
N89    N     0.36821   0.60495   0.51279   0.00000  Uiso   1.00
N90    N     0.25918   0.64482   0.14691   0.00000  Uiso   1.00
N91    N     0.75979   0.55933   0.33820   0.00000  Uiso   1.00
N92    N     0.33619   0.73073   0.49147   0.00000  Uiso   1.00
C93    C     0.35119   0.09638   0.34797   0.00000  Uiso   1.00
C94    C     0.35674   0.09151   0.28954   0.00000  Uiso   1.00
C95    C     0.38355   0.13506   0.26322   0.00000  Uiso   1.00
C96    C     0.38406   0.12204   0.20976   0.00000  Uiso   1.00
C97    C     0.39650   0.12283   0.12301   0.00000  Uiso   1.00
C98    C     0.26062   0.11858   0.34659   0.00000  Uiso   1.00
C99    C     0.20661   0.18487   0.36824   0.00000  Uiso   1.00
C100   C     0.12621   0.19463   0.36280   0.00000  Uiso   1.00
C101   C     0.98944   0.23740   0.36465   0.00000  Uiso   1.00
C102   C     0.40415   0.01015   0.37478   0.00000  Uiso   1.00
C103   C     0.47082   0.98527   0.42014   0.00000  Uiso   1.00
C104   C     0.51124   0.90374   0.43844   0.00000  Uiso   1.00
C105   C     0.59733   0.77816   0.48406   0.00000  Uiso   1.00
C106   C     0.30442   0.99584   0.29982   0.00000  Uiso   1.00
C107   C     0.33133   0.03690   0.26339   0.00000  Uiso   1.00
C108   C     0.33180   0.02382   0.20995   0.00000  Uiso   1.00
C109   C     0.35861   0.06733   0.18356   0.00000  Uiso   1.00
C110   C     0.23521   0.06397   0.32044   0.00000  Uiso   1.00
C111   C     0.15487   0.07363   0.31497   0.00000  Uiso   1.00
C112   C     0.10075   0.13992   0.33660   0.00000  Uiso   1.00
C113   C     0.37875   0.95554   0.34863   0.00000  Uiso   1.00
C114   C     0.41907   0.87403   0.36687   0.00000  Uiso   1.00
C115   C     0.48579   0.84904   0.41225   0.00000  Uiso   1.00
H116   H     0.37096   0.13890   0.36833   0.00000  Uiso   1.00
H117   H     0.40320   0.17732   0.28347   0.00000  Uiso   1.00
H118   H     0.22629   0.22712   0.38847   0.00000  Uiso   1.00
H119   H     0.49046   0.02755   0.44037   0.00000  Uiso   1.00
H120   H     0.42770   0.19585   0.17785   0.00000  Uiso   1.00
H121   H     0.05470   0.30084   0.39928   0.00000  Uiso   1.00
H122   H     0.61174   0.88001   0.50870   0.00000  Uiso   1.00
H123   H     0.28464   0.95332   0.27946   0.00000  Uiso   1.00
H124   H     0.31214   0.98155   0.18973   0.00000  Uiso   1.00
H125   H     0.13523   0.03136   0.29473   0.00000  Uiso   1.00
H126   H     0.39940   0.83179   0.34662   0.00000  Uiso   1.00
H127   H     0.35379   0.03697   0.10177   0.00000  Uiso   1.00
H128   H     0.98079   0.14196   0.32319   0.00000  Uiso   1.00
H129   H     0.53783   0.72113   0.43261   0.00000  Uiso   1.00
O130   O     0.41037   0.13835   0.08238   0.00000  Uiso   1.00
O131   O     0.92101   0.27609   0.37288   0.00000  Uiso   1.00
O132   O     0.65184   0.72397   0.51645   0.00000  Uiso   1.00
N133   N     0.40655   0.15457   0.17226   0.00000  Uiso   1.00
N134   N     0.05781   0.25274   0.37927   0.00000  Uiso   1.00
N135   N     0.57858   0.85930   0.48159   0.00000  Uiso   1.00
N136   N     0.36678   0.06908   0.13132   0.00000  Uiso   1.00
N137   N     0.01804   0.16724   0.33833   0.00000  Uiso   1.00
N138   N     0.53882   0.77381   0.44064   0.00000  Uiso   1.00
C139   C     0.26683   0.06576   0.85706   0.00000  Uiso   1.00
C140   C     0.29682   0.04563   0.80554   0.00000  Uiso   1.00
C141   C     0.35178   0.96941   0.79441   0.00000  Uiso   1.00
C142   C     0.37144   0.96358   0.74500   0.00000  Uiso   1.00
C143   C     0.42316   0.92197   0.67060   0.00000  Uiso   1.00
C144   C     0.17131   0.10594   0.83952   0.00000  Uiso   1.00
C145   C     0.12073   0.08043   0.85696   0.00000  Uiso   1.00
C146   C     0.03474   0.12538   0.83616   0.00000  Uiso   1.00
C147   C     0.89159   0.17744   0.81455   0.00000  Uiso   1.00
C148   C     0.28932   0.13150   0.87956   0.00000  Uiso   1.00
C149   C     0.33796   0.12749   0.93066   0.00000  Uiso   1.00
C150   C     0.35130   0.19396   0.94357   0.00000  Uiso   1.00
C151   C     0.39139   0.28570   0.98412   0.00000  Uiso   1.00
C152   C     0.20403   0.19095   0.78912   0.00000  Uiso   1.00
C153   C     0.26271   0.11363   0.76864   0.00000  Uiso   1.00
C154   C     0.28229   0.10791   0.71923   0.00000  Uiso   1.00
C155   C     0.33727   0.03169   0.70802   0.00000  Uiso   1.00
C156   C     0.13720   0.17393   0.80262   0.00000  Uiso   1.00
C157   C     0.05125   0.21893   0.78179   0.00000  Uiso   1.00
C158   C     0.00056   0.19349   0.79919   0.00000  Uiso   1.00
C159   C     0.25521   0.19949   0.84265   0.00000  Uiso   1.00
C160   C     0.26847   0.26599   0.85549   0.00000  Uiso   1.00
C161   C     0.31712   0.26208   0.90660   0.00000  Uiso   1.00
H162   H     0.29339   0.01283   0.88579   0.00000  Uiso   1.00
H163   H     0.37816   0.91681   0.82298   0.00000  Uiso   1.00
H164   H     0.14715   0.02782   0.88553   0.00000  Uiso   1.00
H165   H     0.36434   0.07487   0.95921   0.00000  Uiso   1.00
H166   H     0.45707   0.84033   0.73704   0.00000  Uiso   1.00
H167   H     0.96998   0.07441   0.86895   0.00000  Uiso   1.00
H168   H     0.42797   0.17363   0.02433   0.00000  Uiso   1.00
H169   H     0.17747   0.24388   0.76038   0.00000  Uiso   1.00
H170   H     0.25588   0.16054   0.69068   0.00000  Uiso   1.00
H171   H     0.02488   0.27155   0.75323   0.00000  Uiso   1.00
H172   H     0.24207   0.31859   0.82692   0.00000  Uiso   1.00
H173   H     0.35783   0.03815   0.62967   0.00000  Uiso   1.00
H174   H     0.87074   0.27224   0.76158   0.00000  Uiso   1.00
H175   H     0.32873   0.37144   0.91696   0.00000  Uiso   1.00
O176   O     0.46110   0.88024   0.63976   0.00000  Uiso   1.00
O177   O     0.82206   0.18736   0.81283   0.00000  Uiso   1.00
O178   O     0.42294   0.31751   0.01668   0.00000  Uiso   1.00
N179   N     0.42297   0.89832   0.72134   0.00000  Uiso   1.00
N180   N     0.96757   0.11718   0.84466   0.00000  Uiso   1.00
N181   N     0.39573   0.20994   0.98994   0.00000  Uiso   1.00
N182   N     0.36956   0.00477   0.66357   0.00000  Uiso   1.00
N183   N     0.91417   0.22362   0.78688   0.00000  Uiso   1.00
N184   N     0.34233   0.31638   0.93216   0.00000  Uiso   1.00
C185   C     0.84078   0.64268   0.82948   0.00000  Uiso   1.00
C186   C     0.79312   0.64023   0.77282   0.00000  Uiso   1.00
C187   C     0.70741   0.66647   0.75580   0.00000  Uiso   1.00
C188   C     0.67584   0.65913   0.70236   0.00000  Uiso   1.00
C189   C     0.59388   0.66030   0.61972   0.00000  Uiso   1.00
C190   C     0.88648   0.69091   0.82325   0.00000  Uiso   1.00
C191   C     0.87927   0.75975   0.84863   0.00000  Uiso   1.00
C192   C     0.92630   0.79505   0.83764   0.00000  Uiso   1.00
C193   C     0.98932   0.87486   0.83331   0.00000  Uiso   1.00
C194   C     0.90877   0.55598   0.84808   0.00000  Uiso   1.00
C195   C     0.92032   0.51138   0.89434   0.00000  Uiso   1.00
C196   C     0.98613   0.43308   0.90426   0.00000  Uiso   1.00
C197   C     0.08375   0.30340   0.93848   0.00000  Uiso   1.00
C198   C     0.93714   0.58296   0.76484   0.00000  Uiso   1.00
C199   C     0.84547   0.60780   0.73771   0.00000  Uiso   1.00
C200   C     0.81402   0.60041   0.68428   0.00000  Uiso   1.00
C201   C     0.72828   0.62663   0.66719   0.00000  Uiso   1.00
C202   C     0.93882   0.65848   0.78814   0.00000  Uiso   1.00
C203   C     0.98588   0.69368   0.77711   0.00000  Uiso   1.00
C204   C     0.97874   0.76256   0.80246   0.00000  Uiso   1.00
C205   C     0.96111   0.52354   0.81296   0.00000  Uiso   1.00
C206   C     0.02692   0.44531   0.82282   0.00000  Uiso   1.00
C207   C     0.03856   0.40059   0.86909   0.00000  Uiso   1.00
H208   H     0.80004   0.66793   0.85682   0.00000  Uiso   1.00
H209   H     0.66693   0.69158   0.78299   0.00000  Uiso   1.00
H210   H     0.83877   0.78483   0.87580   0.00000  Uiso   1.00
H211   H     0.87980   0.53650   0.92150   0.00000  Uiso   1.00
H212   H     0.54243   0.70351   0.68564   0.00000  Uiso   1.00
H213   H     0.90478   0.90013   0.88136   0.00000  Uiso   1.00
H214   H     0.99132   0.37647   0.97773   0.00000  Uiso   1.00
H215   H     0.97789   0.55771   0.73750   0.00000  Uiso   1.00
H216   H     0.85454   0.57531   0.65712   0.00000  Uiso   1.00
H217   H     0.02638   0.66856   0.74994   0.00000  Uiso   1.00
H218   H     0.06742   0.42023   0.79564   0.00000  Uiso   1.00
H219   H     0.69470   0.60915   0.58348   0.00000  Uiso   1.00
H220   H     0.05706   0.80576   0.77921   0.00000  Uiso   1.00
H221   H     0.14359   0.28210   0.87557   0.00000  Uiso   1.00
O222   O     0.53421   0.66992   0.58383   0.00000  Uiso   1.00
O223   O     0.00961   0.92786   0.84062   0.00000  Uiso   1.00
O224   O     0.12314   0.24083   0.96705   0.00000  Uiso   1.00
N225   N     0.59520   0.67888   0.67263   0.00000  Uiso   1.00
N226   N     0.93396   0.86271   0.85561   0.00000  Uiso   1.00
N227   N     0.01488   0.37313   0.94572   0.00000  Uiso   1.00
N228   N     0.67713   0.62810   0.61766   0.00000  Uiso   1.00
N229   N     0.01590   0.81193   0.80064   0.00000  Uiso   1.00
N230   N     0.09682   0.32235   0.89075   0.00000  Uiso   1.00
C231   C     0.44185   0.47635   0.93188   0.00000  Uiso   1.00
C232   C     0.44641   0.52938   0.89003   0.00000  Uiso   1.00
C233   C     0.48517   0.57847   0.90060   0.00000  Uiso   1.00
C234   C     0.48248   0.62227   0.85678   0.00000  Uiso   1.00
C235   C     0.49569   0.70538   0.79977   0.00000  Uiso   1.00
C236   C     0.47974   0.39057   0.91458   0.00000  Uiso   1.00
C237   C     0.54651   0.32295   0.94580   0.00000  Uiso   1.00
C238   C     0.57186   0.24990   0.92265   0.00000  Uiso   1.00
C239   C     0.63678   0.11750   0.90378   0.00000  Uiso   1.00
C240   C     0.34889   0.50255   0.92484   0.00000  Uiso   1.00
C241   C     0.30564   0.52907   0.96468   0.00000  Uiso   1.00
C242   C     0.22083   0.55028   0.95017   0.00000  Uiso   1.00
C243   C     0.08259   0.59174   0.94721   0.00000  Uiso   1.00
C244   C     0.36813   0.46684   0.83528   0.00000  Uiso   1.00
C245   C     0.40637   0.52422   0.83756   0.00000  Uiso   1.00
C246   C     0.40362   0.56795   0.79372   0.00000  Uiso   1.00
C247   C     0.44237   0.61710   0.80422   0.00000  Uiso   1.00
C248   C     0.43970   0.38541   0.86212   0.00000  Uiso   1.00
C249   C     0.46496   0.31244   0.83892   0.00000  Uiso   1.00
C250   C     0.53176   0.24473   0.87009   0.00000  Uiso   1.00
C251   C     0.30885   0.49739   0.87237   0.00000  Uiso   1.00
C252   C     0.22409   0.51855   0.85779   0.00000  Uiso   1.00
C253   C     0.18073   0.54510   0.89760   0.00000  Uiso   1.00
H254   H     0.47302   0.48036   0.97274   0.00000  Uiso   1.00
H255   H     0.51616   0.58244   0.94121   0.00000  Uiso   1.00
H256   H     0.57748   0.32697   0.98640   0.00000  Uiso   1.00
H257   H     0.33665   0.53306   0.00528   0.00000  Uiso   1.00
H258   H     0.54635   0.69332   0.88311   0.00000  Uiso   1.00
H259   H     0.67563   0.15464   0.97842   0.00000  Uiso   1.00
H260   H     0.16780   0.58921   0.01822   0.00000  Uiso   1.00
H261   H     0.33696   0.46281   0.79443   0.00000  Uiso   1.00
H262   H     0.37263   0.56394   0.75312   0.00000  Uiso   1.00
H263   H     0.43396   0.30846   0.79831   0.00000  Uiso   1.00
H264   H     0.19313   0.51455   0.81719   0.00000  Uiso   1.00
H265   H     0.42986   0.67831   0.73045   0.00000  Uiso   1.00
H266   H     0.55914   0.13961   0.82576   0.00000  Uiso   1.00
H267   H     0.05131   0.57419   0.86555   0.00000  Uiso   1.00
O268   O     0.51405   0.75263   0.78282   0.00000  Uiso   1.00
O269   O     0.68365   0.04589   0.90786   0.00000  Uiso   1.00
O270   O     0.01739   0.61604   0.96008   0.00000  Uiso   1.00
N271   N     0.51402   0.67592   0.85285   0.00000  Uiso   1.00
N272   N     0.63491   0.17228   0.94196   0.00000  Uiso   1.00
N273   N     0.16013   0.57855   0.97917   0.00000  Uiso   1.00
N274   N     0.45134   0.66784   0.77071   0.00000  Uiso   1.00
N275   N     0.57222   0.16420   0.85981   0.00000  Uiso   1.00
N276   N     0.09745   0.57047   0.89702   0.00000  Uiso   1.00
C277   C     0.95280   0.08813   0.57274   0.00000  Uiso   1.00
C278   C     0.00209   0.04562   0.62890   0.00000  Uiso   1.00
C279   C     0.08767   0.99399   0.64453   0.00000  Uiso   1.00
C280   C     0.12090   0.96119   0.69773   0.00000  Uiso   1.00
C281   C     0.20514   0.89244   0.77943   0.00000  Uiso   1.00
C282   C     0.90898   0.17834   0.57993   0.00000  Uiso   1.00
C283   C     0.91627   0.23831   0.55437   0.00000  Uiso   1.00
C284   C     0.87110   0.31724   0.56634   0.00000  Uiso   1.00
C285   C     0.81074   0.45456   0.57198   0.00000  Uiso   1.00
C286   C     0.88347   0.06343   0.55511   0.00000  Uiso   1.00
C287   C     0.86929   0.02679   0.50868   0.00000  Uiso   1.00
C288   C     0.80263   0.00898   0.49976   0.00000  Uiso   1.00
C289   C     0.70266   0.96787   0.46686   0.00000  Uiso   1.00
C290   C     0.85961   0.12169   0.63945   0.00000  Uiso   1.00
C291   C     0.95147   0.06385   0.66513   0.00000  Uiso   1.00
C292   C     0.98457   0.03112   0.71833   0.00000  Uiso   1.00
C293   C     0.07019   0.97945   0.73403   0.00000  Uiso   1.00
C294   C     0.85836   0.19657   0.61616   0.00000  Uiso   1.00
C295   C     0.81317   0.27544   0.62817   0.00000  Uiso   1.00
C296   C     0.82040   0.33551   0.60264   0.00000  Uiso   1.00
C297   C     0.83285   0.08165   0.59135   0.00000  Uiso   1.00
C298   C     0.76619   0.06391   0.58249   0.00000  Uiso   1.00
C299   C     0.75192   0.02724   0.53605   0.00000  Uiso   1.00
H300   H     0.99220   0.07394   0.54454   0.00000  Uiso   1.00
H301   H     0.12683   0.97991   0.61647   0.00000  Uiso   1.00
H302   H     0.95544   0.22419   0.52633   0.00000  Uiso   1.00
H303   H     0.90847   0.01269   0.48065   0.00000  Uiso   1.00
H304   H     0.25376   0.88371   0.71222   0.00000  Uiso   1.00
H305   H     0.89237   0.39879   0.52212   0.00000  Uiso   1.00
H306   H     0.79332   0.95281   0.42581   0.00000  Uiso   1.00
H307   H     0.82020   0.13588   0.66766   0.00000  Uiso   1.00
H308   H     0.94539   0.04523   0.74636   0.00000  Uiso   1.00
H309   H     0.77400   0.28952   0.65621   0.00000  Uiso   1.00
H310   H     0.72703   0.07802   0.61054   0.00000  Uiso   1.00
H311   H     0.10650   0.93674   0.81764   0.00000  Uiso   1.00
H312   H     0.74510   0.45182   0.62754   0.00000  Uiso   1.00
H313   H     0.64606   0.00584   0.53123   0.00000  Uiso   1.00
O314   O     0.26560   0.84950   0.81448   0.00000  Uiso   1.00
O315   O     0.79144   0.52527   0.56508   0.00000  Uiso   1.00
O316   O     0.66150   0.94015   0.43871   0.00000  Uiso   1.00
N317   N     0.20192   0.90862   0.72622   0.00000  Uiso   1.00
N318   N     0.86405   0.39019   0.54851   0.00000  Uiso   1.00
N319   N     0.77144   0.97325   0.45845   0.00000  Uiso   1.00
N320   N     0.12268   0.93715   0.78295   0.00000  Uiso   1.00
N321   N     0.78481   0.41872   0.60523   0.00000  Uiso   1.00
N322   N     0.69220   0.00178   0.51517   0.00000  Uiso   1.00
C323   C     0.51349   0.49188   0.65129   0.00000  Uiso   1.00
C324   C     0.57515   0.45813   0.70624   0.00000  Uiso   1.00
C325   C     0.60915   0.49981   0.74057   0.00000  Uiso   1.00
C326   C     0.66440   0.45827   0.78906   0.00000  Uiso   1.00
C327   C     0.75700   0.41810   0.87232   0.00000  Uiso   1.00
C328   C     0.43718   0.48169   0.65353   0.00000  Uiso   1.00
C329   C     0.35517   0.54319   0.64353   0.00000  Uiso   1.00
C330   C     0.29427   0.52148   0.64764   0.00000  Uiso   1.00
C331   C     0.17265   0.51788   0.64902   0.00000  Uiso   1.00
C332   C     0.55393   0.43445   0.61129   0.00000  Uiso   1.00
C333   C     0.57008   0.45624   0.56577   0.00000  Uiso   1.00
C334   C     0.60746   0.39476   0.53431   0.00000  Uiso   1.00
C335   C     0.66713   0.31782   0.47012   0.00000  Uiso   1.00
C336   C     0.55114   0.34396   0.67635   0.00000  Uiso   1.00
C337   C     0.59560   0.37778   0.71985   0.00000  Uiso   1.00
C338   C     0.65081   0.33616   0.76830   0.00000  Uiso   1.00
C339   C     0.68489   0.37778   0.80269   0.00000  Uiso   1.00
C340   C     0.45763   0.40135   0.66714   0.00000  Uiso   1.00
C341   C     0.39683   0.37954   0.67126   0.00000  Uiso   1.00
C342   C     0.31476   0.44099   0.66127   0.00000  Uiso   1.00
C343   C     0.57439   0.35411   0.62490   0.00000  Uiso   1.00
C344   C     0.61175   0.29259   0.59350   0.00000  Uiso   1.00
C345   C     0.62795   0.31427   0.54795   0.00000  Uiso   1.00
H346   H     0.49756   0.55443   0.64070   0.00000  Uiso   1.00
H347   H     0.59330   0.56199   0.73002   0.00000  Uiso   1.00
H348   H     0.33936   0.60536   0.63299   0.00000  Uiso   1.00
H349   H     0.55424   0.51841   0.55525   0.00000  Uiso   1.00
H350   H     0.70844   0.53496   0.83507   0.00000  Uiso   1.00
H351   H     0.17299   0.62639   0.63046   0.00000  Uiso   1.00
H352   H     0.62611   0.44306   0.46652   0.00000  Uiso   1.00
H353   H     0.56707   0.28141   0.68695   0.00000  Uiso   1.00
H354   H     0.66663   0.27399   0.77882   0.00000  Uiso   1.00
H355   H     0.41268   0.31736   0.68179   0.00000  Uiso   1.00
H356   H     0.62757   0.23042   0.60405   0.00000  Uiso   1.00
H357   H     0.76796   0.30121   0.87468   0.00000  Uiso   1.00
H358   H     0.23250   0.39265   0.67006   0.00000  Uiso   1.00
H359   H     0.68562   0.20931   0.50613   0.00000  Uiso   1.00
O360   O     0.80242   0.41814   0.91448   0.00000  Uiso   1.00
O361   O     0.09992   0.53810   0.64602   0.00000  Uiso   1.00
O362   O     0.69440   0.29757   0.43095   0.00000  Uiso   1.00
N363   N     0.70880   0.48096   0.83178   0.00000  Uiso   1.00
N364   N     0.20818   0.56645   0.64049   0.00000  Uiso   1.00
N365   N     0.63179   0.39505   0.48721   0.00000  Uiso   1.00
N366   N     0.74082   0.35518   0.85309   0.00000  Uiso   1.00
N367   N     0.24021   0.44067   0.66180   0.00000  Uiso   1.00
N368   N     0.66381   0.26927   0.50853   0.00000  Uiso   1.00
C369   C     0.64881   0.90362   0.65203   0.00000  Uiso   1.00
C370   C     0.64326   0.90849   0.71046   0.00000  Uiso   1.00
C371   C     0.61645   0.86494   0.73678   0.00000  Uiso   1.00
C372   C     0.61594   0.87796   0.79024   0.00000  Uiso   1.00
C373   C     0.60350   0.87717   0.87699   0.00000  Uiso   1.00
C374   C     0.73938   0.88142   0.65341   0.00000  Uiso   1.00
C375   C     0.79339   0.81513   0.63176   0.00000  Uiso   1.00
C376   C     0.87379   0.80537   0.63720   0.00000  Uiso   1.00
C377   C     0.01056   0.76260   0.63535   0.00000  Uiso   1.00
C378   C     0.59585   0.98985   0.62522   0.00000  Uiso   1.00
C379   C     0.52918   0.01473   0.57986   0.00000  Uiso   1.00
C380   C     0.48876   0.09626   0.56156   0.00000  Uiso   1.00
C381   C     0.40267   0.22184   0.51594   0.00000  Uiso   1.00
C382   C     0.69558   0.00416   0.70018   0.00000  Uiso   1.00
C383   C     0.66867   0.96310   0.73661   0.00000  Uiso   1.00
C384   C     0.66820   0.97618   0.79005   0.00000  Uiso   1.00
C385   C     0.64139   0.93267   0.81644   0.00000  Uiso   1.00
C386   C     0.76479   0.93603   0.67956   0.00000  Uiso   1.00
C387   C     0.84513   0.92637   0.68503   0.00000  Uiso   1.00
C388   C     0.89925   0.86008   0.66340   0.00000  Uiso   1.00
C389   C     0.62125   0.04446   0.65137   0.00000  Uiso   1.00
C390   C     0.58093   0.12597   0.63313   0.00000  Uiso   1.00
C391   C     0.51421   0.15096   0.58775   0.00000  Uiso   1.00
H392   H     0.62904   0.86110   0.63167   0.00000  Uiso   1.00
H393   H     0.59680   0.82268   0.71653   0.00000  Uiso   1.00
H394   H     0.77371   0.77288   0.61153   0.00000  Uiso   1.00
H395   H     0.50954   0.97245   0.55963   0.00000  Uiso   1.00
H396   H     0.57230   0.80415   0.82215   0.00000  Uiso   1.00
H397   H     0.94530   0.69916   0.60072   0.00000  Uiso   1.00
H398   H     0.38826   0.11999   0.49130   0.00000  Uiso   1.00
H399   H     0.71536   0.04668   0.72054   0.00000  Uiso   1.00
H400   H     0.68786   0.01845   0.81027   0.00000  Uiso   1.00
H401   H     0.86477   0.96864   0.70527   0.00000  Uiso   1.00
H402   H     0.60060   0.16821   0.65338   0.00000  Uiso   1.00
H403   H     0.64621   0.96303   0.89823   0.00000  Uiso   1.00
H404   H     0.01921   0.85804   0.67681   0.00000  Uiso   1.00
H405   H     0.46217   0.27887   0.56739   0.00000  Uiso   1.00
O406   O     0.58963   0.86165   0.91762   0.00000  Uiso   1.00
O407   O     0.07899   0.72391   0.62712   0.00000  Uiso   1.00
O408   O     0.34816   0.27603   0.48355   0.00000  Uiso   1.00
N409   N     0.59345   0.84543   0.82774   0.00000  Uiso   1.00
N410   N     0.94219   0.74726   0.62073   0.00000  Uiso   1.00
N411   N     0.42142   0.14070   0.51841   0.00000  Uiso   1.00
N412   N     0.63322   0.93092   0.86868   0.00000  Uiso   1.00
N413   N     0.98196   0.83276   0.66167   0.00000  Uiso   1.00
N414   N     0.46118   0.22619   0.55936   0.00000  Uiso   1.00
C415   C     0.73317   0.93424   0.14294   0.00000  Uiso   1.00
C416   C     0.70318   0.95437   0.19446   0.00000  Uiso   1.00
C417   C     0.64822   0.03059   0.20559   0.00000  Uiso   1.00
C418   C     0.62856   0.03642   0.25500   0.00000  Uiso   1.00
C419   C     0.57684   0.07803   0.32940   0.00000  Uiso   1.00
C420   C     0.82869   0.89406   0.16048   0.00000  Uiso   1.00
C421   C     0.87927   0.91957   0.14304   0.00000  Uiso   1.00
C422   C     0.96526   0.87462   0.16384   0.00000  Uiso   1.00
C423   C     0.10841   0.82256   0.18545   0.00000  Uiso   1.00
C424   C     0.71068   0.86850   0.12044   0.00000  Uiso   1.00
C425   C     0.66204   0.87251   0.06934   0.00000  Uiso   1.00
C426   C     0.64870   0.80604   0.05643   0.00000  Uiso   1.00
C427   C     0.60861   0.71430   0.01588   0.00000  Uiso   1.00
C428   C     0.79597   0.80905   0.21088   0.00000  Uiso   1.00
C429   C     0.73729   0.88637   0.23136   0.00000  Uiso   1.00
C430   C     0.71771   0.89209   0.28077   0.00000  Uiso   1.00
C431   C     0.66273   0.96831   0.29198   0.00000  Uiso   1.00
C432   C     0.86280   0.82607   0.19738   0.00000  Uiso   1.00
C433   C     0.94875   0.78107   0.21821   0.00000  Uiso   1.00
C434   C     0.99944   0.80651   0.20081   0.00000  Uiso   1.00
C435   C     0.74479   0.80051   0.15735   0.00000  Uiso   1.00
C436   C     0.73153   0.73401   0.14451   0.00000  Uiso   1.00
C437   C     0.68288   0.73792   0.09340   0.00000  Uiso   1.00
H438   H     0.70661   0.98717   0.11421   0.00000  Uiso   1.00
H439   H     0.62184   0.08319   0.17702   0.00000  Uiso   1.00
H440   H     0.85285   0.97218   0.11447   0.00000  Uiso   1.00
H441   H     0.63566   0.92513   0.04079   0.00000  Uiso   1.00
H442   H     0.54293   0.15967   0.26296   0.00000  Uiso   1.00
H443   H     0.03002   0.92559   0.13105   0.00000  Uiso   1.00
H444   H     0.57203   0.82637   0.97567   0.00000  Uiso   1.00
H445   H     0.82253   0.75612   0.23962   0.00000  Uiso   1.00
H446   H     0.74412   0.83946   0.30932   0.00000  Uiso   1.00
H447   H     0.97512   0.72845   0.24677   0.00000  Uiso   1.00
H448   H     0.75793   0.68141   0.17308   0.00000  Uiso   1.00
H449   H     0.64217   0.96185   0.37033   0.00000  Uiso   1.00
H450   H     0.12926   0.72776   0.23842   0.00000  Uiso   1.00
H451   H     0.67127   0.62856   0.08304   0.00000  Uiso   1.00
O452   O     0.53890   0.11976   0.36024   0.00000  Uiso   1.00
O453   O     0.17794   0.81264   0.18717   0.00000  Uiso   1.00
O454   O     0.57706   0.68249   0.98332   0.00000  Uiso   1.00
N455   N     0.57703   0.10168   0.27866   0.00000  Uiso   1.00
N456   N     0.03243   0.88282   0.15534   0.00000  Uiso   1.00
N457   N     0.60427   0.79006   0.01006   0.00000  Uiso   1.00
N458   N     0.63044   0.99523   0.33643   0.00000  Uiso   1.00
N459   N     0.08583   0.77638   0.21312   0.00000  Uiso   1.00
N460   N     0.65767   0.68362   0.06784   0.00000  Uiso   1.00
C461   C     0.15922   0.35732   0.17052   0.00000  Uiso   1.00
C462   C     0.20688   0.35977   0.22718   0.00000  Uiso   1.00
C463   C     0.29259   0.33353   0.24420   0.00000  Uiso   1.00
C464   C     0.32416   0.34087   0.29764   0.00000  Uiso   1.00
C465   C     0.40612   0.33970   0.38028   0.00000  Uiso   1.00
C466   C     0.11352   0.30909   0.17675   0.00000  Uiso   1.00
C467   C     0.12073   0.24025   0.15137   0.00000  Uiso   1.00
C468   C     0.07370   0.20495   0.16236   0.00000  Uiso   1.00
C469   C     0.01068   0.12514   0.16669   0.00000  Uiso   1.00
C470   C     0.09123   0.44402   0.15192   0.00000  Uiso   1.00
C471   C     0.07968   0.48862   0.10566   0.00000  Uiso   1.00
C472   C     0.01387   0.56692   0.09574   0.00000  Uiso   1.00
C473   C     0.91625   0.69660   0.06152   0.00000  Uiso   1.00
C474   C     0.06286   0.41704   0.23516   0.00000  Uiso   1.00
C475   C     0.15453   0.39220   0.26229   0.00000  Uiso   1.00
C476   C     0.18598   0.39959   0.31572   0.00000  Uiso   1.00
C477   C     0.27172   0.37337   0.33281   0.00000  Uiso   1.00
C478   C     0.06118   0.34152   0.21186   0.00000  Uiso   1.00
C479   C     0.01412   0.30632   0.22289   0.00000  Uiso   1.00
C480   C     0.02126   0.23744   0.19754   0.00000  Uiso   1.00
C481   C     0.03889   0.47646   0.18704   0.00000  Uiso   1.00
C482   C     0.97308   0.55469   0.17718   0.00000  Uiso   1.00
C483   C     0.96144   0.59941   0.13091   0.00000  Uiso   1.00
H484   H     0.19996   0.33207   0.14318   0.00000  Uiso   1.00
H485   H     0.33307   0.30842   0.21701   0.00000  Uiso   1.00
H486   H     0.16123   0.21517   0.12420   0.00000  Uiso   1.00
H487   H     0.12020   0.46350   0.07850   0.00000  Uiso   1.00
H488   H     0.45757   0.29649   0.31436   0.00000  Uiso   1.00
H489   H     0.09522   0.09987   0.11864   0.00000  Uiso   1.00
H490   H     0.00868   0.62353   0.02227   0.00000  Uiso   1.00
H491   H     0.02211   0.44229   0.26250   0.00000  Uiso   1.00
H492   H     0.14546   0.42469   0.34288   0.00000  Uiso   1.00
H493   H     0.97362   0.33144   0.25006   0.00000  Uiso   1.00
H494   H     0.93258   0.57977   0.20436   0.00000  Uiso   1.00
H495   H     0.30530   0.39085   0.41652   0.00000  Uiso   1.00
H496   H     0.94294   0.19424   0.22079   0.00000  Uiso   1.00
H497   H     0.85641   0.71790   0.12443   0.00000  Uiso   1.00
O498   O     0.46579   0.33008   0.41617   0.00000  Uiso   1.00
O499   O     0.99039   0.07214   0.15938   0.00000  Uiso   1.00
O500   O     0.87686   0.75917   0.03295   0.00000  Uiso   1.00
N501   N     0.40480   0.32112   0.32737   0.00000  Uiso   1.00
N502   N     0.06604   0.13729   0.14439   0.00000  Uiso   1.00
N503   N     0.98512   0.62687   0.05428   0.00000  Uiso   1.00
N504   N     0.32287   0.37190   0.38234   0.00000  Uiso   1.00
N505   N     0.98410   0.18807   0.19936   0.00000  Uiso   1.00
N506   N     0.90318   0.67765   0.10925   0.00000  Uiso   1.00
C507   C     0.55815   0.52365   0.06812   0.00000  Uiso   1.00
C508   C     0.55359   0.47062   0.10997   0.00000  Uiso   1.00
C509   C     0.51483   0.42153   0.09940   0.00000  Uiso   1.00
C510   C     0.51752   0.37773   0.14322   0.00000  Uiso   1.00
C511   C     0.50431   0.29462   0.20023   0.00000  Uiso   1.00
C512   C     0.52026   0.60943   0.08542   0.00000  Uiso   1.00
C513   C     0.45349   0.67705   0.05420   0.00000  Uiso   1.00
C514   C     0.42814   0.75010   0.07735   0.00000  Uiso   1.00
C515   C     0.36322   0.88250   0.09622   0.00000  Uiso   1.00
C516   C     0.65111   0.49745   0.07516   0.00000  Uiso   1.00
C517   C     0.69436   0.47093   0.03532   0.00000  Uiso   1.00
C518   C     0.77917   0.44972   0.04983   0.00000  Uiso   1.00
C519   C     0.91741   0.40826   0.05279   0.00000  Uiso   1.00
C520   C     0.63187   0.53316   0.16472   0.00000  Uiso   1.00
C521   C     0.59363   0.47578   0.16244   0.00000  Uiso   1.00
C522   C     0.59638   0.43205   0.20628   0.00000  Uiso   1.00
C523   C     0.55763   0.38290   0.19578   0.00000  Uiso   1.00
C524   C     0.56030   0.61459   0.13788   0.00000  Uiso   1.00
C525   C     0.53504   0.68756   0.16108   0.00000  Uiso   1.00
C526   C     0.46824   0.75527   0.12991   0.00000  Uiso   1.00
C527   C     0.69115   0.50261   0.12763   0.00000  Uiso   1.00
C528   C     0.77591   0.48145   0.14221   0.00000  Uiso   1.00
C529   C     0.81927   0.45490   0.10240   0.00000  Uiso   1.00
H530   H     0.52698   0.51964   0.02726   0.00000  Uiso   1.00
H531   H     0.48384   0.41756   0.05879   0.00000  Uiso   1.00
H532   H     0.42252   0.67303   0.01360   0.00000  Uiso   1.00
H533   H     0.66335   0.46694   0.99472   0.00000  Uiso   1.00
H534   H     0.45365   0.30668   0.11689   0.00000  Uiso   1.00
H535   H     0.32437   0.84536   0.02158   0.00000  Uiso   1.00
H536   H     0.83220   0.41079   0.98178   0.00000  Uiso   1.00
H537   H     0.66304   0.53719   0.20557   0.00000  Uiso   1.00
H538   H     0.62737   0.43606   0.24688   0.00000  Uiso   1.00
H539   H     0.56604   0.69154   0.20169   0.00000  Uiso   1.00
H540   H     0.80687   0.48545   0.18281   0.00000  Uiso   1.00
H541   H     0.57014   0.32169   0.26955   0.00000  Uiso   1.00
H542   H     0.44086   0.86039   0.17424   0.00000  Uiso   1.00
H543   H     0.94869   0.42581   0.13445   0.00000  Uiso   1.00
O544   O     0.48595   0.24737   0.21718   0.00000  Uiso   1.00
O545   O     0.31635   0.95411   0.09214   0.00000  Uiso   1.00
O546   O     0.98261   0.38396   0.03992   0.00000  Uiso   1.00
N547   N     0.48598   0.32408   0.14715   0.00000  Uiso   1.00
N548   N     0.36509   0.82772   0.05804   0.00000  Uiso   1.00
N549   N     0.83987   0.42145   0.02083   0.00000  Uiso   1.00
N550   N     0.54866   0.33216   0.22929   0.00000  Uiso   1.00
N551   N     0.42778   0.83580   0.14019   0.00000  Uiso   1.00
N552   N     0.90255   0.42953   0.10298   0.00000  Uiso   1.00
