data_job_07089
_audit_creation_date              2018-12-19
_audit_creation_method            'Materials Studio'
_symmetry_space_group_name_H-M    'P1'
_symmetry_Int_Tables_number       1
_symmetry_cell_setting            triclinic
loop_
_symmetry_equiv_pos_as_xyz
  x,y,z
_cell_length_a                    22.2734
_cell_length_b                    22.4951
_cell_length_c                    32.2536
_cell_angle_alpha                 107.8510
_cell_angle_beta                  93.3557
_cell_angle_gamma                 61.6186
loop_
_atom_site_label
_atom_site_type_symbol
_atom_site_fract_x
_atom_site_fract_y
_atom_site_fract_z
_atom_site_U_iso_or_equiv
_atom_site_adp_type
_atom_site_occupancy
C1     C     0.83642   0.03607   0.90206   0.00000  Uiso   1.00
C2     C     0.77454   0.02569   0.88812   0.00000  Uiso   1.00
C3     C     0.76306   0.97226   0.89236   0.00000  Uiso   1.00
C4     C     0.70337   0.97189   0.87762   0.00000  Uiso   1.00
C5     C     0.61438   0.94795   0.85874   0.00000  Uiso   1.00
C6     C     0.86848   0.03539   0.86130   0.00000  Uiso   1.00
C7     C     0.93599   0.99011   0.84299   0.00000  Uiso   1.00
C8     C     0.95538   0.99792   0.80568   0.00000  Uiso   1.00
C9     C     0.01224   0.98907   0.74519   0.00000  Uiso   1.00
C10    C     0.80759   0.11180   0.93365   0.00000  Uiso   1.00
C11    C     0.82391   0.13078   0.97618   0.00000  Uiso   1.00
C12    C     0.79204   0.20293   0.99978   0.00000  Uiso   1.00
C13    C     0.75435   0.31273   0.05163   0.00000  Uiso   1.00
C14    C     0.75082   0.13044   0.86835   0.00000  Uiso   1.00
C15    C     0.72805   0.07695   0.86981   0.00000  Uiso   1.00
C16    C     0.66836   0.07666   0.85507   0.00000  Uiso   1.00
C17    C     0.65679   0.02324   0.85928   0.00000  Uiso   1.00
C18    C     0.82199   0.08664   0.84299   0.00000  Uiso   1.00
C19    C     0.84128   0.09452   0.80570   0.00000  Uiso   1.00
C20    C     0.90880   0.04927   0.78734   0.00000  Uiso   1.00
C21    C     0.76109   0.16306   0.91534   0.00000  Uiso   1.00
C22    C     0.72920   0.23519   0.93889   0.00000  Uiso   1.00
C23    C     0.74546   0.25428   0.98144   0.00000  Uiso   1.00
H24    H     0.87262   0.99617   0.91631   0.00000  Uiso   1.00
H25    H     0.79906   0.93260   0.90652   0.00000  Uiso   1.00
H26    H     0.97196   0.95046   0.85717   0.00000  Uiso   1.00
H27    H     0.85989   0.09111   0.99033   0.00000  Uiso   1.00
H28    H     0.69701   0.88470   0.88759   0.00000  Uiso   1.00
H29    H     0.06158   0.92238   0.78353   0.00000  Uiso   1.00
H30    H     0.82527   0.21897   0.06434   0.00000  Uiso   1.00
H31    H     0.71463   0.17035   0.85410   0.00000  Uiso   1.00
H32    H     0.63239   0.11633   0.84090   0.00000  Uiso   1.00
H33    H     0.80529   0.13419   0.79154   0.00000  Uiso   1.00
H34    H     0.69322   0.27484   0.92471   0.00000  Uiso   1.00
H35    H     0.56174   0.03383   0.83432   0.00000  Uiso   1.00
H36    H     0.92631   0.07151   0.73027   0.00000  Uiso   1.00
H37    H     0.68999   0.36809   0.01107   0.00000  Uiso   1.00
O38    O     0.57814   0.92058   0.85338   0.00000  Uiso   1.00
O39    O     0.05645   0.97002   0.71687   0.00000  Uiso   1.00
O40    O     0.74640   0.35913   0.08528   0.00000  Uiso   1.00
N41    N     0.67645   0.92722   0.87687   0.00000  Uiso   1.00
N42    N     0.01730   0.96244   0.77958   0.00000  Uiso   1.00
N43    N     0.79638   0.23972   0.04211   0.00000  Uiso   1.00
N44    N     0.60366   0.00747   0.84821   0.00000  Uiso   1.00
N45    N     0.94451   0.04269   0.75092   0.00000  Uiso   1.00
N46    N     0.72359   0.31997   0.01344   0.00000  Uiso   1.00
C47    C     0.42986   0.64836   0.88165   0.00000  Uiso   1.00
C48    C     0.46938   0.56820   0.85858   0.00000  Uiso   1.00
C49    C     0.53416   0.53129   0.83570   0.00000  Uiso   1.00
C50    C     0.56151   0.45809   0.81692   0.00000  Uiso   1.00
C51    C     0.62837   0.33893   0.78047   0.00000  Uiso   1.00
C52    C     0.36142   0.67499   0.86223   0.00000  Uiso   1.00
C53    C     0.33541   0.72787   0.84243   0.00000  Uiso   1.00
C54    C     0.27187   0.74457   0.82673   0.00000  Uiso   1.00
C55    C     0.17109   0.79125   0.79598   0.00000  Uiso   1.00
C56    C     0.41313   0.65780   0.92917   0.00000  Uiso   1.00
C57    C     0.43060   0.69624   0.96565   0.00000  Uiso   1.00
C58    C     0.41058   0.69848   0.00631   0.00000  Uiso   1.00
C59    C     0.39009   0.71846   0.07949   0.00000  Uiso   1.00
C60    C     0.36324   0.58400   0.88899   0.00000  Uiso   1.00
C61    C     0.43319   0.53324   0.86257   0.00000  Uiso   1.00
C62    C     0.46046   0.46008   0.84382   0.00000  Uiso   1.00
C63    C     0.52527   0.42306   0.82091   0.00000  Uiso   1.00
C64    C     0.32523   0.64003   0.86622   0.00000  Uiso   1.00
C65    C     0.26171   0.65666   0.85055   0.00000  Uiso   1.00
C66    C     0.23562   0.70955   0.83072   0.00000  Uiso   1.00
C67    C     0.37695   0.62284   0.93316   0.00000  Uiso   1.00
C68    C     0.35690   0.62502   0.97377   0.00000  Uiso   1.00
C69    C     0.37433   0.66345   0.01031   0.00000  Uiso   1.00
H70    H     0.45803   0.67558   0.87855   0.00000  Uiso   1.00
H71    H     0.56214   0.55836   0.83262   0.00000  Uiso   1.00
H72    H     0.36343   0.75492   0.83935   0.00000  Uiso   1.00
H73    H     0.45860   0.72328   0.96255   0.00000  Uiso   1.00
H74    H     0.66161   0.41299   0.78344   0.00000  Uiso   1.00
H75    H     0.24259   0.82746   0.79765   0.00000  Uiso   1.00
H76    H     0.44328   0.76075   0.05745   0.00000  Uiso   1.00
H77    H     0.33507   0.55678   0.89210   0.00000  Uiso   1.00
H78    H     0.43244   0.43304   0.84691   0.00000  Uiso   1.00
H79    H     0.23372   0.62960   0.85364   0.00000  Uiso   1.00
H80    H     0.32890   0.59796   0.97684   0.00000  Uiso   1.00
H81    H     0.55634   0.31127   0.79504   0.00000  Uiso   1.00
H82    H     0.13732   0.72575   0.80925   0.00000  Uiso   1.00
H83    H     0.33800   0.65903   0.06905   0.00000  Uiso   1.00
O84    O     0.67523   0.28287   0.75925   0.00000  Uiso   1.00
O85    O     0.12549   0.82665   0.77791   0.00000  Uiso   1.00
O86    O     0.38879   0.73913   0.11876   0.00000  Uiso   1.00
N87    N     0.62347   0.40603   0.79238   0.00000  Uiso   1.00
N88    N     0.23172   0.79353   0.80566   0.00000  Uiso   1.00
N89    N     0.41933   0.73118   0.04855   0.00000  Uiso   1.00
N90    N     0.56683   0.35129   0.79862   0.00000  Uiso   1.00
N91    N     0.17508   0.73879   0.81190   0.00000  Uiso   1.00
N92    N     0.36269   0.67644   0.05479   0.00000  Uiso   1.00
C93    C     0.18300   0.08992   0.85637   0.00000  Uiso   1.00
C94    C     0.22789   0.12293   0.85320   0.00000  Uiso   1.00
C95    C     0.20494   0.18978   0.84902   0.00000  Uiso   1.00
C96    C     0.25410   0.21023   0.84663   0.00000  Uiso   1.00
C97    C     0.31322   0.26829   0.84142   0.00000  Uiso   1.00
C98    C     0.21214   0.01917   0.81932   0.00000  Uiso   1.00
C99    C     0.17594   0.99877   0.78666   0.00000  Uiso   1.00
C100   C     0.21184   0.93187   0.75574   0.00000  Uiso   1.00
C101   C     0.24649   0.82881   0.69795   0.00000  Uiso   1.00
C102   C     0.19679   0.07110   0.89876   0.00000  Uiso   1.00
C103   C     0.14769   0.09435   0.93290   0.00000  Uiso   1.00
C104   C     0.17067   0.07117   0.96887   0.00000  Uiso   1.00
C105   C     0.18149   0.04875   0.03443   0.00000  Uiso   1.00
C106   C     0.31113   0.00738   0.85954   0.00000  Uiso   1.00
C107   C     0.29748   0.07809   0.85492   0.00000  Uiso   1.00
C108   C     0.34670   0.09845   0.85254   0.00000  Uiso   1.00
C109   C     0.32382   0.16532   0.84836   0.00000  Uiso   1.00
C110   C     0.28173   0.97433   0.82104   0.00000  Uiso   1.00
C111   C     0.31770   0.90744   0.79017   0.00000  Uiso   1.00
C112   C     0.28157   0.88695   0.75747   0.00000  Uiso   1.00
C113   C     0.26639   0.02627   0.90049   0.00000  Uiso   1.00
C114   C     0.28945   0.00303   0.93641   0.00000  Uiso   1.00
C115   C     0.24039   0.02625   0.97059   0.00000  Uiso   1.00
H116   H     0.12882   0.12483   0.85502   0.00000  Uiso   1.00
H117   H     0.15107   0.22446   0.84769   0.00000  Uiso   1.00
H118   H     0.12208   0.03347   0.78533   0.00000  Uiso   1.00
H119   H     0.09384   0.12905   0.93155   0.00000  Uiso   1.00
H120   H     0.20644   0.31513   0.84030   0.00000  Uiso   1.00
H121   H     0.14530   0.91243   0.70883   0.00000  Uiso   1.00
H122   H     0.08574   0.11396   0.01716   0.00000  Uiso   1.00
H123   H     0.36532   0.97247   0.86088   0.00000  Uiso   1.00
H124   H     0.40055   0.06374   0.85387   0.00000  Uiso   1.00
H125   H     0.37155   0.87276   0.79151   0.00000  Uiso   1.00
H126   H     0.34331   0.96834   0.93773   0.00000  Uiso   1.00
H127   H     0.40893   0.18469   0.84531   0.00000  Uiso   1.00
H128   H     0.34778   0.78198   0.71384   0.00000  Uiso   1.00
H129   H     0.28822   0.98352   0.02217   0.00000  Uiso   1.00
O130   O     0.32660   0.31269   0.83807   0.00000  Uiso   1.00
O131   O     0.24637   0.78436   0.66560   0.00000  Uiso   1.00
O132   O     0.16824   0.04877   0.07011   0.00000  Uiso   1.00
N133   N     0.24926   0.27191   0.84245   0.00000  Uiso   1.00
N134   N     0.19210   0.89541   0.71953   0.00000  Uiso   1.00
N135   N     0.13641   0.08382   0.00779   0.00000  Uiso   1.00
N136   N     0.35821   0.20172   0.84515   0.00000  Uiso   1.00
N137   N     0.30105   0.82522   0.72223   0.00000  Uiso   1.00
N138   N     0.24537   0.01363   0.01049   0.00000  Uiso   1.00
C139   C     0.86353   0.54131   0.24295   0.00000  Uiso   1.00
C140   C     0.88119   0.46412   0.21930   0.00000  Uiso   1.00
C141   C     0.84418   0.44173   0.18824   0.00000  Uiso   1.00
C142   C     0.86878   0.36877   0.17041   0.00000  Uiso   1.00
C143   C     0.88718   0.25633   0.13172   0.00000  Uiso   1.00
C144   C     0.92670   0.54708   0.23397   0.00000  Uiso   1.00
C145   C     0.92795   0.59446   0.21524   0.00000  Uiso   1.00
C146   C     0.99086   0.59135   0.20977   0.00000  Uiso   1.00
C147   C     0.07990   0.60775   0.19388   0.00000  Uiso   1.00
C148   C     0.85774   0.55122   0.29176   0.00000  Uiso   1.00
C149   C     0.80100   0.60209   0.32162   0.00000  Uiso   1.00
C150   C     0.80586   0.60247   0.36481   0.00000  Uiso   1.00
C151   C     0.78783   0.62529   0.43864   0.00000  Uiso   1.00
C152   C     0.97304   0.45156   0.26655   0.00000  Uiso   1.00
C153   C     0.94068   0.41537   0.23211   0.00000  Uiso   1.00
C154   C     0.96534   0.34243   0.21434   0.00000  Uiso   1.00
C155   C     0.92837   0.31994   0.18325   0.00000  Uiso   1.00
C156   C     0.98618   0.49834   0.24678   0.00000  Uiso   1.00
C157   C     0.04911   0.49516   0.24134   0.00000  Uiso   1.00
C158   C     0.05045   0.54251   0.22260   0.00000  Uiso   1.00
C159   C     0.91722   0.50247   0.30457   0.00000  Uiso   1.00
C160   C     0.92216   0.50278   0.34772   0.00000  Uiso   1.00
C161   C     0.86545   0.55363   0.37764   0.00000  Uiso   1.00
H162   H     0.81722   0.57926   0.23298   0.00000  Uiso   1.00
H163   H     0.79815   0.47947   0.17832   0.00000  Uiso   1.00
H164   H     0.88191   0.63218   0.20533   0.00000  Uiso   1.00
H165   H     0.75498   0.63980   0.31169   0.00000  Uiso   1.00
H166   H     0.80326   0.34733   0.12337   0.00000  Uiso   1.00
H167   H     0.97985   0.66935   0.18033   0.00000  Uiso   1.00
H168   H     0.71221   0.68542   0.40461   0.00000  Uiso   1.00
H169   H     0.01935   0.41361   0.27652   0.00000  Uiso   1.00
H170   H     0.01137   0.30472   0.22426   0.00000  Uiso   1.00
H171   H     0.09512   0.45743   0.25126   0.00000  Uiso   1.00
H172   H     0.96820   0.46505   0.35762   0.00000  Uiso   1.00
H173   H     0.97632   0.20550   0.16065   0.00000  Uiso   1.00
H174   H     0.15291   0.52752   0.21761   0.00000  Uiso   1.00
H175   H     0.88527   0.54358   0.44189   0.00000  Uiso   1.00
O176   O     0.88091   0.20778   0.10683   0.00000  Uiso   1.00
O177   O     0.11258   0.63026   0.18156   0.00000  Uiso   1.00
O178   O     0.76145   0.65134   0.47582   0.00000  Uiso   1.00
N179   N     0.84508   0.32890   0.13932   0.00000  Uiso   1.00
N180   N     0.01018   0.62995   0.19257   0.00000  Uiso   1.00
N181   N     0.75997   0.64499   0.40226   0.00000  Uiso   1.00
N182   N     0.93820   0.25258   0.15938   0.00000  Uiso   1.00
N183   N     0.10330   0.55363   0.21263   0.00000  Uiso   1.00
N184   N     0.85309   0.56867   0.42232   0.00000  Uiso   1.00
C185   C     0.43828   0.05756   0.34095   0.00000  Uiso   1.00
C186   C     0.39119   0.09609   0.31086   0.00000  Uiso   1.00
C187   C     0.37951   0.16089   0.30783   0.00000  Uiso   1.00
C188   C     0.33465   0.18724   0.27832   0.00000  Uiso   1.00
C189   C     0.26643   0.25270   0.23547   0.00000  Uiso   1.00
C190   C     0.48942   0.98375   0.31129   0.00000  Uiso   1.00
C191   C     0.56033   0.95409   0.30864   0.00000  Uiso   1.00
C192   C     0.59816   0.88587   0.27949   0.00000  Uiso   1.00
C193   C     0.68245   0.77689   0.23734   0.00000  Uiso   1.00
C194   C     0.39386   0.04595   0.36847   0.00000  Uiso   1.00
C195   C     0.38443   0.06858   0.41388   0.00000  Uiso   1.00
C196   C     0.34181   0.05271   0.43287   0.00000  Uiso   1.00
C197   C     0.27772   0.04033   0.47948   0.00000  Uiso   1.00
C198   C     0.37937   0.98913   0.29392   0.00000  Uiso   1.00
C199   C     0.35920   0.05892   0.28532   0.00000  Uiso   1.00
C200   C     0.31433   0.08518   0.25580   0.00000  Uiso   1.00
C201   C     0.30259   0.15001   0.25273   0.00000  Uiso   1.00
C202   C     0.45743   0.94658   0.28575   0.00000  Uiso   1.00
C203   C     0.49516   0.87838   0.25660   0.00000  Uiso   1.00
C204   C     0.56611   0.84863   0.25390   0.00000  Uiso   1.00
C205   C     0.36186   0.00878   0.34292   0.00000  Uiso   1.00
C206   C     0.31925   0.99288   0.36185   0.00000  Uiso   1.00
C207   C     0.30976   0.01548   0.40728   0.00000  Uiso   1.00
H208   H     0.46319   0.08649   0.36084   0.00000  Uiso   1.00
H209   H     0.40429   0.18963   0.32761   0.00000  Uiso   1.00
H210   H     0.58508   0.98286   0.32841   0.00000  Uiso   1.00
H211   H     0.40920   0.09734   0.43364   0.00000  Uiso   1.00
H212   H     0.32489   0.28758   0.27948   0.00000  Uiso   1.00
H213   H     0.70610   0.85158   0.28120   0.00000  Uiso   1.00
H214   H     0.33523   0.09298   0.50309   0.00000  Uiso   1.00
H215   H     0.35446   0.96019   0.27403   0.00000  Uiso   1.00
H216   H     0.28958   0.05641   0.23604   0.00000  Uiso   1.00
H217   H     0.47038   0.84963   0.23684   0.00000  Uiso   1.00
H218   H     0.29450   0.96411   0.34207   0.00000  Uiso   1.00
H219   H     0.23179   0.17945   0.20516   0.00000  Uiso   1.00
H220   H     0.61301   0.74345   0.20688   0.00000  Uiso   1.00
H221   H     0.24213   0.98485   0.42876   0.00000  Uiso   1.00
O222   O     0.23764   0.29907   0.21888   0.00000  Uiso   1.00
O223   O     0.73778   0.72706   0.22114   0.00000  Uiso   1.00
O224   O     0.25120   0.04377   0.51225   0.00000  Uiso   1.00
N225   N     0.31187   0.24893   0.26721   0.00000  Uiso   1.00
N226   N     0.66828   0.84130   0.26881   0.00000  Uiso   1.00
N227   N     0.32156   0.06697   0.47626   0.00000  Uiso   1.00
N228   N     0.26178   0.19075   0.22722   0.00000  Uiso   1.00
N229   N     0.61819   0.78312   0.22882   0.00000  Uiso   1.00
N230   N     0.27146   0.00879   0.43627   0.00000  Uiso   1.00
C231   C     0.76950   0.01300   0.52536   0.00000  Uiso   1.00
C232   C     0.81592   0.04662   0.53949   0.00000  Uiso   1.00
C233   C     0.88367   0.01166   0.54798   0.00000  Uiso   1.00
C234   C     0.91737   0.05181   0.56051   0.00000  Uiso   1.00
C235   C     0.99447   0.09296   0.58185   0.00000  Uiso   1.00
C236   C     0.74455   0.02678   0.48249   0.00000  Uiso   1.00
C237   C     0.75228   0.97515   0.44306   0.00000  Uiso   1.00
C238   C     0.72589   0.99860   0.40761   0.00000  Uiso   1.00
C239   C     0.69214   0.00897   0.34046   0.00000  Uiso   1.00
C240   C     0.70648   0.05707   0.55898   0.00000  Uiso   1.00
C241   C     0.68220   0.03090   0.58386   0.00000  Uiso   1.00
C242   C     0.62375   0.07985   0.61280   0.00000  Uiso   1.00
C243   C     0.53091   0.13724   0.66442   0.00000  Uiso   1.00
C244   C     0.70888   0.14646   0.53251   0.00000  Uiso   1.00
C245   C     0.78299   0.11911   0.54338   0.00000  Uiso   1.00
C246   C     0.81660   0.15932   0.55590   0.00000  Uiso   1.00
C247   C     0.88438   0.12443   0.56441   0.00000  Uiso   1.00
C248   C     0.71162   0.09927   0.48638   0.00000  Uiso   1.00
C249   C     0.68521   0.12281   0.45097   0.00000  Uiso   1.00
C250   C     0.69290   0.07122   0.41150   0.00000  Uiso   1.00
C251   C     0.67356   0.12956   0.56287   0.00000  Uiso   1.00
C252   C     0.61513   0.17856   0.59178   0.00000  Uiso   1.00
C253   C     0.59077   0.15247   0.61669   0.00000  Uiso   1.00
H254   H     0.79513   0.95657   0.52233   0.00000  Uiso   1.00
H255   H     0.90913   0.95556   0.54497   0.00000  Uiso   1.00
H256   H     0.77776   0.91906   0.44006   0.00000  Uiso   1.00
H257   H     0.70769   0.97480   0.58084   0.00000  Uiso   1.00
H258   H     0.02101   0.98640   0.57176   0.00000  Uiso   1.00
H259   H     0.74398   0.90944   0.35057   0.00000  Uiso   1.00
H260   H     0.59623   0.02698   0.64743   0.00000  Uiso   1.00
H261   H     0.68324   0.20290   0.53553   0.00000  Uiso   1.00
H262   H     0.79110   0.21541   0.55890   0.00000  Uiso   1.00
H263   H     0.65973   0.17891   0.45399   0.00000  Uiso   1.00
H264   H     0.58967   0.23465   0.59478   0.00000  Uiso   1.00
H265   H     0.92522   0.19731   0.58307   0.00000  Uiso   1.00
H266   H     0.64818   0.12034   0.36188   0.00000  Uiso   1.00
H267   H     0.50044   0.23788   0.65874   0.00000  Uiso   1.00
O268   O     0.04609   0.09564   0.59254   0.00000  Uiso   1.00
O269   O     0.68263   0.99466   0.30234   0.00000  Uiso   1.00
O270   O     0.48880   0.14887   0.69182   0.00000  Uiso   1.00
N271   N     0.98366   0.03433   0.57123   0.00000  Uiso   1.00
N272   N     0.72466   0.96237   0.36442   0.00000  Uiso   1.00
N273   N     0.58652   0.07225   0.64196   0.00000  Uiso   1.00
N274   N     0.93211   0.14781   0.57731   0.00000  Uiso   1.00
N275   N     0.67311   0.07586   0.37051   0.00000  Uiso   1.00
N276   N     0.53497   0.18574   0.64804   0.00000  Uiso   1.00
C277   C     0.45987   0.03768   0.11413   0.00000  Uiso   1.00
C278   C     0.48994   0.05333   0.15730   0.00000  Uiso   1.00
C279   C     0.47868   0.12009   0.18368   0.00000  Uiso   1.00
C280   C     0.51084   0.12323   0.22188   0.00000  Uiso   1.00
C281   C     0.55113   0.15689   0.28719   0.00000  Uiso   1.00
C282   C     0.42163   0.99898   0.11945   0.00000  Uiso   1.00
C283   C     0.35295   0.02005   0.11399   0.00000  Uiso   1.00
C284   C     0.32761   0.97743   0.12033   0.00000  Uiso   1.00
C285   C     0.26187   0.92669   0.12684   0.00000  Uiso   1.00
C286   C     0.52087   0.98317   0.08001   0.00000  Uiso   1.00
C287   C     0.53563   0.99092   0.04138   0.00000  Uiso   1.00
C288   C     0.59384   0.93497   0.01450   0.00000  Uiso   1.00
C289   C     0.68218   0.85967   0.95977   0.00000  Uiso   1.00
C290   C     0.53699   0.92452   0.13507   0.00000  Uiso   1.00
C291   C     0.53182   0.99187   0.16867   0.00000  Uiso   1.00
C292   C     0.56401   0.99490   0.20684   0.00000  Uiso   1.00
C293   C     0.55280   0.06166   0.23327   0.00000  Uiso   1.00
C294   C     0.46352   0.93752   0.13082   0.00000  Uiso   1.00
C295   C     0.43827   0.89485   0.13716   0.00000  Uiso   1.00
C296   C     0.36957   0.91585   0.13172   0.00000  Uiso   1.00
C297   C     0.56276   0.92170   0.09138   0.00000  Uiso   1.00
C298   C     0.62095   0.86573   0.06455   0.00000  Uiso   1.00
C299   C     0.63580   0.87340   0.02590   0.00000  Uiso   1.00
H300   H     0.42725   0.08552   0.10528   0.00000  Uiso   1.00
H301   H     0.44626   0.16765   0.17487   0.00000  Uiso   1.00
H302   H     0.32055   0.06761   0.10519   0.00000  Uiso   1.00
H303   H     0.50320   0.03849   0.03259   0.00000  Uiso   1.00
H304   H     0.48578   0.23159   0.25704   0.00000  Uiso   1.00
H305   H     0.22072   0.02065   0.11011   0.00000  Uiso   1.00
H306   H     0.60588   0.95924   0.95702   0.00000  Uiso   1.00
H307   H     0.56960   0.87666   0.14393   0.00000  Uiso   1.00
H308   H     0.59642   0.94733   0.21564   0.00000  Uiso   1.00
H309   H     0.47070   0.84729   0.14596   0.00000  Uiso   1.00
H310   H     0.65336   0.81817   0.07336   0.00000  Uiso   1.00
H311   H     0.60765   0.05277   0.29013   0.00000  Uiso   1.00
H312   H     0.34259   0.84183   0.14320   0.00000  Uiso   1.00
H313   H     0.72775   0.78042   0.99011   0.00000  Uiso   1.00
O314   O     0.56177   0.19244   0.32007   0.00000  Uiso   1.00
O315   O     0.21403   0.91568   0.12729   0.00000  Uiso   1.00
O316   O     0.71935   0.83512   0.92644   0.00000  Uiso   1.00
N317   N     0.51079   0.17981   0.25498   0.00000  Uiso   1.00
N318   N     0.26298   0.98260   0.11762   0.00000  Uiso   1.00
N319   N     0.62306   0.92518   0.97449   0.00000  Uiso   1.00
N320   N     0.57637   0.08359   0.27279   0.00000  Uiso   1.00
N321   N     0.32856   0.88638   0.13542   0.00000  Uiso   1.00
N322   N     0.68864   0.82896   0.99229   0.00000  Uiso   1.00
C323   C     0.94590   0.36195   0.04146   0.00000  Uiso   1.00
C324   C     0.88857   0.43338   0.06954   0.00000  Uiso   1.00
C325   C     0.81977   0.45181   0.07393   0.00000  Uiso   1.00
C326   C     0.77537   0.51975   0.10118   0.00000  Uiso   1.00
C327   C     0.68277   0.62339   0.14145   0.00000  Uiso   1.00
C328   C     0.99900   0.33376   0.07229   0.00000  Uiso   1.00
C329   C     0.02304   0.26842   0.07898   0.00000  Uiso   1.00
C330   C     0.07160   0.25249   0.10854   0.00000  Uiso   1.00
C331   C     0.15047   0.20145   0.15305   0.00000  Uiso   1.00
C332   C     0.97994   0.37892   0.01038   0.00000  Uiso   1.00
C333   C     0.98799   0.35155   0.96500   0.00000  Uiso   1.00
C334   C     0.02053   0.37364   0.94244   0.00000  Uiso   1.00
C335   C     0.06981   0.39272   0.89081   0.00000  Uiso   1.00
C336   C     0.98941   0.44983   0.08206   0.00000  Uiso   1.00
C337   C     0.91221   0.48111   0.09160   0.00000  Uiso   1.00
C338   C     0.86790   0.54904   0.11885   0.00000  Uiso   1.00
C339   C     0.79904   0.56757   0.12327   0.00000  Uiso   1.00
C340   C     0.02263   0.38149   0.09434   0.00000  Uiso   1.00
C341   C     0.07117   0.36565   0.12390   0.00000  Uiso   1.00
C342   C     0.09528   0.30031   0.13063   0.00000  Uiso   1.00
C343   C     0.00357   0.42666   0.03243   0.00000  Uiso   1.00
C344   C     0.03612   0.44879   0.00992   0.00000  Uiso   1.00
C345   C     0.04420   0.42145   0.96453   0.00000  Uiso   1.00
H346   H     0.92750   0.32478   0.02429   0.00000  Uiso   1.00
H347   H     0.80150   0.41485   0.05686   0.00000  Uiso   1.00
H348   H     0.00475   0.23149   0.06191   0.00000  Uiso   1.00
H349   H     0.96969   0.31461   0.94795   0.00000  Uiso   1.00
H350   H     0.67223   0.53576   0.10271   0.00000  Uiso   1.00
H351   H     0.10080   0.14911   0.11333   0.00000  Uiso   1.00
H352   H     0.02688   0.32439   0.87303   0.00000  Uiso   1.00
H353   H     0.00781   0.48699   0.09923   0.00000  Uiso   1.00
H354   H     0.88621   0.58597   0.13591   0.00000  Uiso   1.00
H355   H     0.08945   0.40260   0.14095   0.00000  Uiso   1.00
H356   H     0.05440   0.48573   0.02700   0.00000  Uiso   1.00
H357   H     0.74098   0.67464   0.16687   0.00000  Uiso   1.00
H358   H     0.16955   0.28800   0.17749   0.00000  Uiso   1.00
H359   H     0.09563   0.46327   0.93719   0.00000  Uiso   1.00
O360   O     0.62517   0.66737   0.15758   0.00000  Uiso   1.00
O361   O     0.18744   0.16011   0.17151   0.00000  Uiso   1.00
O362   O     0.09046   0.39007   0.85624   0.00000  Uiso   1.00
N363   N     0.70510   0.55486   0.11277   0.00000  Uiso   1.00
N364   N     0.10577   0.19338   0.12270   0.00000  Uiso   1.00
N365   N     0.03669   0.35723   0.89805   0.00000  Uiso   1.00
N366   N     0.74209   0.62960   0.14729   0.00000  Uiso   1.00
N367   N     0.14277   0.26811   0.15723   0.00000  Uiso   1.00
N368   N     0.07368   0.43197   0.93257   0.00000  Uiso   1.00
C369   C     0.97947   0.81587   0.10320   0.00000  Uiso   1.00
C370   C     0.92721   0.83275   0.13934   0.00000  Uiso   1.00
C371   C     0.94059   0.80022   0.17155   0.00000  Uiso   1.00
C372   C     0.88586   0.82320   0.20164   0.00000  Uiso   1.00
C373   C     0.81472   0.84129   0.25810   0.00000  Uiso   1.00
C374   C     0.97768   0.88613   0.10749   0.00000  Uiso   1.00
C375   C     0.03349   0.89848   0.11291   0.00000  Uiso   1.00
C376   C     0.02123   0.96640   0.11619   0.00000  Uiso   1.00
C377   C     0.02845   0.06734   0.12316   0.00000  Uiso   1.00
C378   C     0.95060   0.79634   0.06014   0.00000  Uiso   1.00
C379   C     0.98366   0.73320   0.02573   0.00000  Uiso   1.00
C380   C     0.94861   0.72552   0.98914   0.00000  Uiso   1.00
C381   C     0.91379   0.68705   0.92259   0.00000  Uiso   1.00
C382   C     0.85846   0.91453   0.09937   0.00000  Uiso   1.00
C383   C     0.86149   0.88634   0.13726   0.00000  Uiso   1.00
C384   C     0.80671   0.90938   0.16732   0.00000  Uiso   1.00
C385   C     0.82001   0.87688   0.19956   0.00000  Uiso   1.00
C386   C     0.91195   0.93972   0.10541   0.00000  Uiso   1.00
C387   C     0.89961   0.00763   0.10868   0.00000  Uiso   1.00
C388   C     0.95539   0.02008   0.11411   0.00000  Uiso   1.00
C389   C     0.88487   0.84993   0.05806   0.00000  Uiso   1.00
C390   C     0.84977   0.84235   0.02150   0.00000  Uiso   1.00
C391   C     0.88276   0.77921   0.98706   0.00000  Uiso   1.00
H392   H     0.03064   0.77415   0.10481   0.00000  Uiso   1.00
H393   H     0.99147   0.75875   0.17315   0.00000  Uiso   1.00
H394   H     0.08435   0.85699   0.11451   0.00000  Uiso   1.00
H395   H     0.03452   0.69174   0.02735   0.00000  Uiso   1.00
H396   H     0.91905   0.76533   0.24800   0.00000  Uiso   1.00
H397   H     0.11490   0.97247   0.12436   0.00000  Uiso   1.00
H398   H     0.00983   0.62400   0.94056   0.00000  Uiso   1.00
H399   H     0.80729   0.95625   0.09775   0.00000  Uiso   1.00
H400   H     0.75585   0.95085   0.16570   0.00000  Uiso   1.00
H401   H     0.84874   0.04909   0.10707   0.00000  Uiso   1.00
H402   H     0.79891   0.88383   0.01991   0.00000  Uiso   1.00
H403   H     0.72782   0.92125   0.24196   0.00000  Uiso   1.00
H404   H     0.92367   0.12839   0.11831   0.00000  Uiso   1.00
H405   H     0.81860   0.77991   0.93452   0.00000  Uiso   1.00
O406   O     0.79364   0.83646   0.28981   0.00000  Uiso   1.00
O407   O     0.05059   0.10822   0.12759   0.00000  Uiso   1.00
O408   O     0.91274   0.65103   0.88645   0.00000  Uiso   1.00
N409   N     0.88110   0.80276   0.23725   0.00000  Uiso   1.00
N410   N     0.06421   0.99643   0.12165   0.00000  Uiso   1.00
N411   N     0.96598   0.67064   0.94982   0.00000  Uiso   1.00
N412   N     0.77820   0.88665   0.23400   0.00000  Uiso   1.00
N413   N     0.96131   0.08032   0.11840   0.00000  Uiso   1.00
N414   N     0.86308   0.75453   0.94656   0.00000  Uiso   1.00
C415   C     0.33477   0.42934   0.74594   0.00000  Uiso   1.00
C416   C     0.33448   0.49054   0.73468   0.00000  Uiso   1.00
C417   C     0.38701   0.50803   0.73987   0.00000  Uiso   1.00
C418   C     0.37687   0.56593   0.72765   0.00000  Uiso   1.00
C419   C     0.38561   0.65506   0.71274   0.00000  Uiso   1.00
C420   C     0.27103   0.46278   0.77791   0.00000  Uiso   1.00
C421   C     0.27020   0.45693   0.81945   0.00000  Uiso   1.00
C422   C     0.20663   0.49146   0.84362   0.00000  Uiso   1.00
C423   C     0.11685   0.53746   0.89582   0.00000  Uiso   1.00
C424   C     0.32246   0.38384   0.70404   0.00000  Uiso   1.00
C425   C     0.36486   0.31160   0.68346   0.00000  Uiso   1.00
C426   C     0.34459   0.27966   0.64543   0.00000  Uiso   1.00
C427   C     0.33467   0.20307   0.58292   0.00000  Uiso   1.00
C428   C     0.22337   0.50105   0.71500   0.00000  Uiso   1.00
C429   C     0.27397   0.52949   0.71787   0.00000  Uiso   1.00
C430   C     0.26375   0.58738   0.70563   0.00000  Uiso   1.00
C431   C     0.31625   0.60495   0.71081   0.00000  Uiso   1.00
C432   C     0.21052   0.50174   0.76111   0.00000  Uiso   1.00
C433   C     0.14694   0.53628   0.78521   0.00000  Uiso   1.00
C434   C     0.14601   0.53049   0.82678   0.00000  Uiso   1.00
C435   C     0.26195   0.42279   0.68722   0.00000  Uiso   1.00
C436   C     0.24160   0.39095   0.64922   0.00000  Uiso   1.00
C437   C     0.28397   0.31868   0.62860   0.00000  Uiso   1.00
H438   H     0.38188   0.39901   0.75903   0.00000  Uiso   1.00
H439   H     0.43383   0.47788   0.75289   0.00000  Uiso   1.00
H440   H     0.31703   0.42678   0.83245   0.00000  Uiso   1.00
H441   H     0.41168   0.28148   0.69648   0.00000  Uiso   1.00
H442   H     0.46472   0.58251   0.73868   0.00000  Uiso   1.00
H443   H     0.21845   0.47475   0.90644   0.00000  Uiso   1.00
H444   H     0.41804   0.16834   0.61972   0.00000  Uiso   1.00
H445   H     0.17625   0.53138   0.70191   0.00000  Uiso   1.00
H446   H     0.21692   0.61751   0.69263   0.00000  Uiso   1.00
H447   H     0.10012   0.56641   0.77219   0.00000  Uiso   1.00
H448   H     0.19478   0.42111   0.63622   0.00000  Uiso   1.00
H449   H     0.28867   0.69584   0.68977   0.00000  Uiso   1.00
H450   H     0.04240   0.58808   0.85753   0.00000  Uiso   1.00
H451   H     0.24199   0.28167   0.57081   0.00000  Uiso   1.00
O452   O     0.40715   0.69347   0.70916   0.00000  Uiso   1.00
O453   O     0.08405   0.55207   0.92925   0.00000  Uiso   1.00
O454   O     0.34591   0.15007   0.55308   0.00000  Uiso   1.00
N455   N     0.41771   0.59736   0.72843   0.00000  Uiso   1.00
N456   N     0.18747   0.49662   0.88528   0.00000  Uiso   1.00
N457   N     0.37406   0.21014   0.61723   0.00000  Uiso   1.00
N458   N     0.32298   0.65834   0.70211   0.00000  Uiso   1.00
N459   N     0.09274   0.55760   0.85896   0.00000  Uiso   1.00
N460   N     0.27933   0.27112   0.59091   0.00000  Uiso   1.00
C461   C     0.77870   0.87065   0.68548   0.00000  Uiso   1.00
C462   C     0.84559   0.84591   0.70673   0.00000  Uiso   1.00
C463   C     0.86726   0.79930   0.73105   0.00000  Uiso   1.00
C464   C     0.93005   0.78332   0.74773   0.00000  Uiso   1.00
C465   C     0.02788   0.74044   0.78186   0.00000  Uiso   1.00
C466   C     0.74154   0.95181   0.70344   0.00000  Uiso   1.00
C467   C     0.67571   0.99425   0.72499   0.00000  Uiso   1.00
C468   C     0.65091   0.06743   0.73891   0.00000  Uiso   1.00
C469   C     0.58716   0.18896   0.76791   0.00000  Uiso   1.00
C470   C     0.79898   0.85157   0.63695   0.00000  Uiso   1.00
C471   C     0.78143   0.80973   0.60259   0.00000  Uiso   1.00
C472   C     0.80498   0.79852   0.56052   0.00000  Uiso   1.00
C473   C     0.83043   0.76440   0.48628   0.00000  Uiso   1.00
C474   C     0.85170   0.92514   0.67187   0.00000  Uiso   1.00
C475   C     0.88524   0.87551   0.69933   0.00000  Uiso   1.00
C476   C     0.94803   0.85959   0.71598   0.00000  Uiso   1.00
C477   C     0.96978   0.81297   0.74032   0.00000  Uiso   1.00
C478   C     0.78118   0.98141   0.69605   0.00000  Uiso   1.00
C479   C     0.75647   0.05454   0.70993   0.00000  Uiso   1.00
C480   C     0.69063   0.09708   0.73150   0.00000  Uiso   1.00
C481   C     0.83863   0.88116   0.62955   0.00000  Uiso   1.00
C482   C     0.86221   0.87002   0.58753   0.00000  Uiso   1.00
C483   C     0.84471   0.82817   0.55311   0.00000  Uiso   1.00
H484   H     0.74782   0.84761   0.69124   0.00000  Uiso   1.00
H485   H     0.83655   0.77642   0.73677   0.00000  Uiso   1.00
H486   H     0.64503   0.97133   0.73071   0.00000  Uiso   1.00
H487   H     0.75075   0.78684   0.60833   0.00000  Uiso   1.00
H488   H     0.95241   0.71056   0.78399   0.00000  Uiso   1.00
H489   H     0.54856   0.12155   0.77121   0.00000  Uiso   1.00
H490   H     0.77148   0.73251   0.51313   0.00000  Uiso   1.00
H491   H     0.88257   0.94818   0.66611   0.00000  Uiso   1.00
H492   H     0.97870   0.88250   0.71025   0.00000  Uiso   1.00
H493   H     0.78717   0.07742   0.70420   0.00000  Uiso   1.00
H494   H     0.89289   0.89293   0.58181   0.00000  Uiso   1.00
H495   H     0.06777   0.79667   0.76247   0.00000  Uiso   1.00
H496   H     0.66393   0.20766   0.74969   0.00000  Uiso   1.00
H497   H     0.88685   0.81862   0.49162   0.00000  Uiso   1.00
O498   O     0.07088   0.70861   0.80273   0.00000  Uiso   1.00
O499   O     0.54105   0.24782   0.78596   0.00000  Uiso   1.00
O500   O     0.83352   0.73740   0.44737   0.00000  Uiso   1.00
N501   N     0.96637   0.73983   0.77286   0.00000  Uiso   1.00
N502   N     0.58880   0.12408   0.76091   0.00000  Uiso   1.00
N503   N     0.79720   0.76037   0.51964   0.00000  Uiso   1.00
N504   N     0.02845   0.78616   0.76128   0.00000  Uiso   1.00
N505   N     0.65088   0.17042   0.74933   0.00000  Uiso   1.00
N506   N     0.85928   0.80671   0.50806   0.00000  Uiso   1.00
C507   C     0.37901   0.98184   0.59900   0.00000  Uiso   1.00
C508   C     0.32848   0.95476   0.60096   0.00000  Uiso   1.00
C509   C     0.25939   0.98864   0.59502   0.00000  Uiso   1.00
C510   C     0.22183   0.95524   0.59810   0.00000  Uiso   1.00
C511   C     0.13872   0.92309   0.59984   0.00000  Uiso   1.00
C512   C     0.40968   0.98634   0.64265   0.00000  Uiso   1.00
C513   C     0.40887   0.04677   0.67177   0.00000  Uiso   1.00
C514   C     0.43968   0.03993   0.70995   0.00000  Uiso   1.00
C515   C     0.48269   0.05680   0.77640   0.00000  Uiso   1.00
C516   C     0.43736   0.92247   0.56437   0.00000  Uiso   1.00
C517   C     0.45984   0.92920   0.52767   0.00000  Uiso   1.00
C518   C     0.51396   0.86859   0.49995   0.00000  Uiso   1.00
C519   C     0.59994   0.78629   0.44487   0.00000  Uiso   1.00
C520   C     0.43518   0.86225   0.61503   0.00000  Uiso   1.00
C521   C     0.35899   0.88980   0.60967   0.00000  Uiso   1.00
C522   C     0.32153   0.85633   0.61276   0.00000  Uiso   1.00
C523   C     0.25239   0.89016   0.60682   0.00000  Uiso   1.00
C524   C     0.44019   0.92138   0.65136   0.00000  Uiso   1.00
C525   C     0.47102   0.91445   0.68951   0.00000  Uiso   1.00
C526   C     0.47025   0.97486   0.71867   0.00000  Uiso   1.00
C527   C     0.46787   0.85751   0.57308   0.00000  Uiso   1.00
C528   C     0.52198   0.79688   0.54541   0.00000  Uiso   1.00
C529   C     0.54452   0.80352   0.50868   0.00000  Uiso   1.00
H530   H     0.35526   0.03241   0.59222   0.00000  Uiso   1.00
H531   H     0.23579   0.03892   0.58828   0.00000  Uiso   1.00
H532   H     0.38526   0.09703   0.66502   0.00000  Uiso   1.00
H533   H     0.43621   0.97947   0.52095   0.00000  Uiso   1.00
H534   H     0.11679   0.01750   0.58777   0.00000  Uiso   1.00
H535   H     0.43198   0.14002   0.74956   0.00000  Uiso   1.00
H536   H     0.53942   0.89214   0.44576   0.00000  Uiso   1.00
H537   H     0.45893   0.81167   0.62181   0.00000  Uiso   1.00
H538   H     0.34515   0.80606   0.61950   0.00000  Uiso   1.00
H539   H     0.49462   0.86418   0.69623   0.00000  Uiso   1.00
H540   H     0.54557   0.74662   0.55216   0.00000  Uiso   1.00
H541   H     0.20555   0.82851   0.61311   0.00000  Uiso   1.00
H542   H     0.52074   0.95103   0.77490   0.00000  Uiso   1.00
H543   H     0.62818   0.70314   0.47110   0.00000  Uiso   1.00
O544   O     0.08445   0.92331   0.59840   0.00000  Uiso   1.00
O545   O     0.49797   0.08405   0.81066   0.00000  Uiso   1.00
O546   O     0.63892   0.75883   0.41208   0.00000  Uiso   1.00
N547   N     0.15330   0.97378   0.59404   0.00000  Uiso   1.00
N548   N     0.44797   0.08834   0.74531   0.00000  Uiso   1.00
N549   N     0.54843   0.85659   0.46129   0.00000  Uiso   1.00
N550   N     0.20106   0.87209   0.60768   0.00000  Uiso   1.00
N551   N     0.49573   0.98664   0.75895   0.00000  Uiso   1.00
N552   N     0.59619   0.75489   0.47493   0.00000  Uiso   1.00
