data_job_01764
_audit_creation_date              2018-12-19
_audit_creation_method            'Materials Studio'
_symmetry_space_group_name_H-M    'P1'
_symmetry_Int_Tables_number       1
_symmetry_cell_setting            triclinic
loop_
_symmetry_equiv_pos_as_xyz
  x,y,z
_cell_length_a                    16.1625
_cell_length_b                    21.1441
_cell_length_c                    9.6816
_cell_angle_alpha                 90.0000
_cell_angle_beta                  122.6940
_cell_angle_gamma                 90.0000
loop_
_atom_site_label
_atom_site_type_symbol
_atom_site_fract_x
_atom_site_fract_y
_atom_site_fract_z
_atom_site_U_iso_or_equiv
_atom_site_adp_type
_atom_site_occupancy
C1     C     0.34078   0.56725   0.37147   0.00000  Uiso   1.00
C2     C     0.37595   0.62064   0.30953   0.00000  Uiso   1.00
C3     C     0.47311   0.63817   0.37604   0.00000  Uiso   1.00
C4     C     0.49004   0.68826   0.30168   0.00000  Uiso   1.00
C5     C     0.55643   0.76642   0.22623   0.00000  Uiso   1.00
C6     C     0.26883   0.59726   0.40804   0.00000  Uiso   1.00
C7     C     0.27592   0.59512   0.55737   0.00000  Uiso   1.00
C8     C     0.20266   0.62552   0.56592   0.00000  Uiso   1.00
C9     C     0.10271   0.66733   0.64337   0.00000  Uiso   1.00
C10    C     0.27977   0.52344   0.22532   0.00000  Uiso   1.00
C11    C     0.29605   0.45923   0.22101   0.00000  Uiso   1.00
C12    C     0.23200   0.42748   0.07573   0.00000  Uiso   1.00
C13    C     0.14904   0.35468   0.86949   0.00000  Uiso   1.00
C14    C     0.19806   0.62503   0.12115   0.00000  Uiso   1.00
C15    C     0.29843   0.65203   0.17356   0.00000  Uiso   1.00
C16    C     0.31521   0.70210   0.09908   0.00000  Uiso   1.00
C17    C     0.41239   0.71970   0.16546   0.00000  Uiso   1.00
C18    C     0.19131   0.62864   0.27208   0.00000  Uiso   1.00
C19    C     0.11802   0.65905   0.28041   0.00000  Uiso   1.00
C20    C     0.12500   0.65696   0.42971   0.00000  Uiso   1.00
C21    C     0.20225   0.55482   0.08934   0.00000  Uiso   1.00
C22    C     0.13816   0.52316   0.94405   0.00000  Uiso   1.00
C23    C     0.15434   0.45892   0.93952   0.00000  Uiso   1.00
H24    H     0.40113   0.54282   0.47733   0.00000  Uiso   1.00
H25    H     0.53308   0.61388   0.48127   0.00000  Uiso   1.00
H26    H     0.33591   0.57083   0.66256   0.00000  Uiso   1.00
H27    H     0.35605   0.43496   0.32626   0.00000  Uiso   1.00
H28    H     0.64519   0.70652   0.42571   0.00000  Uiso   1.00
H29    H     0.22943   0.61573   0.80795   0.00000  Uiso   1.00
H30    H     0.27188   0.32922   0.09880   0.00000  Uiso   1.00
H31    H     0.13771   0.64946   0.01529   0.00000  Uiso   1.00
H32    H     0.25521   0.72638   0.99386   0.00000  Uiso   1.00
H33    H     0.05804   0.68333   0.17516   0.00000  Uiso   1.00
H34    H     0.07817   0.54746   0.83886   0.00000  Uiso   1.00
H35    H     0.41966   0.79783   0.03011   0.00000  Uiso   1.00
H36    H     0.00389   0.70703   0.41236   0.00000  Uiso   1.00
H37    H     0.04635   0.42053   0.70320   0.00000  Uiso   1.00
O38    O     0.61447   0.80086   0.22219   0.00000  Uiso   1.00
O39    O     0.06900   0.68173   0.72367   0.00000  Uiso   1.00
O40    O     0.12470   0.30585   0.79327   0.00000  Uiso   1.00
N41    N     0.57599   0.71744   0.33552   0.00000  Uiso   1.00
N42    N     0.18728   0.63257   0.69291   0.00000  Uiso   1.00
N43    N     0.22696   0.36471   0.02992   0.00000  Uiso   1.00
N44    N     0.45463   0.76658   0.12266   0.00000  Uiso   1.00
N45    N     0.06592   0.68170   0.48004   0.00000  Uiso   1.00
N46    N     0.10560   0.41384   0.81706   0.00000  Uiso   1.00
C47    C     0.65922   0.06725   0.12853   0.00000  Uiso   1.00
C48    C     0.62405   0.12064   0.19047   0.00000  Uiso   1.00
C49    C     0.52689   0.13817   0.12396   0.00000  Uiso   1.00
C50    C     0.50996   0.18826   0.19832   0.00000  Uiso   1.00
C51    C     0.44357   0.26642   0.27377   0.00000  Uiso   1.00
C52    C     0.73117   0.09726   0.09196   0.00000  Uiso   1.00
C53    C     0.72408   0.09512   0.94263   0.00000  Uiso   1.00
C54    C     0.79734   0.12552   0.93408   0.00000  Uiso   1.00
C55    C     0.89729   0.16733   0.85663   0.00000  Uiso   1.00
C56    C     0.72023   0.02344   0.27468   0.00000  Uiso   1.00
C57    C     0.70395   0.95923   0.27899   0.00000  Uiso   1.00
C58    C     0.76800   0.92748   0.42427   0.00000  Uiso   1.00
C59    C     0.85096   0.85468   0.63051   0.00000  Uiso   1.00
C60    C     0.80194   0.12503   0.37885   0.00000  Uiso   1.00
C61    C     0.70157   0.15203   0.32644   0.00000  Uiso   1.00
C62    C     0.68479   0.20210   0.40092   0.00000  Uiso   1.00
C63    C     0.58761   0.21970   0.33454   0.00000  Uiso   1.00
C64    C     0.80869   0.12864   0.22792   0.00000  Uiso   1.00
C65    C     0.88198   0.15905   0.21959   0.00000  Uiso   1.00
C66    C     0.87500   0.15696   0.07029   0.00000  Uiso   1.00
C67    C     0.79775   0.05482   0.41066   0.00000  Uiso   1.00
C68    C     0.86184   0.02316   0.55595   0.00000  Uiso   1.00
C69    C     0.84566   0.95892   0.56048   0.00000  Uiso   1.00
H70    H     0.59887   0.04282   0.02267   0.00000  Uiso   1.00
H71    H     0.46692   0.11388   0.01873   0.00000  Uiso   1.00
H72    H     0.66409   0.07083   0.83744   0.00000  Uiso   1.00
H73    H     0.64395   0.93496   0.17374   0.00000  Uiso   1.00
H74    H     0.35481   0.20652   0.07429   0.00000  Uiso   1.00
H75    H     0.77057   0.11573   0.69205   0.00000  Uiso   1.00
H76    H     0.72812   0.82922   0.40120   0.00000  Uiso   1.00
H77    H     0.86229   0.14946   0.48471   0.00000  Uiso   1.00
H78    H     0.74479   0.22638   0.50614   0.00000  Uiso   1.00
H79    H     0.94196   0.18333   0.32484   0.00000  Uiso   1.00
H80    H     0.92183   0.04746   0.66114   0.00000  Uiso   1.00
H81    H     0.58034   0.29783   0.46989   0.00000  Uiso   1.00
H82    H     0.99611   0.20703   0.08764   0.00000  Uiso   1.00
H83    H     0.95365   0.92053   0.79680   0.00000  Uiso   1.00
O84    O     0.38553   0.30086   0.27781   0.00000  Uiso   1.00
O85    O     0.93100   0.18173   0.77633   0.00000  Uiso   1.00
O86    O     0.87530   0.80585   0.70673   0.00000  Uiso   1.00
N87    N     0.42401   0.21744   0.16448   0.00000  Uiso   1.00
N88    N     0.81272   0.13257   0.80709   0.00000  Uiso   1.00
N89    N     0.77304   0.86471   0.47008   0.00000  Uiso   1.00
N90    N     0.54537   0.26658   0.37734   0.00000  Uiso   1.00
N91    N     0.93408   0.18170   0.01996   0.00000  Uiso   1.00
N92    N     0.89440   0.91384   0.68294   0.00000  Uiso   1.00
C93    C     0.65922   0.43275   0.62853   0.00000  Uiso   1.00
C94    C     0.62405   0.37936   0.69047   0.00000  Uiso   1.00
C95    C     0.52689   0.36183   0.62396   0.00000  Uiso   1.00
C96    C     0.50996   0.31174   0.69832   0.00000  Uiso   1.00
C97    C     0.44357   0.23358   0.77377   0.00000  Uiso   1.00
C98    C     0.73117   0.40274   0.59196   0.00000  Uiso   1.00
C99    C     0.72408   0.40488   0.44263   0.00000  Uiso   1.00
C100   C     0.79734   0.37448   0.43408   0.00000  Uiso   1.00
C101   C     0.89729   0.33267   0.35663   0.00000  Uiso   1.00
C102   C     0.72023   0.47656   0.77468   0.00000  Uiso   1.00
C103   C     0.70395   0.54077   0.77899   0.00000  Uiso   1.00
C104   C     0.76800   0.57252   0.92427   0.00000  Uiso   1.00
C105   C     0.85096   0.64532   0.13051   0.00000  Uiso   1.00
C106   C     0.80194   0.37497   0.87885   0.00000  Uiso   1.00
C107   C     0.70157   0.34797   0.82644   0.00000  Uiso   1.00
C108   C     0.68479   0.29790   0.90092   0.00000  Uiso   1.00
C109   C     0.58761   0.28030   0.83454   0.00000  Uiso   1.00
C110   C     0.80869   0.37136   0.72792   0.00000  Uiso   1.00
C111   C     0.88198   0.34095   0.71959   0.00000  Uiso   1.00
C112   C     0.87500   0.34304   0.57029   0.00000  Uiso   1.00
C113   C     0.79775   0.44518   0.91066   0.00000  Uiso   1.00
C114   C     0.86184   0.47684   0.05595   0.00000  Uiso   1.00
C115   C     0.84566   0.54108   0.06048   0.00000  Uiso   1.00
H116   H     0.59887   0.45718   0.52267   0.00000  Uiso   1.00
H117   H     0.46692   0.38612   0.51873   0.00000  Uiso   1.00
H118   H     0.66409   0.42917   0.33744   0.00000  Uiso   1.00
H119   H     0.64395   0.56504   0.67374   0.00000  Uiso   1.00
H120   H     0.35481   0.29348   0.57429   0.00000  Uiso   1.00
H121   H     0.77057   0.38427   0.19205   0.00000  Uiso   1.00
H122   H     0.72812   0.67078   0.90120   0.00000  Uiso   1.00
H123   H     0.86229   0.35054   0.98471   0.00000  Uiso   1.00
H124   H     0.74479   0.27362   0.00614   0.00000  Uiso   1.00
H125   H     0.94196   0.31667   0.82484   0.00000  Uiso   1.00
H126   H     0.92183   0.45254   0.16114   0.00000  Uiso   1.00
H127   H     0.58034   0.20217   0.96989   0.00000  Uiso   1.00
H128   H     0.99611   0.29297   0.58764   0.00000  Uiso   1.00
H129   H     0.95365   0.57947   0.29680   0.00000  Uiso   1.00
O130   O     0.38553   0.19914   0.77781   0.00000  Uiso   1.00
O131   O     0.93100   0.31827   0.27633   0.00000  Uiso   1.00
O132   O     0.87530   0.69415   0.20673   0.00000  Uiso   1.00
N133   N     0.42401   0.28256   0.66448   0.00000  Uiso   1.00
N134   N     0.81272   0.36743   0.30709   0.00000  Uiso   1.00
N135   N     0.77304   0.63529   0.97008   0.00000  Uiso   1.00
N136   N     0.54537   0.23342   0.87734   0.00000  Uiso   1.00
N137   N     0.93408   0.31830   0.51996   0.00000  Uiso   1.00
N138   N     0.89440   0.58616   0.18294   0.00000  Uiso   1.00
C139   C     0.34078   0.93275   0.87147   0.00000  Uiso   1.00
C140   C     0.37595   0.87936   0.80953   0.00000  Uiso   1.00
C141   C     0.47311   0.86183   0.87604   0.00000  Uiso   1.00
C142   C     0.49004   0.81174   0.80168   0.00000  Uiso   1.00
C143   C     0.55643   0.73358   0.72623   0.00000  Uiso   1.00
C144   C     0.26883   0.90274   0.90804   0.00000  Uiso   1.00
C145   C     0.27592   0.90488   0.05737   0.00000  Uiso   1.00
C146   C     0.20266   0.87448   0.06592   0.00000  Uiso   1.00
C147   C     0.10271   0.83267   0.14337   0.00000  Uiso   1.00
C148   C     0.27977   0.97656   0.72532   0.00000  Uiso   1.00
C149   C     0.29605   0.04077   0.72101   0.00000  Uiso   1.00
C150   C     0.23200   0.07252   0.57573   0.00000  Uiso   1.00
C151   C     0.14904   0.14532   0.36949   0.00000  Uiso   1.00
C152   C     0.19806   0.87497   0.62115   0.00000  Uiso   1.00
C153   C     0.29843   0.84797   0.67356   0.00000  Uiso   1.00
C154   C     0.31521   0.79790   0.59908   0.00000  Uiso   1.00
C155   C     0.41239   0.78030   0.66546   0.00000  Uiso   1.00
C156   C     0.19131   0.87136   0.77208   0.00000  Uiso   1.00
C157   C     0.11802   0.84095   0.78041   0.00000  Uiso   1.00
C158   C     0.12500   0.84304   0.92971   0.00000  Uiso   1.00
C159   C     0.20225   0.94518   0.58934   0.00000  Uiso   1.00
C160   C     0.13816   0.97684   0.44405   0.00000  Uiso   1.00
C161   C     0.15434   0.04108   0.43952   0.00000  Uiso   1.00
H162   H     0.40113   0.95718   0.97733   0.00000  Uiso   1.00
H163   H     0.53308   0.88612   0.98127   0.00000  Uiso   1.00
H164   H     0.33591   0.92917   0.16256   0.00000  Uiso   1.00
H165   H     0.35605   0.06504   0.82626   0.00000  Uiso   1.00
H166   H     0.64519   0.79348   0.92571   0.00000  Uiso   1.00
H167   H     0.22943   0.88427   0.30795   0.00000  Uiso   1.00
H168   H     0.27188   0.17078   0.59880   0.00000  Uiso   1.00
H169   H     0.13771   0.85054   0.51529   0.00000  Uiso   1.00
H170   H     0.25521   0.77362   0.49386   0.00000  Uiso   1.00
H171   H     0.05804   0.81667   0.67516   0.00000  Uiso   1.00
H172   H     0.07817   0.95254   0.33886   0.00000  Uiso   1.00
H173   H     0.41966   0.70217   0.53011   0.00000  Uiso   1.00
H174   H     0.00389   0.79297   0.91236   0.00000  Uiso   1.00
H175   H     0.04635   0.07947   0.20320   0.00000  Uiso   1.00
O176   O     0.61447   0.69914   0.72219   0.00000  Uiso   1.00
O177   O     0.06900   0.81827   0.22367   0.00000  Uiso   1.00
O178   O     0.12470   0.19415   0.29327   0.00000  Uiso   1.00
N179   N     0.57599   0.78256   0.83552   0.00000  Uiso   1.00
N180   N     0.18728   0.86743   0.19291   0.00000  Uiso   1.00
N181   N     0.22696   0.13529   0.52992   0.00000  Uiso   1.00
N182   N     0.45463   0.73342   0.62266   0.00000  Uiso   1.00
N183   N     0.06592   0.81830   0.98004   0.00000  Uiso   1.00
N184   N     0.10560   0.08616   0.31706   0.00000  Uiso   1.00
