data_job_04739
_audit_creation_date              2018-12-19
_audit_creation_method            'Materials Studio'
_symmetry_space_group_name_H-M    'P1'
_symmetry_Int_Tables_number       1
_symmetry_cell_setting            triclinic
loop_
_symmetry_equiv_pos_as_xyz
  x,y,z
_cell_length_a                    15.5238
_cell_length_b                    16.1081
_cell_length_c                    12.4518
_cell_angle_alpha                 90.0000
_cell_angle_beta                  104.5937
_cell_angle_gamma                 90.0000
loop_
_atom_site_label
_atom_site_type_symbol
_atom_site_fract_x
_atom_site_fract_y
_atom_site_fract_z
_atom_site_U_iso_or_equiv
_atom_site_adp_type
_atom_site_occupancy
C1     C     0.81518   0.48560   0.08800   0.00000  Uiso   1.00
C2     C     0.85502   0.51038   0.20849   0.00000  Uiso   1.00
C3     C     0.82651   0.57568   0.26358   0.00000  Uiso   1.00
C4     C     0.87168   0.58823   0.37369   0.00000  Uiso   1.00
C5     C     0.92274   0.63449   0.55271   0.00000  Uiso   1.00
C6     C     0.89185   0.48742   0.03185   0.00000  Uiso   1.00
C7     C     0.89430   0.53341   0.93841   0.00000  Uiso   1.00
C8     C     0.97047   0.52661   0.89980   0.00000  Uiso   1.00
C9     C     0.07868   0.53718   0.80453   0.00000  Uiso   1.00
C10    C     0.78840   0.39468   0.09051   0.00000  Uiso   1.00
C11    C     0.70388   0.36268   0.04636   0.00000  Uiso   1.00
C12    C     0.69296   0.27779   0.05712   0.00000  Uiso   1.00
C13    C     0.64057   0.14436   0.05293   0.00000  Uiso   1.00
C14    C     0.94610   0.39174   0.18557   0.00000  Uiso   1.00
C15    C     0.92613   0.45940   0.26149   0.00000  Uiso   1.00
C16    C     0.97135   0.47185   0.37154   0.00000  Uiso   1.00
C17    C     0.94291   0.53715   0.42678   0.00000  Uiso   1.00
C18    C     0.96295   0.43645   0.08484   0.00000  Uiso   1.00
C19    C     0.03914   0.42957   0.04636   0.00000  Uiso   1.00
C20    C     0.04171   0.47554   0.95290   0.00000  Uiso   1.00
C21    C     0.85951   0.34370   0.14351   0.00000  Uiso   1.00
C22    C     0.84872   0.25884   0.15432   0.00000  Uiso   1.00
C23    C     0.76420   0.22672   0.11021   0.00000  Uiso   1.00
H24    H     0.75982   0.52529   0.04673   0.00000  Uiso   1.00
H25    H     0.77148   0.61513   0.22254   0.00000  Uiso   1.00
H26    H     0.83925   0.57285   0.89741   0.00000  Uiso   1.00
H27    H     0.64887   0.40215   0.00536   0.00000  Uiso   1.00
H28    H     0.81578   0.69227   0.44081   0.00000  Uiso   1.00
H29    H     0.95868   0.60310   0.75524   0.00000  Uiso   1.00
H30    H     0.55721   0.24314   0.98286   0.00000  Uiso   1.00
H31    H     0.00146   0.35205   0.22683   0.00000  Uiso   1.00
H32    H     0.02638   0.43239   0.41253   0.00000  Uiso   1.00
H33    H     0.09415   0.39011   0.08739   0.00000  Uiso   1.00
H34    H     0.90377   0.21941   0.19534   0.00000  Uiso   1.00
H35    H     0.02267   0.54395   0.59502   0.00000  Uiso   1.00
H36    H     0.16556   0.45478   0.90943   0.00000  Uiso   1.00
H37    H     0.76409   0.09483   0.13706   0.00000  Uiso   1.00
O38    O     0.93127   0.67410   0.63681   0.00000  Uiso   1.00
O39    O     0.11873   0.55710   0.73735   0.00000  Uiso   1.00
O40    O     0.59202   0.08485   0.03599   0.00000  Uiso   1.00
N41    N     0.86104   0.64633   0.45163   0.00000  Uiso   1.00
N42    N     0.99464   0.56297   0.81066   0.00000  Uiso   1.00
N43    N     0.61931   0.22644   0.02344   0.00000  Uiso   1.00
N44    N     0.97237   0.56652   0.53460   0.00000  Uiso   1.00
N45    N     0.10597   0.48316   0.89364   0.00000  Uiso   1.00
N46    N     0.73063   0.14663   0.10642   0.00000  Uiso   1.00
C47    C     0.57445   0.49884   0.54643   0.00000  Uiso   1.00
C48    C     0.53659   0.47587   0.42487   0.00000  Uiso   1.00
C49    C     0.56661   0.41194   0.36894   0.00000  Uiso   1.00
C50    C     0.52312   0.40095   0.25792   0.00000  Uiso   1.00
C51    C     0.47509   0.35747   0.07725   0.00000  Uiso   1.00
C52    C     0.49648   0.49509   0.60021   0.00000  Uiso   1.00
C53    C     0.49279   0.44734   0.69172   0.00000  Uiso   1.00
C54    C     0.41555   0.45255   0.72831   0.00000  Uiso   1.00
C55    C     0.30528   0.43897   0.81991   0.00000  Uiso   1.00
C56    C     0.60078   0.59009   0.54727   0.00000  Uiso   1.00
C57    C     0.68477   0.62221   0.59430   0.00000  Uiso   1.00
C58    C     0.69534   0.70740   0.58635   0.00000  Uiso   1.00
C59    C     0.74701   0.84131   0.59575   0.00000  Uiso   1.00
C60    C     0.44386   0.59300   0.44873   0.00000  Uiso   1.00
C61    C     0.46565   0.52701   0.37180   0.00000  Uiso   1.00
C62    C     0.42212   0.51611   0.26084   0.00000  Uiso   1.00
C63    C     0.45207   0.45218   0.20475   0.00000  Uiso   1.00
C64    C     0.42555   0.54623   0.54714   0.00000  Uiso   1.00
C65    C     0.34830   0.55152   0.58361   0.00000  Uiso   1.00
C66    C     0.34448   0.50378   0.67515   0.00000  Uiso   1.00
C67    C     0.52985   0.64123   0.49420   0.00000  Uiso   1.00
C68    C     0.54028   0.72639   0.48619   0.00000  Uiso   1.00
C69    C     0.62428   0.75864   0.53318   0.00000  Uiso   1.00
H70    H     0.62967   0.45903   0.58776   0.00000  Uiso   1.00
H71    H     0.62150   0.37237   0.41004   0.00000  Uiso   1.00
H72    H     0.54769   0.40778   0.73277   0.00000  Uiso   1.00
H73    H     0.73965   0.58262   0.63536   0.00000  Uiso   1.00
H74    H     0.58113   0.29883   0.18962   0.00000  Uiso   1.00
H75    H     0.42552   0.37351   0.87014   0.00000  Uiso   1.00
H76    H     0.83030   0.74220   0.66473   0.00000  Uiso   1.00
H77    H     0.38863   0.63282   0.40741   0.00000  Uiso   1.00
H78    H     0.36723   0.55570   0.21979   0.00000  Uiso   1.00
H79    H     0.29342   0.59110   0.54253   0.00000  Uiso   1.00
H80    H     0.48538   0.76594   0.44511   0.00000  Uiso   1.00
H81    H     0.37475   0.44763   0.03520   0.00000  Uiso   1.00
H82    H     0.21915   0.52231   0.71573   0.00000  Uiso   1.00
H83    H     0.62392   0.89099   0.51031   0.00000  Uiso   1.00
O84    O     0.46819   0.31935   0.99226   0.00000  Uiso   1.00
O85    O     0.26405   0.41733   0.88509   0.00000  Uiso   1.00
O86    O     0.79511   0.90104   0.61558   0.00000  Uiso   1.00
N87    N     0.53551   0.34445   0.17902   0.00000  Uiso   1.00
N88    N     0.39002   0.41425   0.81526   0.00000  Uiso   1.00
N89    N     0.76844   0.75895   0.62324   0.00000  Uiso   1.00
N90    N     0.42446   0.42451   0.09593   0.00000  Uiso   1.00
N91    N     0.27897   0.49432   0.73217   0.00000  Uiso   1.00
N92    N     0.65739   0.83902   0.54015   0.00000  Uiso   1.00
C93    C     0.18482   0.98560   0.91200   0.00000  Uiso   1.00
C94    C     0.14498   0.01038   0.79151   0.00000  Uiso   1.00
C95    C     0.17349   0.07568   0.73642   0.00000  Uiso   1.00
C96    C     0.12832   0.08823   0.62631   0.00000  Uiso   1.00
C97    C     0.07726   0.13449   0.44729   0.00000  Uiso   1.00
C98    C     0.10815   0.98742   0.96815   0.00000  Uiso   1.00
C99    C     0.10570   0.03341   0.06159   0.00000  Uiso   1.00
C100   C     0.02953   0.02661   0.10020   0.00000  Uiso   1.00
C101   C     0.92132   0.03718   0.19547   0.00000  Uiso   1.00
C102   C     0.21160   0.89468   0.90949   0.00000  Uiso   1.00
C103   C     0.29612   0.86268   0.95364   0.00000  Uiso   1.00
C104   C     0.30704   0.77779   0.94288   0.00000  Uiso   1.00
C105   C     0.35943   0.64436   0.94707   0.00000  Uiso   1.00
C106   C     0.05390   0.89174   0.81443   0.00000  Uiso   1.00
C107   C     0.07387   0.95940   0.73851   0.00000  Uiso   1.00
C108   C     0.02865   0.97185   0.62846   0.00000  Uiso   1.00
C109   C     0.05709   0.03715   0.57322   0.00000  Uiso   1.00
C110   C     0.03705   0.93645   0.91516   0.00000  Uiso   1.00
C111   C     0.96086   0.92957   0.95364   0.00000  Uiso   1.00
C112   C     0.95829   0.97554   0.04710   0.00000  Uiso   1.00
C113   C     0.14049   0.84370   0.85649   0.00000  Uiso   1.00
C114   C     0.15128   0.75884   0.84568   0.00000  Uiso   1.00
C115   C     0.23580   0.72672   0.88979   0.00000  Uiso   1.00
H116   H     0.24018   0.02529   0.95327   0.00000  Uiso   1.00
H117   H     0.22852   0.11513   0.77746   0.00000  Uiso   1.00
H118   H     0.16075   0.07285   0.10259   0.00000  Uiso   1.00
H119   H     0.35113   0.90215   0.99464   0.00000  Uiso   1.00
H120   H     0.18422   0.19227   0.55919   0.00000  Uiso   1.00
H121   H     0.04132   0.10310   0.24476   0.00000  Uiso   1.00
H122   H     0.44279   0.74314   0.01714   0.00000  Uiso   1.00
H123   H     0.99854   0.85205   0.77317   0.00000  Uiso   1.00
H124   H     0.97362   0.93239   0.58747   0.00000  Uiso   1.00
H125   H     0.90585   0.89011   0.91261   0.00000  Uiso   1.00
H126   H     0.09623   0.71941   0.80466   0.00000  Uiso   1.00
H127   H     0.97733   0.04395   0.40498   0.00000  Uiso   1.00
H128   H     0.83444   0.95478   0.09057   0.00000  Uiso   1.00
H129   H     0.23591   0.59483   0.86294   0.00000  Uiso   1.00
O130   O     0.06873   0.17410   0.36319   0.00000  Uiso   1.00
O131   O     0.88127   0.05710   0.26265   0.00000  Uiso   1.00
O132   O     0.40798   0.58485   0.96401   0.00000  Uiso   1.00
N133   N     0.13896   0.14633   0.54837   0.00000  Uiso   1.00
N134   N     0.00536   0.06297   0.18934   0.00000  Uiso   1.00
N135   N     0.38069   0.72644   0.97656   0.00000  Uiso   1.00
N136   N     0.02763   0.06652   0.46540   0.00000  Uiso   1.00
N137   N     0.89403   0.98316   0.10636   0.00000  Uiso   1.00
N138   N     0.26937   0.64663   0.89358   0.00000  Uiso   1.00
C139   C     0.42555   0.99884   0.45357   0.00000  Uiso   1.00
C140   C     0.46341   0.97587   0.57513   0.00000  Uiso   1.00
C141   C     0.43339   0.91194   0.63106   0.00000  Uiso   1.00
C142   C     0.47688   0.90095   0.74208   0.00000  Uiso   1.00
C143   C     0.52491   0.85747   0.92275   0.00000  Uiso   1.00
C144   C     0.50352   0.99509   0.39979   0.00000  Uiso   1.00
C145   C     0.50721   0.94734   0.30828   0.00000  Uiso   1.00
C146   C     0.58445   0.95255   0.27169   0.00000  Uiso   1.00
C147   C     0.69472   0.93897   0.18009   0.00000  Uiso   1.00
C148   C     0.39922   0.09009   0.45273   0.00000  Uiso   1.00
C149   C     0.31523   0.12221   0.40570   0.00000  Uiso   1.00
C150   C     0.30466   0.20740   0.41365   0.00000  Uiso   1.00
C151   C     0.25299   0.34131   0.40425   0.00000  Uiso   1.00
C152   C     0.55614   0.09300   0.55127   0.00000  Uiso   1.00
C153   C     0.53435   0.02701   0.62820   0.00000  Uiso   1.00
C154   C     0.57788   0.01611   0.73916   0.00000  Uiso   1.00
C155   C     0.54793   0.95218   0.79525   0.00000  Uiso   1.00
C156   C     0.57445   0.04623   0.45286   0.00000  Uiso   1.00
C157   C     0.65170   0.05152   0.41639   0.00000  Uiso   1.00
C158   C     0.65552   0.00378   0.32485   0.00000  Uiso   1.00
C159   C     0.47015   0.14123   0.50580   0.00000  Uiso   1.00
C160   C     0.45972   0.22639   0.51381   0.00000  Uiso   1.00
C161   C     0.37572   0.25864   0.46682   0.00000  Uiso   1.00
H162   H     0.37033   0.95903   0.41224   0.00000  Uiso   1.00
H163   H     0.37850   0.87237   0.58996   0.00000  Uiso   1.00
H164   H     0.45231   0.90778   0.26723   0.00000  Uiso   1.00
H165   H     0.26035   0.08262   0.36464   0.00000  Uiso   1.00
H166   H     0.41887   0.79883   0.81038   0.00000  Uiso   1.00
H167   H     0.57448   0.87351   0.12986   0.00000  Uiso   1.00
H168   H     0.16970   0.24220   0.33527   0.00000  Uiso   1.00
H169   H     0.61137   0.13282   0.59259   0.00000  Uiso   1.00
H170   H     0.63277   0.05570   0.78021   0.00000  Uiso   1.00
H171   H     0.70658   0.09110   0.45747   0.00000  Uiso   1.00
H172   H     0.51462   0.26594   0.55489   0.00000  Uiso   1.00
H173   H     0.62525   0.94763   0.96480   0.00000  Uiso   1.00
H174   H     0.78085   0.02231   0.28427   0.00000  Uiso   1.00
H175   H     0.37608   0.39099   0.48969   0.00000  Uiso   1.00
O176   O     0.53181   0.81935   0.00774   0.00000  Uiso   1.00
O177   O     0.73595   0.91733   0.11491   0.00000  Uiso   1.00
O178   O     0.20489   0.40104   0.38442   0.00000  Uiso   1.00
N179   N     0.46449   0.84445   0.82098   0.00000  Uiso   1.00
N180   N     0.60998   0.91425   0.18474   0.00000  Uiso   1.00
N181   N     0.23156   0.25895   0.37676   0.00000  Uiso   1.00
N182   N     0.57554   0.92451   0.90407   0.00000  Uiso   1.00
N183   N     0.72103   0.99432   0.26783   0.00000  Uiso   1.00
N184   N     0.34261   0.33902   0.45985   0.00000  Uiso   1.00
