data_job_06360
_audit_creation_date              2018-12-19
_audit_creation_method            'Materials Studio'
_symmetry_space_group_name_H-M    'P1'
_symmetry_Int_Tables_number       1
_symmetry_cell_setting            triclinic
loop_
_symmetry_equiv_pos_as_xyz
  x,y,z
_cell_length_a                    21.8666
_cell_length_b                    23.9094
_cell_length_c                    24.4965
_cell_angle_alpha                 111.4370
_cell_angle_beta                  72.2363
_cell_angle_gamma                 74.6926
loop_
_atom_site_label
_atom_site_type_symbol
_atom_site_fract_x
_atom_site_fract_y
_atom_site_fract_z
_atom_site_U_iso_or_equiv
_atom_site_adp_type
_atom_site_occupancy
C1     C     0.11680   0.66583   0.33451   0.00000  Uiso   1.00
C2     C     0.17745   0.63247   0.26581   0.00000  Uiso   1.00
C3     C     0.17330   0.60271   0.20749   0.00000  Uiso   1.00
C4     C     0.23469   0.57494   0.14976   0.00000  Uiso   1.00
C5     C     0.31925   0.52281   0.04299   0.00000  Uiso   1.00
C6     C     0.14296   0.63109   0.36957   0.00000  Uiso   1.00
C7     C     0.10981   0.60018   0.39850   0.00000  Uiso   1.00
C8     C     0.14217   0.57125   0.42812   0.00000  Uiso   1.00
C9     C     0.17315   0.51701   0.48249   0.00000  Uiso   1.00
C10    C     0.10979   0.73639   0.36896   0.00000  Uiso   1.00
C11    C     0.04873   0.79402   0.39739   0.00000  Uiso   1.00
C12    C     0.05316   0.85374   0.42651   0.00000  Uiso   1.00
C13    C     0.03263   0.96301   0.47992   0.00000  Uiso   1.00
C14    C     0.23323   0.66942   0.33570   0.00000  Uiso   1.00
C15    C     0.24068   0.63442   0.26646   0.00000  Uiso   1.00
C16    C     0.30210   0.60668   0.20880   0.00000  Uiso   1.00
C17    C     0.29804   0.57689   0.15040   0.00000  Uiso   1.00
C18    C     0.20619   0.63304   0.37022   0.00000  Uiso   1.00
C19    C     0.23861   0.60415   0.39981   0.00000  Uiso   1.00
C20    C     0.20552   0.57320   0.42877   0.00000  Uiso   1.00
C21    C     0.17302   0.73834   0.36960   0.00000  Uiso   1.00
C22    C     0.17754   0.79799   0.39869   0.00000  Uiso   1.00
C23    C     0.11651   0.85569   0.42716   0.00000  Uiso   1.00
H24    H     0.06757   0.66431   0.33401   0.00000  Uiso   1.00
H25    H     0.12435   0.60121   0.20701   0.00000  Uiso   1.00
H26    H     0.06087   0.59869   0.39800   0.00000  Uiso   1.00
H27    H     0.99981   0.79249   0.39688   0.00000  Uiso   1.00
H28    H     0.21519   0.53209   0.06649   0.00000  Uiso   1.00
H29    H     0.08132   0.52678   0.46921   0.00000  Uiso   1.00
H30    H     0.95256   0.93546   0.46686   0.00000  Uiso   1.00
H31    H     0.28246   0.67094   0.33620   0.00000  Uiso   1.00
H32    H     0.35103   0.60820   0.20932   0.00000  Uiso   1.00
H33    H     0.28754   0.60567   0.40030   0.00000  Uiso   1.00
H34    H     0.22648   0.79947   0.39919   0.00000  Uiso   1.00
H35    H     0.39917   0.53775   0.06836   0.00000  Uiso   1.00
H36    H     0.26530   0.53245   0.47109   0.00000  Uiso   1.00
H37    H     0.13654   0.94113   0.46873   0.00000  Uiso   1.00
O38    O     0.34842   0.49351   0.98392   0.00000  Uiso   1.00
O39    O     0.17278   0.48656   0.51229   0.00000  Uiso   1.00
O40    O     0.00385   0.02274   0.50920   0.00000  Uiso   1.00
N41    N     0.24908   0.54204   0.08435   0.00000  Uiso   1.00
N42    N     0.12392   0.53707   0.46086   0.00000  Uiso   1.00
N43    N     0.00353   0.91915   0.45867   0.00000  Uiso   1.00
N44    N     0.34808   0.54509   0.08535   0.00000  Uiso   1.00
N45    N     0.22292   0.54012   0.46187   0.00000  Uiso   1.00
N46    N     0.10253   0.92220   0.45968   0.00000  Uiso   1.00
C47    C     0.45465   0.66634   0.33173   0.00000  Uiso   1.00
C48    C     0.44764   0.73689   0.36617   0.00000  Uiso   1.00
C49    C     0.38660   0.79453   0.39457   0.00000  Uiso   1.00
C50    C     0.39105   0.85424   0.42366   0.00000  Uiso   1.00
C51    C     0.37056   0.96350   0.47701   0.00000  Uiso   1.00
C52    C     0.51528   0.63297   0.26303   0.00000  Uiso   1.00
C53    C     0.51112   0.60323   0.20471   0.00000  Uiso   1.00
C54    C     0.57251   0.57546   0.14697   0.00000  Uiso   1.00
C55    C     0.65706   0.52334   0.04019   0.00000  Uiso   1.00
C56    C     0.48081   0.63159   0.36678   0.00000  Uiso   1.00
C57    C     0.44766   0.60065   0.39569   0.00000  Uiso   1.00
C58    C     0.48004   0.57170   0.42529   0.00000  Uiso   1.00
C59    C     0.51104   0.51743   0.47961   0.00000  Uiso   1.00
C60    C     0.57108   0.66990   0.33290   0.00000  Uiso   1.00
C61    C     0.51088   0.73883   0.36680   0.00000  Uiso   1.00
C62    C     0.51542   0.79847   0.39586   0.00000  Uiso   1.00
C63    C     0.45440   0.85618   0.42429   0.00000  Uiso   1.00
C64    C     0.57853   0.63491   0.26366   0.00000  Uiso   1.00
C65    C     0.63994   0.60717   0.20600   0.00000  Uiso   1.00
C66    C     0.63587   0.57740   0.14761   0.00000  Uiso   1.00
C67    C     0.54405   0.63352   0.36742   0.00000  Uiso   1.00
C68    C     0.57648   0.60461   0.39698   0.00000  Uiso   1.00
C69    C     0.54339   0.57364   0.42593   0.00000  Uiso   1.00
H70    H     0.40541   0.66483   0.33123   0.00000  Uiso   1.00
H71    H     0.33767   0.79301   0.39406   0.00000  Uiso   1.00
H72    H     0.46218   0.60173   0.20423   0.00000  Uiso   1.00
H73    H     0.39872   0.59916   0.39519   0.00000  Uiso   1.00
H74    H     0.29047   0.93597   0.46398   0.00000  Uiso   1.00
H75    H     0.55299   0.53264   0.06371   0.00000  Uiso   1.00
H76    H     0.41919   0.52722   0.46637   0.00000  Uiso   1.00
H77    H     0.62032   0.67141   0.33339   0.00000  Uiso   1.00
H78    H     0.56437   0.79996   0.39634   0.00000  Uiso   1.00
H79    H     0.68887   0.60868   0.20651   0.00000  Uiso   1.00
H80    H     0.62542   0.60612   0.39746   0.00000  Uiso   1.00
H81    H     0.47446   0.94161   0.46582   0.00000  Uiso   1.00
H82    H     0.73699   0.53827   0.06556   0.00000  Uiso   1.00
H83    H     0.60319   0.53287   0.46822   0.00000  Uiso   1.00
O84    O     0.34179   0.02324   0.50625   0.00000  Uiso   1.00
O85    O     0.68622   0.49407   0.98112   0.00000  Uiso   1.00
O86    O     0.51067   0.48697   0.50941   0.00000  Uiso   1.00
N87    N     0.34144   0.91966   0.45578   0.00000  Uiso   1.00
N88    N     0.58689   0.54258   0.08156   0.00000  Uiso   1.00
N89    N     0.46181   0.53750   0.45800   0.00000  Uiso   1.00
N90    N     0.44045   0.92269   0.45678   0.00000  Uiso   1.00
N91    N     0.68590   0.54561   0.08255   0.00000  Uiso   1.00
N92    N     0.56082   0.54053   0.45900   0.00000  Uiso   1.00
C93    C     0.78625   0.66246   0.33200   0.00000  Uiso   1.00
C94    C     0.81242   0.62772   0.36706   0.00000  Uiso   1.00
C95    C     0.77926   0.59682   0.39600   0.00000  Uiso   1.00
C96    C     0.81162   0.56790   0.42563   0.00000  Uiso   1.00
C97    C     0.84261   0.51369   0.48000   0.00000  Uiso   1.00
C98    C     0.77924   0.73302   0.36644   0.00000  Uiso   1.00
C99    C     0.71819   0.79065   0.39485   0.00000  Uiso   1.00
C100   C     0.72263   0.85038   0.42395   0.00000  Uiso   1.00
C101   C     0.70212   0.95964   0.47732   0.00000  Uiso   1.00
C102   C     0.84689   0.62911   0.26330   0.00000  Uiso   1.00
C103   C     0.84271   0.59939   0.20498   0.00000  Uiso   1.00
C104   C     0.90410   0.57163   0.14724   0.00000  Uiso   1.00
C105   C     0.98862   0.51956   0.04047   0.00000  Uiso   1.00
C106   C     0.90268   0.66605   0.33317   0.00000  Uiso   1.00
C107   C     0.87565   0.62967   0.36770   0.00000  Uiso   1.00
C108   C     0.90808   0.60079   0.39729   0.00000  Uiso   1.00
C109   C     0.87497   0.56985   0.42626   0.00000  Uiso   1.00
C110   C     0.84248   0.73497   0.36708   0.00000  Uiso   1.00
C111   C     0.84700   0.79462   0.39614   0.00000  Uiso   1.00
C112   C     0.78598   0.85233   0.42458   0.00000  Uiso   1.00
C113   C     0.91013   0.63105   0.26393   0.00000  Uiso   1.00
C114   C     0.97153   0.60335   0.20627   0.00000  Uiso   1.00
C115   C     0.96745   0.57359   0.14787   0.00000  Uiso   1.00
H116   H     0.73702   0.66095   0.33151   0.00000  Uiso   1.00
H117   H     0.73032   0.59533   0.39550   0.00000  Uiso   1.00
H118   H     0.66926   0.78913   0.39434   0.00000  Uiso   1.00
H119   H     0.79377   0.59789   0.20451   0.00000  Uiso   1.00
H120   H     0.75077   0.52346   0.46675   0.00000  Uiso   1.00
H121   H     0.62203   0.93210   0.46429   0.00000  Uiso   1.00
H122   H     0.88457   0.52883   0.06398   0.00000  Uiso   1.00
H123   H     0.95192   0.66757   0.33366   0.00000  Uiso   1.00
H124   H     0.95701   0.60230   0.39777   0.00000  Uiso   1.00
H125   H     0.89595   0.79611   0.39662   0.00000  Uiso   1.00
H126   H     0.02046   0.60487   0.20678   0.00000  Uiso   1.00
H127   H     0.93476   0.52912   0.46860   0.00000  Uiso   1.00
H128   H     0.80602   0.93776   0.46614   0.00000  Uiso   1.00
H129   H     0.06856   0.53449   0.06583   0.00000  Uiso   1.00
O130   O     0.84222   0.48326   0.50983   0.00000  Uiso   1.00
O131   O     0.67333   0.01938   0.50659   0.00000  Uiso   1.00
O132   O     0.01778   0.49030   0.98140   0.00000  Uiso   1.00
N133   N     0.79338   0.53373   0.45838   0.00000  Uiso   1.00
N134   N     0.67301   0.91579   0.45609   0.00000  Uiso   1.00
N135   N     0.91846   0.53878   0.08183   0.00000  Uiso   1.00
N136   N     0.89238   0.53678   0.45937   0.00000  Uiso   1.00
N137   N     0.77202   0.91884   0.45708   0.00000  Uiso   1.00
N138   N     0.01747   0.54183   0.08282   0.00000  Uiso   1.00
C139   C     0.95339   0.32955   0.66512   0.00000  Uiso   1.00
C140   C     0.94595   0.36454   0.73436   0.00000  Uiso   1.00
C141   C     0.88455   0.39226   0.79202   0.00000  Uiso   1.00
C142   C     0.88862   0.42202   0.85041   0.00000  Uiso   1.00
C143   C     0.86746   0.47603   0.95782   0.00000  Uiso   1.00
C144   C     0.01360   0.26063   0.63121   0.00000  Uiso   1.00
C145   C     0.00907   0.20098   0.60214   0.00000  Uiso   1.00
C146   C     0.07009   0.14327   0.57370   0.00000  Uiso   1.00
C147   C     0.15396   0.03595   0.52093   0.00000  Uiso   1.00
C148   C     0.98042   0.36593   0.63060   0.00000  Uiso   1.00
C149   C     0.94801   0.39480   0.60099   0.00000  Uiso   1.00
C150   C     0.98112   0.42573   0.57201   0.00000  Uiso   1.00
C151   C     0.01348   0.48190   0.51828   0.00000  Uiso   1.00
C152   C     0.06982   0.33312   0.66628   0.00000  Uiso   1.00
C153   C     0.00919   0.36648   0.73499   0.00000  Uiso   1.00
C154   C     0.01336   0.39621   0.79330   0.00000  Uiso   1.00
C155   C     0.95198   0.42397   0.85104   0.00000  Uiso   1.00
C156   C     0.07684   0.26257   0.63184   0.00000  Uiso   1.00
C157   C     0.13788   0.20493   0.60343   0.00000  Uiso   1.00
C158   C     0.13345   0.14521   0.57433   0.00000  Uiso   1.00
C159   C     0.04366   0.36787   0.63123   0.00000  Uiso   1.00
C160   C     0.07683   0.39876   0.60228   0.00000  Uiso   1.00
C161   C     0.04447   0.42767   0.57264   0.00000  Uiso   1.00
H162   H     0.90416   0.32804   0.66463   0.00000  Uiso   1.00
H163   H     0.83562   0.39074   0.79151   0.00000  Uiso   1.00
H164   H     0.96012   0.19949   0.60166   0.00000  Uiso   1.00
H165   H     0.89907   0.39329   0.60051   0.00000  Uiso   1.00
H166   H     0.78752   0.46110   0.93246   0.00000  Uiso   1.00
H167   H     0.05005   0.05784   0.53212   0.00000  Uiso   1.00
H168   H     0.92132   0.46649   0.52970   0.00000  Uiso   1.00
H169   H     0.11906   0.33463   0.66677   0.00000  Uiso   1.00
H170   H     0.06231   0.39771   0.79378   0.00000  Uiso   1.00
H171   H     0.18682   0.20645   0.60392   0.00000  Uiso   1.00
H172   H     0.12577   0.40025   0.60278   0.00000  Uiso   1.00
H173   H     0.97152   0.46675   0.93430   0.00000  Uiso   1.00
H174   H     0.23405   0.06348   0.53396   0.00000  Uiso   1.00
H175   H     0.10532   0.47214   0.53154   0.00000  Uiso   1.00
O176   O     0.83832   0.50527   0.01689   0.00000  Uiso   1.00
O177   O     0.18274   0.97621   0.49165   0.00000  Uiso   1.00
O178   O     0.01385   0.51236   0.48848   0.00000  Uiso   1.00
N179   N     0.83861   0.45378   0.91547   0.00000  Uiso   1.00
N180   N     0.08405   0.07676   0.54118   0.00000  Uiso   1.00
N181   N     0.96371   0.45880   0.53890   0.00000  Uiso   1.00
N182   N     0.93762   0.45682   0.91646   0.00000  Uiso   1.00
N183   N     0.18306   0.07980   0.54217   0.00000  Uiso   1.00
N184   N     0.06272   0.46184   0.53989   0.00000  Uiso   1.00
C185   C     0.28772   0.33321   0.66510   0.00000  Uiso   1.00
C186   C     0.31475   0.36960   0.63058   0.00000  Uiso   1.00
C187   C     0.28233   0.39850   0.60101   0.00000  Uiso   1.00
C188   C     0.31542   0.42946   0.57206   0.00000  Uiso   1.00
C189   C     0.34776   0.48569   0.51840   0.00000  Uiso   1.00
C190   C     0.28027   0.36820   0.73434   0.00000  Uiso   1.00
C191   C     0.21885   0.39593   0.79200   0.00000  Uiso   1.00
C192   C     0.22292   0.42571   0.85040   0.00000  Uiso   1.00
C193   C     0.20174   0.47973   0.95782   0.00000  Uiso   1.00
C194   C     0.34792   0.26429   0.63120   0.00000  Uiso   1.00
C195   C     0.34338   0.20464   0.60216   0.00000  Uiso   1.00
C196   C     0.40440   0.14693   0.57373   0.00000  Uiso   1.00
C197   C     0.48824   0.03961   0.52100   0.00000  Uiso   1.00
C198   C     0.40414   0.33678   0.66628   0.00000  Uiso   1.00
C199   C     0.37799   0.37154   0.63123   0.00000  Uiso   1.00
C200   C     0.41114   0.40246   0.60232   0.00000  Uiso   1.00
C201   C     0.37877   0.43140   0.57270   0.00000  Uiso   1.00
C202   C     0.34350   0.37015   0.73499   0.00000  Uiso   1.00
C203   C     0.34767   0.39988   0.79331   0.00000  Uiso   1.00
C204   C     0.28627   0.42766   0.85104   0.00000  Uiso   1.00
C205   C     0.41116   0.26623   0.63184   0.00000  Uiso   1.00
C206   C     0.47219   0.20860   0.60346   0.00000  Uiso   1.00
C207   C     0.46775   0.14888   0.57437   0.00000  Uiso   1.00
H208   H     0.23848   0.33170   0.66461   0.00000  Uiso   1.00
H209   H     0.23338   0.39700   0.60053   0.00000  Uiso   1.00
H210   H     0.16993   0.39442   0.79149   0.00000  Uiso   1.00
H211   H     0.29443   0.20316   0.60167   0.00000  Uiso   1.00
H212   H     0.25561   0.47026   0.52979   0.00000  Uiso   1.00
H213   H     0.12181   0.46481   0.93244   0.00000  Uiso   1.00
H214   H     0.38435   0.06150   0.53217   0.00000  Uiso   1.00
H215   H     0.45338   0.33830   0.66678   0.00000  Uiso   1.00
H216   H     0.46008   0.40395   0.60282   0.00000  Uiso   1.00
H217   H     0.39661   0.40137   0.79379   0.00000  Uiso   1.00
H218   H     0.52112   0.21012   0.60396   0.00000  Uiso   1.00
H219   H     0.43960   0.47591   0.53165   0.00000  Uiso   1.00
H220   H     0.30579   0.47045   0.93431   0.00000  Uiso   1.00
H221   H     0.56834   0.06715   0.53403   0.00000  Uiso   1.00
O222   O     0.34812   0.51617   0.48863   0.00000  Uiso   1.00
O223   O     0.17258   0.50901   0.01689   0.00000  Uiso   1.00
O224   O     0.51703   0.97989   0.49173   0.00000  Uiso   1.00
N225   N     0.29800   0.46257   0.53900   0.00000  Uiso   1.00
N226   N     0.17290   0.45748   0.91545   0.00000  Uiso   1.00
N227   N     0.41835   0.08042   0.54124   0.00000  Uiso   1.00
N228   N     0.39700   0.46561   0.54000   0.00000  Uiso   1.00
N229   N     0.27190   0.46052   0.91645   0.00000  Uiso   1.00
N230   N     0.51735   0.08346   0.54224   0.00000  Uiso   1.00
C231   C     0.61660   0.33187   0.66801   0.00000  Uiso   1.00
C232   C     0.67680   0.26295   0.63410   0.00000  Uiso   1.00
C233   C     0.67229   0.20330   0.60502   0.00000  Uiso   1.00
C234   C     0.73332   0.14560   0.57657   0.00000  Uiso   1.00
C235   C     0.81720   0.03828   0.52379   0.00000  Uiso   1.00
C236   C     0.64362   0.36825   0.63349   0.00000  Uiso   1.00
C237   C     0.61120   0.39715   0.60391   0.00000  Uiso   1.00
C238   C     0.64429   0.42810   0.57495   0.00000  Uiso   1.00
C239   C     0.67663   0.48432   0.52126   0.00000  Uiso   1.00
C240   C     0.60914   0.36687   0.73725   0.00000  Uiso   1.00
C241   C     0.54772   0.39462   0.79491   0.00000  Uiso   1.00
C242   C     0.55178   0.42442   0.85331   0.00000  Uiso   1.00
C243   C     0.53058   0.47848   0.96072   0.00000  Uiso   1.00
C244   C     0.73302   0.33546   0.66919   0.00000  Uiso   1.00
C245   C     0.74004   0.26490   0.63474   0.00000  Uiso   1.00
C246   C     0.80109   0.20727   0.60633   0.00000  Uiso   1.00
C247   C     0.79667   0.14755   0.57721   0.00000  Uiso   1.00
C248   C     0.70686   0.37020   0.63413   0.00000  Uiso   1.00
C249   C     0.74001   0.40112   0.60521   0.00000  Uiso   1.00
C250   C     0.70764   0.43006   0.57559   0.00000  Uiso   1.00
C251   C     0.67238   0.36882   0.73789   0.00000  Uiso   1.00
C252   C     0.67653   0.39859   0.79621   0.00000  Uiso   1.00
C253   C     0.61513   0.42637   0.85395   0.00000  Uiso   1.00
H254   H     0.56737   0.33035   0.66751   0.00000  Uiso   1.00
H255   H     0.62334   0.20181   0.60453   0.00000  Uiso   1.00
H256   H     0.56226   0.39564   0.60342   0.00000  Uiso   1.00
H257   H     0.49880   0.39310   0.79439   0.00000  Uiso   1.00
H258   H     0.71330   0.06016   0.53497   0.00000  Uiso   1.00
H259   H     0.58449   0.46887   0.53265   0.00000  Uiso   1.00
H260   H     0.45066   0.46352   0.93535   0.00000  Uiso   1.00
H261   H     0.78225   0.33698   0.66969   0.00000  Uiso   1.00
H262   H     0.85002   0.20880   0.60683   0.00000  Uiso   1.00
H263   H     0.78894   0.40263   0.60572   0.00000  Uiso   1.00
H264   H     0.72547   0.40009   0.79669   0.00000  Uiso   1.00
H265   H     0.89728   0.06583   0.53683   0.00000  Uiso   1.00
H266   H     0.76847   0.47455   0.53452   0.00000  Uiso   1.00
H267   H     0.63464   0.46919   0.93721   0.00000  Uiso   1.00
O268   O     0.84600   0.97855   0.49449   0.00000  Uiso   1.00
O269   O     0.67700   0.51478   0.49146   0.00000  Uiso   1.00
O270   O     0.50142   0.50776   0.01979   0.00000  Uiso   1.00
N271   N     0.74729   0.07909   0.54404   0.00000  Uiso   1.00
N272   N     0.62687   0.46120   0.54187   0.00000  Uiso   1.00
N273   N     0.50175   0.45621   0.91836   0.00000  Uiso   1.00
N274   N     0.84629   0.08214   0.54505   0.00000  Uiso   1.00
N275   N     0.72587   0.46425   0.54287   0.00000  Uiso   1.00
N276   N     0.60075   0.45926   0.91936   0.00000  Uiso   1.00
