data_job_01776
_audit_creation_date              2018-12-19
_audit_creation_method            'Materials Studio'
_symmetry_space_group_name_H-M    'P1'
_symmetry_Int_Tables_number       1
_symmetry_cell_setting            triclinic
loop_
_symmetry_equiv_pos_as_xyz
  x,y,z
_cell_length_a                    12.0838
_cell_length_b                    22.0999
_cell_length_c                    9.4542
_cell_angle_alpha                 90.0000
_cell_angle_beta                  90.0000
_cell_angle_gamma                 90.0000
loop_
_atom_site_label
_atom_site_type_symbol
_atom_site_fract_x
_atom_site_fract_y
_atom_site_fract_z
_atom_site_U_iso_or_equiv
_atom_site_adp_type
_atom_site_occupancy
C1     C     0.27865   0.54381   0.57811   0.00000  Uiso   1.00
C2     C     0.30903   0.59491   0.47691   0.00000  Uiso   1.00
C3     C     0.30480   0.59207   0.33037   0.00000  Uiso   1.00
C4     C     0.33598   0.64367   0.25669   0.00000  Uiso   1.00
C5     C     0.37801   0.71501   0.08883   0.00000  Uiso   1.00
C6     C     0.38034   0.53350   0.67054   0.00000  Uiso   1.00
C7     C     0.43605   0.47902   0.68681   0.00000  Uiso   1.00
C8     C     0.52725   0.47893   0.77614   0.00000  Uiso   1.00
C9     C     0.67994   0.45492   0.90897   0.00000  Uiso   1.00
C10    C     0.18969   0.56928   0.67580   0.00000  Uiso   1.00
C11    C     0.08511   0.54489   0.69653   0.00000  Uiso   1.00
C12    C     0.01580   0.57491   0.79031   0.00000  Uiso   1.00
C13    C     0.87249   0.60646   0.93131   0.00000  Uiso   1.00
C14    C     0.34155   0.64050   0.70785   0.00000  Uiso   1.00
C15    C     0.34320   0.64742   0.54738   0.00000  Uiso   1.00
C16    C     0.37439   0.69904   0.47390   0.00000  Uiso   1.00
C17    C     0.37020   0.69628   0.32728   0.00000  Uiso   1.00
C18    C     0.41450   0.58601   0.74100   0.00000  Uiso   1.00
C19    C     0.50564   0.58599   0.83034   0.00000  Uiso   1.00
C20    C     0.56147   0.53154   0.84673   0.00000  Uiso   1.00
C21    C     0.22385   0.62180   0.74626   0.00000  Uiso   1.00
C22    C     0.15470   0.65186   0.84005   0.00000  Uiso   1.00
C23    C     0.05003   0.62752   0.86091   0.00000  Uiso   1.00
H24    H     0.25206   0.50292   0.52326   0.00000  Uiso   1.00
H25    H     0.27836   0.55142   0.27588   0.00000  Uiso   1.00
H26    H     0.40958   0.43839   0.63227   0.00000  Uiso   1.00
H27    H     0.05870   0.50425   0.64198   0.00000  Uiso   1.00
H28    H     0.32263   0.62834   0.03268   0.00000  Uiso   1.00
H29    H     0.59930   0.39000   0.78420   0.00000  Uiso   1.00
H30    H     0.85939   0.52888   0.80467   0.00000  Uiso   1.00
H31    H     0.36815   0.68138   0.76271   0.00000  Uiso   1.00
H32    H     0.40082   0.73967   0.52846   0.00000  Uiso   1.00
H33    H     0.53205   0.62664   0.88486   0.00000  Uiso   1.00
H34    H     0.18116   0.69250   0.89456   0.00000  Uiso   1.00
H35    H     0.42203   0.78113   0.23769   0.00000  Uiso   1.00
H36    H     0.69870   0.54279   0.98921   0.00000  Uiso   1.00
H37    H     0.95879   0.68167   0.00968   0.00000  Uiso   1.00
O38    O     0.39177   0.73985   0.97677   0.00000  Uiso   1.00
O39    O     0.75473   0.42716   0.96275   0.00000  Uiso   1.00
O40    O     0.78399   0.60937   0.98959   0.00000  Uiso   1.00
N41    N     0.34152   0.65630   0.11308   0.00000  Uiso   1.00
N42    N     0.60020   0.43347   0.81568   0.00000  Uiso   1.00
N43    N     0.90846   0.56330   0.83485   0.00000  Uiso   1.00
N44    N     0.39500   0.73852   0.22339   0.00000  Uiso   1.00
N45    N     0.65368   0.51569   0.92600   0.00000  Uiso   1.00
N46    N     0.96194   0.64552   0.94516   0.00000  Uiso   1.00
C47    C     0.22135   0.45619   0.07811   0.00000  Uiso   1.00
C48    C     0.19097   0.40509   0.97691   0.00000  Uiso   1.00
C49    C     0.19520   0.40793   0.83037   0.00000  Uiso   1.00
C50    C     0.16402   0.35633   0.75669   0.00000  Uiso   1.00
C51    C     0.12199   0.28499   0.58883   0.00000  Uiso   1.00
C52    C     0.11966   0.46650   0.17054   0.00000  Uiso   1.00
C53    C     0.06395   0.52098   0.18681   0.00000  Uiso   1.00
C54    C     0.97275   0.52107   0.27614   0.00000  Uiso   1.00
C55    C     0.82006   0.54508   0.40897   0.00000  Uiso   1.00
C56    C     0.31031   0.43072   0.17580   0.00000  Uiso   1.00
C57    C     0.41489   0.45511   0.19653   0.00000  Uiso   1.00
C58    C     0.48420   0.42509   0.29031   0.00000  Uiso   1.00
C59    C     0.62751   0.39354   0.43131   0.00000  Uiso   1.00
C60    C     0.15845   0.35950   0.20785   0.00000  Uiso   1.00
C61    C     0.15680   0.35258   0.04738   0.00000  Uiso   1.00
C62    C     0.12561   0.30096   0.97390   0.00000  Uiso   1.00
C63    C     0.12980   0.30372   0.82728   0.00000  Uiso   1.00
C64    C     0.08550   0.41399   0.24100   0.00000  Uiso   1.00
C65    C     0.99436   0.41401   0.33034   0.00000  Uiso   1.00
C66    C     0.93853   0.46846   0.34673   0.00000  Uiso   1.00
C67    C     0.27615   0.37820   0.24626   0.00000  Uiso   1.00
C68    C     0.34530   0.34814   0.34005   0.00000  Uiso   1.00
C69    C     0.44997   0.37248   0.36091   0.00000  Uiso   1.00
H70    H     0.24794   0.49708   0.02326   0.00000  Uiso   1.00
H71    H     0.22164   0.44858   0.77588   0.00000  Uiso   1.00
H72    H     0.09042   0.56161   0.13227   0.00000  Uiso   1.00
H73    H     0.44130   0.49575   0.14198   0.00000  Uiso   1.00
H74    H     0.17737   0.37166   0.53268   0.00000  Uiso   1.00
H75    H     0.90070   0.61000   0.28420   0.00000  Uiso   1.00
H76    H     0.64061   0.47112   0.30467   0.00000  Uiso   1.00
H77    H     0.13185   0.31862   0.26271   0.00000  Uiso   1.00
H78    H     0.09918   0.26033   0.02846   0.00000  Uiso   1.00
H79    H     0.96795   0.37336   0.38486   0.00000  Uiso   1.00
H80    H     0.31884   0.30750   0.39456   0.00000  Uiso   1.00
H81    H     0.07797   0.21887   0.73769   0.00000  Uiso   1.00
H82    H     0.80130   0.45721   0.48921   0.00000  Uiso   1.00
H83    H     0.54121   0.31833   0.50968   0.00000  Uiso   1.00
O84    O     0.10823   0.26015   0.47677   0.00000  Uiso   1.00
O85    O     0.74527   0.57284   0.46275   0.00000  Uiso   1.00
O86    O     0.71601   0.39063   0.48959   0.00000  Uiso   1.00
N87    N     0.15848   0.34370   0.61308   0.00000  Uiso   1.00
N88    N     0.89980   0.56653   0.31568   0.00000  Uiso   1.00
N89    N     0.59154   0.43670   0.33485   0.00000  Uiso   1.00
N90    N     0.10500   0.26148   0.72339   0.00000  Uiso   1.00
N91    N     0.84632   0.48431   0.42600   0.00000  Uiso   1.00
N92    N     0.53806   0.35448   0.44516   0.00000  Uiso   1.00
C93    C     0.72135   0.04381   0.92189   0.00000  Uiso   1.00
C94    C     0.69097   0.09491   0.02309   0.00000  Uiso   1.00
C95    C     0.69520   0.09207   0.16963   0.00000  Uiso   1.00
C96    C     0.66402   0.14367   0.24331   0.00000  Uiso   1.00
C97    C     0.62199   0.21501   0.41117   0.00000  Uiso   1.00
C98    C     0.61966   0.03350   0.82946   0.00000  Uiso   1.00
C99    C     0.56395   0.97902   0.81319   0.00000  Uiso   1.00
C100   C     0.47275   0.97893   0.72386   0.00000  Uiso   1.00
C101   C     0.32006   0.95492   0.59103   0.00000  Uiso   1.00
C102   C     0.81031   0.06928   0.82420   0.00000  Uiso   1.00
C103   C     0.91489   0.04489   0.80347   0.00000  Uiso   1.00
C104   C     0.98420   0.07491   0.70969   0.00000  Uiso   1.00
C105   C     0.12751   0.10646   0.56869   0.00000  Uiso   1.00
C106   C     0.65845   0.14050   0.79215   0.00000  Uiso   1.00
C107   C     0.65680   0.14742   0.95262   0.00000  Uiso   1.00
C108   C     0.62561   0.19904   0.02610   0.00000  Uiso   1.00
C109   C     0.62980   0.19628   0.17272   0.00000  Uiso   1.00
C110   C     0.58550   0.08601   0.75900   0.00000  Uiso   1.00
C111   C     0.49436   0.08599   0.66966   0.00000  Uiso   1.00
C112   C     0.43853   0.03154   0.65327   0.00000  Uiso   1.00
C113   C     0.77615   0.12180   0.75374   0.00000  Uiso   1.00
C114   C     0.84530   0.15186   0.65995   0.00000  Uiso   1.00
C115   C     0.94997   0.12752   0.63909   0.00000  Uiso   1.00
H116   H     0.74794   0.00292   0.97674   0.00000  Uiso   1.00
H117   H     0.72164   0.05142   0.22412   0.00000  Uiso   1.00
H118   H     0.59042   0.93839   0.86773   0.00000  Uiso   1.00
H119   H     0.94130   0.00425   0.85802   0.00000  Uiso   1.00
H120   H     0.67737   0.12834   0.46732   0.00000  Uiso   1.00
H121   H     0.40070   0.89000   0.71580   0.00000  Uiso   1.00
H122   H     0.14061   0.02888   0.69533   0.00000  Uiso   1.00
H123   H     0.63185   0.18138   0.73729   0.00000  Uiso   1.00
H124   H     0.59918   0.23967   0.97154   0.00000  Uiso   1.00
H125   H     0.46795   0.12664   0.61514   0.00000  Uiso   1.00
H126   H     0.81884   0.19250   0.60544   0.00000  Uiso   1.00
H127   H     0.57797   0.28113   0.26231   0.00000  Uiso   1.00
H128   H     0.30130   0.04279   0.51079   0.00000  Uiso   1.00
H129   H     0.04121   0.18167   0.49032   0.00000  Uiso   1.00
O130   O     0.60823   0.23985   0.52323   0.00000  Uiso   1.00
O131   O     0.24527   0.92716   0.53725   0.00000  Uiso   1.00
O132   O     0.21601   0.10937   0.51041   0.00000  Uiso   1.00
N133   N     0.65848   0.15630   0.38692   0.00000  Uiso   1.00
N134   N     0.39980   0.93347   0.68432   0.00000  Uiso   1.00
N135   N     0.09154   0.06330   0.66515   0.00000  Uiso   1.00
N136   N     0.60500   0.23852   0.27661   0.00000  Uiso   1.00
N137   N     0.34632   0.01569   0.57400   0.00000  Uiso   1.00
N138   N     0.03806   0.14552   0.55484   0.00000  Uiso   1.00
C139   C     0.77865   0.95619   0.42189   0.00000  Uiso   1.00
C140   C     0.80903   0.90509   0.52309   0.00000  Uiso   1.00
C141   C     0.80480   0.90793   0.66963   0.00000  Uiso   1.00
C142   C     0.83598   0.85633   0.74331   0.00000  Uiso   1.00
C143   C     0.87801   0.78499   0.91117   0.00000  Uiso   1.00
C144   C     0.88034   0.96650   0.32946   0.00000  Uiso   1.00
C145   C     0.93605   0.02098   0.31319   0.00000  Uiso   1.00
C146   C     0.02725   0.02107   0.22386   0.00000  Uiso   1.00
C147   C     0.17994   0.04508   0.09103   0.00000  Uiso   1.00
C148   C     0.68969   0.93072   0.32420   0.00000  Uiso   1.00
C149   C     0.58511   0.95511   0.30347   0.00000  Uiso   1.00
C150   C     0.51580   0.92509   0.20969   0.00000  Uiso   1.00
C151   C     0.37249   0.89354   0.06869   0.00000  Uiso   1.00
C152   C     0.84155   0.85950   0.29215   0.00000  Uiso   1.00
C153   C     0.84320   0.85258   0.45262   0.00000  Uiso   1.00
C154   C     0.87439   0.80096   0.52610   0.00000  Uiso   1.00
C155   C     0.87020   0.80372   0.67272   0.00000  Uiso   1.00
C156   C     0.91450   0.91399   0.25900   0.00000  Uiso   1.00
C157   C     0.00564   0.91401   0.16966   0.00000  Uiso   1.00
C158   C     0.06147   0.96846   0.15327   0.00000  Uiso   1.00
C159   C     0.72385   0.87820   0.25374   0.00000  Uiso   1.00
C160   C     0.65470   0.84814   0.15995   0.00000  Uiso   1.00
C161   C     0.55003   0.87248   0.13909   0.00000  Uiso   1.00
H162   H     0.75206   0.99708   0.47674   0.00000  Uiso   1.00
H163   H     0.77836   0.94858   0.72412   0.00000  Uiso   1.00
H164   H     0.90958   0.06161   0.36773   0.00000  Uiso   1.00
H165   H     0.55870   0.99575   0.35802   0.00000  Uiso   1.00
H166   H     0.82263   0.87166   0.96732   0.00000  Uiso   1.00
H167   H     0.09930   0.11000   0.21580   0.00000  Uiso   1.00
H168   H     0.35939   0.97112   0.19533   0.00000  Uiso   1.00
H169   H     0.86815   0.81862   0.23729   0.00000  Uiso   1.00
H170   H     0.90082   0.76033   0.47154   0.00000  Uiso   1.00
H171   H     0.03205   0.87336   0.11514   0.00000  Uiso   1.00
H172   H     0.68116   0.80750   0.10544   0.00000  Uiso   1.00
H173   H     0.92203   0.71887   0.76231   0.00000  Uiso   1.00
H174   H     0.19870   0.95721   0.01079   0.00000  Uiso   1.00
H175   H     0.45879   0.81833   0.99032   0.00000  Uiso   1.00
O176   O     0.89177   0.76015   0.02323   0.00000  Uiso   1.00
O177   O     0.25473   0.07284   0.03725   0.00000  Uiso   1.00
O178   O     0.28399   0.89063   0.01041   0.00000  Uiso   1.00
N179   N     0.84152   0.84370   0.88692   0.00000  Uiso   1.00
N180   N     0.10020   0.06653   0.18432   0.00000  Uiso   1.00
N181   N     0.40846   0.93670   0.16515   0.00000  Uiso   1.00
N182   N     0.89500   0.76148   0.77661   0.00000  Uiso   1.00
N183   N     0.15368   0.98431   0.07400   0.00000  Uiso   1.00
N184   N     0.46194   0.85448   0.05484   0.00000  Uiso   1.00
