data_job_02196
_audit_creation_date              2018-12-19
_audit_creation_method            'Materials Studio'
_symmetry_space_group_name_H-M    'P1'
_symmetry_Int_Tables_number       1
_symmetry_cell_setting            triclinic
loop_
_symmetry_equiv_pos_as_xyz
  x,y,z
_cell_length_a                    16.2958
_cell_length_b                    12.6337
_cell_length_c                    19.7568
_cell_angle_alpha                 90.0000
_cell_angle_beta                  54.3752
_cell_angle_gamma                 90.0000
loop_
_atom_site_label
_atom_site_type_symbol
_atom_site_fract_x
_atom_site_fract_y
_atom_site_fract_z
_atom_site_U_iso_or_equiv
_atom_site_adp_type
_atom_site_occupancy
C1     C     0.14840   0.49668   0.09939   0.00000  Uiso   1.00
C2     C     0.11393   0.39600   0.08021   0.00000  Uiso   1.00
C3     C     0.01454   0.36771   0.11504   0.00000  Uiso   1.00
C4     C     0.99872   0.27236   0.08935   0.00000  Uiso   1.00
C5     C     0.93291   0.12583   0.06848   0.00000  Uiso   1.00
C6     C     0.21268   0.46060   0.12824   0.00000  Uiso   1.00
C7     C     0.19633   0.48665   0.20345   0.00000  Uiso   1.00
C8     C     0.26365   0.44570   0.21819   0.00000  Uiso   1.00
C9     C     0.35119   0.39952   0.27186   0.00000  Uiso   1.00
C10    C     0.22045   0.55189   0.01601   0.00000  Uiso   1.00
C11    C     0.21065   0.65470   0.99687   0.00000  Uiso   1.00
C12    C     0.28452   0.69061   0.91712   0.00000  Uiso   1.00
C13    C     0.38413   0.78618   0.79656   0.00000  Uiso   1.00
C14    C     0.29703   0.37766   0.99182   0.00000  Uiso   1.00
C15    C     0.19466   0.33135   0.02178   0.00000  Uiso   1.00
C16    C     0.17898   0.23602   0.99602   0.00000  Uiso   1.00
C17    C     0.07959   0.20760   0.03081   0.00000  Uiso   1.00
C18    C     0.29341   0.39595   0.06981   0.00000  Uiso   1.00
C19    C     0.36077   0.35496   0.08444   0.00000  Uiso   1.00
C20    C     0.34452   0.38093   0.15965   0.00000  Uiso   1.00
C21    C     0.30118   0.48724   0.95758   0.00000  Uiso   1.00
C22    C     0.37508   0.52301   0.87785   0.00000  Uiso   1.00
C23    C     0.36539   0.62585   0.85859   0.00000  Uiso   1.00
H24    H     0.08555   0.54702   0.14488   0.00000  Uiso   1.00
H25    H     0.95209   0.41776   0.16026   0.00000  Uiso   1.00
H26    H     0.13386   0.53669   0.24865   0.00000  Uiso   1.00
H27    H     0.14817   0.70470   0.04210   0.00000  Uiso   1.00
H28    H     0.83972   0.24592   0.15156   0.00000  Uiso   1.00
H29    H     0.22300   0.49672   0.33793   0.00000  Uiso   1.00
H30    H     0.25318   0.85102   0.90238   0.00000  Uiso   1.00
H31    H     0.35989   0.32733   0.94633   0.00000  Uiso   1.00
H32    H     0.24147   0.18601   0.95081   0.00000  Uiso   1.00
H33    H     0.42324   0.30494   0.03920   0.00000  Uiso   1.00
H34    H     0.43755   0.47296   0.83265   0.00000  Uiso   1.00
H35    H     0.07459   0.05782   0.98157   0.00000  Uiso   1.00
H36    H     0.45788   0.30862   0.16794   0.00000  Uiso   1.00
H37    H     0.48805   0.66292   0.73239   0.00000  Uiso   1.00
O38    O     0.87431   0.06285   0.07312   0.00000  Uiso   1.00
O39    O     0.37717   0.39191   0.31762   0.00000  Uiso   1.00
O40    O     0.41676   0.85674   0.74619   0.00000  Uiso   1.00
N41    N     0.91125   0.22105   0.11093   0.00000  Uiso   1.00
N42    N     0.26958   0.45552   0.28518   0.00000  Uiso   1.00
N43    N     0.29781   0.78678   0.87798   0.00000  Uiso   1.00
N44    N     0.03763   0.11984   0.01945   0.00000  Uiso   1.00
N45    N     0.39597   0.35431   0.19371   0.00000  Uiso   1.00
N46    N     0.42420   0.68556   0.78651   0.00000  Uiso   1.00
C47    C     0.85160   0.99668   0.40061   0.00000  Uiso   1.00
C48    C     0.88607   0.89600   0.41979   0.00000  Uiso   1.00
C49    C     0.98546   0.86771   0.38496   0.00000  Uiso   1.00
C50    C     0.00128   0.77236   0.41065   0.00000  Uiso   1.00
C51    C     0.06709   0.62583   0.43152   0.00000  Uiso   1.00
C52    C     0.78732   0.96060   0.37176   0.00000  Uiso   1.00
C53    C     0.80367   0.98665   0.29655   0.00000  Uiso   1.00
C54    C     0.73635   0.94570   0.28181   0.00000  Uiso   1.00
C55    C     0.64881   0.89952   0.22814   0.00000  Uiso   1.00
C56    C     0.77955   0.05189   0.48399   0.00000  Uiso   1.00
C57    C     0.78935   0.15470   0.50313   0.00000  Uiso   1.00
C58    C     0.71548   0.19061   0.58288   0.00000  Uiso   1.00
C59    C     0.61587   0.28618   0.70344   0.00000  Uiso   1.00
C60    C     0.70297   0.87766   0.50818   0.00000  Uiso   1.00
C61    C     0.80534   0.83135   0.47822   0.00000  Uiso   1.00
C62    C     0.82102   0.73602   0.50398   0.00000  Uiso   1.00
C63    C     0.92041   0.70760   0.46919   0.00000  Uiso   1.00
C64    C     0.70659   0.89595   0.43019   0.00000  Uiso   1.00
C65    C     0.63923   0.85496   0.41556   0.00000  Uiso   1.00
C66    C     0.65548   0.88093   0.34035   0.00000  Uiso   1.00
C67    C     0.69882   0.98724   0.54242   0.00000  Uiso   1.00
C68    C     0.62492   0.02301   0.62215   0.00000  Uiso   1.00
C69    C     0.63461   0.12585   0.64141   0.00000  Uiso   1.00
H70    H     0.91445   0.04702   0.35512   0.00000  Uiso   1.00
H71    H     0.04791   0.91776   0.33974   0.00000  Uiso   1.00
H72    H     0.86614   0.03669   0.25135   0.00000  Uiso   1.00
H73    H     0.85183   0.20470   0.45790   0.00000  Uiso   1.00
H74    H     0.16028   0.74592   0.34844   0.00000  Uiso   1.00
H75    H     0.77700   0.99672   0.16207   0.00000  Uiso   1.00
H76    H     0.74682   0.35102   0.59762   0.00000  Uiso   1.00
H77    H     0.64011   0.82733   0.55367   0.00000  Uiso   1.00
H78    H     0.75853   0.68601   0.54919   0.00000  Uiso   1.00
H79    H     0.57676   0.80494   0.46080   0.00000  Uiso   1.00
H80    H     0.56245   0.97296   0.66735   0.00000  Uiso   1.00
H81    H     0.92541   0.55782   0.51843   0.00000  Uiso   1.00
H82    H     0.54212   0.80862   0.33206   0.00000  Uiso   1.00
H83    H     0.51195   0.16292   0.76761   0.00000  Uiso   1.00
O84    O     0.12569   0.56285   0.42688   0.00000  Uiso   1.00
O85    O     0.62283   0.89191   0.18238   0.00000  Uiso   1.00
O86    O     0.58324   0.35674   0.75381   0.00000  Uiso   1.00
N87    N     0.08875   0.72105   0.38907   0.00000  Uiso   1.00
N88    N     0.73042   0.95552   0.21482   0.00000  Uiso   1.00
N89    N     0.70219   0.28678   0.62202   0.00000  Uiso   1.00
N90    N     0.96237   0.61984   0.48055   0.00000  Uiso   1.00
N91    N     0.60403   0.85431   0.30629   0.00000  Uiso   1.00
N92    N     0.57580   0.18556   0.71349   0.00000  Uiso   1.00
C93    C     0.85160   0.50332   0.90061   0.00000  Uiso   1.00
C94    C     0.88607   0.60400   0.91979   0.00000  Uiso   1.00
C95    C     0.98546   0.63229   0.88496   0.00000  Uiso   1.00
C96    C     0.00128   0.72764   0.91065   0.00000  Uiso   1.00
C97    C     0.06709   0.87417   0.93152   0.00000  Uiso   1.00
C98    C     0.78732   0.53940   0.87176   0.00000  Uiso   1.00
C99    C     0.80367   0.51335   0.79655   0.00000  Uiso   1.00
C100   C     0.73635   0.55430   0.78181   0.00000  Uiso   1.00
C101   C     0.64881   0.60048   0.72814   0.00000  Uiso   1.00
C102   C     0.77955   0.44811   0.98399   0.00000  Uiso   1.00
C103   C     0.78935   0.34530   0.00313   0.00000  Uiso   1.00
C104   C     0.71548   0.30939   0.08288   0.00000  Uiso   1.00
C105   C     0.61587   0.21382   0.20344   0.00000  Uiso   1.00
C106   C     0.70297   0.62234   0.00818   0.00000  Uiso   1.00
C107   C     0.80534   0.66865   0.97822   0.00000  Uiso   1.00
C108   C     0.82102   0.76398   0.00398   0.00000  Uiso   1.00
C109   C     0.92041   0.79240   0.96919   0.00000  Uiso   1.00
C110   C     0.70659   0.60405   0.93019   0.00000  Uiso   1.00
C111   C     0.63923   0.64504   0.91556   0.00000  Uiso   1.00
C112   C     0.65548   0.61907   0.84035   0.00000  Uiso   1.00
C113   C     0.69882   0.51276   0.04242   0.00000  Uiso   1.00
C114   C     0.62492   0.47699   0.12215   0.00000  Uiso   1.00
C115   C     0.63461   0.37415   0.14141   0.00000  Uiso   1.00
H116   H     0.91445   0.45298   0.85512   0.00000  Uiso   1.00
H117   H     0.04791   0.58224   0.83974   0.00000  Uiso   1.00
H118   H     0.86614   0.46331   0.75135   0.00000  Uiso   1.00
H119   H     0.85183   0.29530   0.95790   0.00000  Uiso   1.00
H120   H     0.16028   0.75408   0.84844   0.00000  Uiso   1.00
H121   H     0.77700   0.50328   0.66207   0.00000  Uiso   1.00
H122   H     0.74682   0.14898   0.09762   0.00000  Uiso   1.00
H123   H     0.64011   0.67267   0.05367   0.00000  Uiso   1.00
H124   H     0.75853   0.81399   0.04919   0.00000  Uiso   1.00
H125   H     0.57676   0.69506   0.96080   0.00000  Uiso   1.00
H126   H     0.56245   0.52704   0.16735   0.00000  Uiso   1.00
H127   H     0.92541   0.94218   0.01843   0.00000  Uiso   1.00
H128   H     0.54212   0.69138   0.83206   0.00000  Uiso   1.00
H129   H     0.51195   0.33708   0.26761   0.00000  Uiso   1.00
O130   O     0.12569   0.93715   0.92688   0.00000  Uiso   1.00
O131   O     0.62283   0.60809   0.68238   0.00000  Uiso   1.00
O132   O     0.58324   0.14326   0.25381   0.00000  Uiso   1.00
N133   N     0.08875   0.77895   0.88907   0.00000  Uiso   1.00
N134   N     0.73042   0.54448   0.71482   0.00000  Uiso   1.00
N135   N     0.70219   0.21322   0.12202   0.00000  Uiso   1.00
N136   N     0.96237   0.88016   0.98055   0.00000  Uiso   1.00
N137   N     0.60403   0.64569   0.80629   0.00000  Uiso   1.00
N138   N     0.57580   0.31444   0.21349   0.00000  Uiso   1.00
C139   C     0.14840   0.00332   0.59939   0.00000  Uiso   1.00
C140   C     0.11393   0.10400   0.58021   0.00000  Uiso   1.00
C141   C     0.01454   0.13229   0.61504   0.00000  Uiso   1.00
C142   C     0.99872   0.22764   0.58935   0.00000  Uiso   1.00
C143   C     0.93291   0.37417   0.56848   0.00000  Uiso   1.00
C144   C     0.21268   0.03940   0.62824   0.00000  Uiso   1.00
C145   C     0.19633   0.01335   0.70345   0.00000  Uiso   1.00
C146   C     0.26365   0.05430   0.71819   0.00000  Uiso   1.00
C147   C     0.35119   0.10048   0.77186   0.00000  Uiso   1.00
C148   C     0.22045   0.94811   0.51601   0.00000  Uiso   1.00
C149   C     0.21065   0.84530   0.49687   0.00000  Uiso   1.00
C150   C     0.28452   0.80939   0.41712   0.00000  Uiso   1.00
C151   C     0.38413   0.71382   0.29656   0.00000  Uiso   1.00
C152   C     0.29703   0.12234   0.49182   0.00000  Uiso   1.00
C153   C     0.19466   0.16865   0.52178   0.00000  Uiso   1.00
C154   C     0.17898   0.26398   0.49602   0.00000  Uiso   1.00
C155   C     0.07959   0.29240   0.53081   0.00000  Uiso   1.00
C156   C     0.29341   0.10405   0.56981   0.00000  Uiso   1.00
C157   C     0.36077   0.14504   0.58444   0.00000  Uiso   1.00
C158   C     0.34452   0.11907   0.65965   0.00000  Uiso   1.00
C159   C     0.30118   0.01276   0.45758   0.00000  Uiso   1.00
C160   C     0.37508   0.97699   0.37785   0.00000  Uiso   1.00
C161   C     0.36539   0.87415   0.35859   0.00000  Uiso   1.00
H162   H     0.08555   0.95298   0.64488   0.00000  Uiso   1.00
H163   H     0.95209   0.08224   0.66026   0.00000  Uiso   1.00
H164   H     0.13386   0.96331   0.74865   0.00000  Uiso   1.00
H165   H     0.14817   0.79530   0.54210   0.00000  Uiso   1.00
H166   H     0.83972   0.25408   0.65156   0.00000  Uiso   1.00
H167   H     0.22300   0.00328   0.83793   0.00000  Uiso   1.00
H168   H     0.25318   0.64898   0.40238   0.00000  Uiso   1.00
H169   H     0.35989   0.17267   0.44633   0.00000  Uiso   1.00
H170   H     0.24147   0.31399   0.45081   0.00000  Uiso   1.00
H171   H     0.42324   0.19506   0.53920   0.00000  Uiso   1.00
H172   H     0.43755   0.02704   0.33265   0.00000  Uiso   1.00
H173   H     0.07459   0.44218   0.48157   0.00000  Uiso   1.00
H174   H     0.45788   0.19138   0.66794   0.00000  Uiso   1.00
H175   H     0.48805   0.83708   0.23239   0.00000  Uiso   1.00
O176   O     0.87431   0.43715   0.57312   0.00000  Uiso   1.00
O177   O     0.37717   0.10809   0.81762   0.00000  Uiso   1.00
O178   O     0.41676   0.64326   0.24619   0.00000  Uiso   1.00
N179   N     0.91125   0.27895   0.61093   0.00000  Uiso   1.00
N180   N     0.26958   0.04448   0.78518   0.00000  Uiso   1.00
N181   N     0.29781   0.71322   0.37798   0.00000  Uiso   1.00
N182   N     0.03763   0.38016   0.51945   0.00000  Uiso   1.00
N183   N     0.39597   0.14569   0.69371   0.00000  Uiso   1.00
N184   N     0.42420   0.81444   0.28651   0.00000  Uiso   1.00
