data_job_05994
_audit_creation_date              2018-12-19
_audit_creation_method            'Materials Studio'
_symmetry_space_group_name_H-M    'P1'
_symmetry_Int_Tables_number       1
_symmetry_cell_setting            triclinic
loop_
_symmetry_equiv_pos_as_xyz
  x,y,z
_cell_length_a                    12.4713
_cell_length_b                    21.9270
_cell_length_c                    22.7738
_cell_angle_alpha                 116.4600
_cell_angle_beta                  77.3902
_cell_angle_gamma                 84.2469
loop_
_atom_site_label
_atom_site_type_symbol
_atom_site_fract_x
_atom_site_fract_y
_atom_site_fract_z
_atom_site_U_iso_or_equiv
_atom_site_adp_type
_atom_site_occupancy
C1     C     0.25672   0.51059   0.21810   0.00000  Uiso   1.00
C2     C     0.21355   0.58945   0.25075   0.00000  Uiso   1.00
C3     C     0.14343   0.63278   0.31705   0.00000  Uiso   1.00
C4     C     0.11341   0.70347   0.33725   0.00000  Uiso   1.00
C5     C     0.04044   0.82191   0.39472   0.00000  Uiso   1.00
C6     C     0.22050   0.47842   0.15297   0.00000  Uiso   1.00
C7     C     0.15623   0.42839   0.13707   0.00000  Uiso   1.00
C8     C     0.13207   0.40561   0.07496   0.00000  Uiso   1.00
C9     C     0.06995   0.35163   0.98060   0.00000  Uiso   1.00
C10    C     0.38502   0.49714   0.19435   0.00000  Uiso   1.00
C11    C     0.45909   0.46283   0.21322   0.00000  Uiso   1.00
C12    C     0.57345   0.45580   0.18593   0.00000  Uiso   1.00
C13    C     0.76678   0.43089   0.15583   0.00000  Uiso   1.00
C14    C     0.32811   0.55909   0.13607   0.00000  Uiso   1.00
C15    C     0.25233   0.61579   0.20619   0.00000  Uiso   1.00
C16    C     0.22242   0.68644   0.22630   0.00000  Uiso   1.00
C17    C     0.15226   0.72987   0.29262   0.00000  Uiso   1.00
C18    C     0.25927   0.50476   0.10842   0.00000  Uiso   1.00
C19    C     0.23521   0.48205   0.04631   0.00000  Uiso   1.00
C20    C     0.17092   0.43200   0.03032   0.00000  Uiso   1.00
C21    C     0.42380   0.52348   0.14980   0.00000  Uiso   1.00
C22    C     0.53807   0.51650   0.12247   0.00000  Uiso   1.00
C23    C     0.61230   0.48219   0.14130   0.00000  Uiso   1.00
H24    H     0.22653   0.49008   0.25278   0.00000  Uiso   1.00
H25    H     0.11343   0.61237   0.35152   0.00000  Uiso   1.00
H26    H     0.12624   0.40801   0.17155   0.00000  Uiso   1.00
H27    H     0.42905   0.44245   0.24770   0.00000  Uiso   1.00
H28    H     0.00511   0.75956   0.44132   0.00000  Uiso   1.00
H29    H     0.03215   0.32864   0.06186   0.00000  Uiso   1.00
H30    H     0.67069   0.40126   0.22242   0.00000  Uiso   1.00
H31    H     0.35830   0.57960   0.10138   0.00000  Uiso   1.00
H32    H     0.25244   0.70681   0.19181   0.00000  Uiso   1.00
H33    H     0.26524   0.50245   0.01185   0.00000  Uiso   1.00
H34    H     0.56805   0.53689   0.08799   0.00000  Uiso   1.00
H35    H     0.11793   0.83622   0.31170   0.00000  Uiso   1.00
H36    H     0.14497   0.40529   0.93223   0.00000  Uiso   1.00
H37    H     0.78350   0.47792   0.09280   0.00000  Uiso   1.00
O38    O     0.98947   0.87995   0.43872   0.00000  Uiso   1.00
O39    O     0.02496   0.31459   0.94087   0.00000  Uiso   1.00
O40    O     0.86270   0.40987   0.15154   0.00000  Uiso   1.00
N41    N     0.04621   0.76015   0.39841   0.00000  Uiso   1.00
N42    N     0.07147   0.35727   0.04364   0.00000  Uiso   1.00
N43    N     0.66845   0.42515   0.19374   0.00000  Uiso   1.00
N44    N     0.10692   0.80140   0.32866   0.00000  Uiso   1.00
N45    N     0.13218   0.39851   0.97389   0.00000  Uiso   1.00
N46    N     0.72916   0.46640   0.12399   0.00000  Uiso   1.00
C47    C     0.47445   0.79422   0.28374   0.00000  Uiso   1.00
C48    C     0.45785   0.75915   0.32873   0.00000  Uiso   1.00
C49    C     0.44990   0.69018   0.30698   0.00000  Uiso   1.00
C50    C     0.43477   0.66806   0.35603   0.00000  Uiso   1.00
C51    C     0.40999   0.60672   0.41549   0.00000  Uiso   1.00
C52    C     0.37651   0.85797   0.31783   0.00000  Uiso   1.00
C53    C     0.30017   0.87211   0.28691   0.00000  Uiso   1.00
C54    C     0.21659   0.93318   0.32678   0.00000  Uiso   1.00
C55    C     0.06557   0.02530   0.36930   0.00000  Uiso   1.00
C56    C     0.58027   0.82266   0.29086   0.00000  Uiso   1.00
C57    C     0.67526   0.80711   0.23727   0.00000  Uiso   1.00
C58    C     0.76322   0.83847   0.25444   0.00000  Uiso   1.00
C59    C     0.92858   0.87575   0.25509   0.00000  Uiso   1.00
C60    C     0.46175   0.87756   0.40951   0.00000  Uiso   1.00
C61    C     0.45095   0.80441   0.39704   0.00000  Uiso   1.00
C62    C     0.43584   0.78239   0.44613   0.00000  Uiso   1.00
C63    C     0.42787   0.71340   0.42446   0.00000  Uiso   1.00
C64    C     0.36961   0.90324   0.38614   0.00000  Uiso   1.00
C65    C     0.28612   0.96431   0.42606   0.00000  Uiso   1.00
C66    C     0.20967   0.97853   0.39521   0.00000  Uiso   1.00
C67    C     0.57338   0.86792   0.35917   0.00000  Uiso   1.00
C68    C     0.66120   0.89931   0.37642   0.00000  Uiso   1.00
C69    C     0.75631   0.88382   0.32287   0.00000  Uiso   1.00
H70    H     0.47982   0.75898   0.23056   0.00000  Uiso   1.00
H71    H     0.45523   0.65517   0.25412   0.00000  Uiso   1.00
H72    H     0.30554   0.83707   0.23405   0.00000  Uiso   1.00
H73    H     0.68057   0.77208   0.18442   0.00000  Uiso   1.00
H74    H     0.42489   0.56004   0.31036   0.00000  Uiso   1.00
H75    H     0.10928   0.94360   0.26803   0.00000  Uiso   1.00
H76    H     0.90010   0.80656   0.16338   0.00000  Uiso   1.00
H77    H     0.45637   0.91280   0.46270   0.00000  Uiso   1.00
H78    H     0.43050   0.81743   0.49899   0.00000  Uiso   1.00
H79    H     0.28081   0.99933   0.47892   0.00000  Uiso   1.00
H80    H     0.65584   0.93434   0.42929   0.00000  Uiso   1.00
H81    H     0.40481   0.69174   0.50911   0.00000  Uiso   1.00
H82    H     0.08921   0.07530   0.46678   0.00000  Uiso   1.00
H83    H     0.88002   0.93826   0.36213   0.00000  Uiso   1.00
O84    O     0.39821   0.56038   0.42943   0.00000  Uiso   1.00
O85    O     0.98417   0.06360   0.37389   0.00000  Uiso   1.00
O86    O     0.02170   0.88380   0.23659   0.00000  Uiso   1.00
N87    N     0.42373   0.60412   0.35215   0.00000  Uiso   1.00
N88    N     0.12865   0.96272   0.31258   0.00000  Uiso   1.00
N89    N     0.86799   0.83462   0.21474   0.00000  Uiso   1.00
N90    N     0.41293   0.67499   0.45910   0.00000  Uiso   1.00
N91    N     0.11785   0.03359   0.41953   0.00000  Uiso   1.00
N92    N     0.85718   0.90548   0.32168   0.00000  Uiso   1.00
C93    C     0.75746   0.72841   0.50126   0.00000  Uiso   1.00
C94    C     0.78756   0.68365   0.42353   0.00000  Uiso   1.00
C95    C     0.76310   0.70589   0.37866   0.00000  Uiso   1.00
C96    C     0.79775   0.65698   0.30938   0.00000  Uiso   1.00
C97    C     0.83576   0.59791   0.19227   0.00000  Uiso   1.00
C98    C     0.68860   0.69012   0.53167   0.00000  Uiso   1.00
C99    C     0.58093   0.71782   0.57774   0.00000  Uiso   1.00
C100   C     0.53228   0.67436   0.59951   0.00000  Uiso   1.00
C101   C     0.41668   0.62536   0.65033   0.00000  Uiso   1.00
C102   C     0.86821   0.72481   0.51893   0.00000  Uiso   1.00
C103   C     0.91155   0.78168   0.55431   0.00000  Uiso   1.00
C104   C     0.01411   0.76742   0.56536   0.00000  Uiso   1.00
C105   C     0.17737   0.77229   0.59641   0.00000  Uiso   1.00
C106   C     0.86251   0.60197   0.45802   0.00000  Uiso   1.00
C107   C     0.84462   0.61497   0.40005   0.00000  Uiso   1.00
C108   C     0.87933   0.56601   0.33082   0.00000  Uiso   1.00
C109   C     0.85492   0.58818   0.28585   0.00000  Uiso   1.00
C110   C     0.74565   0.62145   0.50819   0.00000  Uiso   1.00
C111   C     0.69716   0.57793   0.52990   0.00000  Uiso   1.00
C112   C     0.58944   0.60556   0.57598   0.00000  Uiso   1.00
C113   C     0.92527   0.65614   0.49545   0.00000  Uiso   1.00
C114   C     0.02778   0.64179   0.50646   0.00000  Uiso   1.00
C115   C     0.07127   0.69863   0.54184   0.00000  Uiso   1.00
H116   H     0.71303   0.78187   0.51954   0.00000  Uiso   1.00
H117   H     0.71893   0.75904   0.39685   0.00000  Uiso   1.00
H118   H     0.53680   0.77097   0.59591   0.00000  Uiso   1.00
H119   H     0.86737   0.83481   0.57247   0.00000  Uiso   1.00
H120   H     0.75059   0.70344   0.25047   0.00000  Uiso   1.00
H121   H     0.36657   0.72859   0.67021   0.00000  Uiso   1.00
H122   H     0.06364   0.86323   0.62080   0.00000  Uiso   1.00
H123   H     0.90694   0.54851   0.43974   0.00000  Uiso   1.00
H124   H     0.92348   0.51287   0.31266   0.00000  Uiso   1.00
H125   H     0.74134   0.52480   0.51172   0.00000  Uiso   1.00
H126   H     0.07191   0.58864   0.48828   0.00000  Uiso   1.00
H127   H     0.91661   0.50364   0.18214   0.00000  Uiso   1.00
H128   H     0.53258   0.52879   0.60188   0.00000  Uiso   1.00
H129   H     0.22965   0.66343   0.55246   0.00000  Uiso   1.00
O130   O     0.84095   0.58430   0.13416   0.00000  Uiso   1.00
O131   O     0.33714   0.61730   0.68485   0.00000  Uiso   1.00
O132   O     0.25167   0.79395   0.62001   0.00000  Uiso   1.00
N133   N     0.78742   0.66131   0.25183   0.00000  Uiso   1.00
N134   N     0.42837   0.68482   0.64425   0.00000  Uiso   1.00
N135   N     0.08005   0.81070   0.59807   0.00000  Uiso   1.00
N136   N     0.87675   0.55380   0.21506   0.00000  Uiso   1.00
N137   N     0.51770   0.57731   0.60748   0.00000  Uiso   1.00
N138   N     0.16939   0.70319   0.56130   0.00000  Uiso   1.00
C139   C     0.74328   0.48941   0.78190   0.00000  Uiso   1.00
C140   C     0.78645   0.41055   0.74925   0.00000  Uiso   1.00
C141   C     0.85657   0.36722   0.68295   0.00000  Uiso   1.00
C142   C     0.88659   0.29653   0.66275   0.00000  Uiso   1.00
C143   C     0.95956   0.17809   0.60528   0.00000  Uiso   1.00
C144   C     0.77950   0.52158   0.84703   0.00000  Uiso   1.00
C145   C     0.84377   0.57161   0.86293   0.00000  Uiso   1.00
C146   C     0.86793   0.59439   0.92505   0.00000  Uiso   1.00
C147   C     0.93005   0.64837   0.01940   0.00000  Uiso   1.00
C148   C     0.61498   0.50286   0.80565   0.00000  Uiso   1.00
C149   C     0.54091   0.53717   0.78678   0.00000  Uiso   1.00
C150   C     0.42655   0.54420   0.81407   0.00000  Uiso   1.00
C151   C     0.23322   0.56911   0.84417   0.00000  Uiso   1.00
C152   C     0.67189   0.44091   0.86393   0.00000  Uiso   1.00
C153   C     0.74767   0.38421   0.79381   0.00000  Uiso   1.00
C154   C     0.77758   0.31356   0.77370   0.00000  Uiso   1.00
C155   C     0.84774   0.27013   0.70738   0.00000  Uiso   1.00
C156   C     0.74073   0.49524   0.89158   0.00000  Uiso   1.00
C157   C     0.76479   0.51795   0.95369   0.00000  Uiso   1.00
C158   C     0.82908   0.56800   0.96968   0.00000  Uiso   1.00
C159   C     0.57620   0.47652   0.85020   0.00000  Uiso   1.00
C160   C     0.46193   0.48350   0.87753   0.00000  Uiso   1.00
C161   C     0.38770   0.51781   0.85870   0.00000  Uiso   1.00
H162   H     0.77347   0.50992   0.74722   0.00000  Uiso   1.00
H163   H     0.88657   0.38763   0.64848   0.00000  Uiso   1.00
H164   H     0.87376   0.59199   0.82845   0.00000  Uiso   1.00
H165   H     0.57095   0.55755   0.75230   0.00000  Uiso   1.00
H166   H     0.99489   0.24044   0.55868   0.00000  Uiso   1.00
H167   H     0.96785   0.67136   0.93814   0.00000  Uiso   1.00
H168   H     0.32931   0.59874   0.77758   0.00000  Uiso   1.00
H169   H     0.64170   0.42040   0.89862   0.00000  Uiso   1.00
H170   H     0.74756   0.29319   0.80819   0.00000  Uiso   1.00
H171   H     0.73476   0.49755   0.98815   0.00000  Uiso   1.00
H172   H     0.43195   0.46311   0.91201   0.00000  Uiso   1.00
H173   H     0.88207   0.16378   0.68830   0.00000  Uiso   1.00
H174   H     0.85503   0.59471   0.06777   0.00000  Uiso   1.00
H175   H     0.21650   0.52208   0.90720   0.00000  Uiso   1.00
O176   O     0.01053   0.12005   0.56128   0.00000  Uiso   1.00
O177   O     0.97504   0.68541   0.05913   0.00000  Uiso   1.00
O178   O     0.13730   0.59013   0.84846   0.00000  Uiso   1.00
N179   N     0.95379   0.23985   0.60159   0.00000  Uiso   1.00
N180   N     0.92853   0.64273   0.95636   0.00000  Uiso   1.00
N181   N     0.33155   0.57485   0.80626   0.00000  Uiso   1.00
N182   N     0.89308   0.19860   0.67134   0.00000  Uiso   1.00
N183   N     0.86782   0.60149   0.02611   0.00000  Uiso   1.00
N184   N     0.27084   0.53360   0.87601   0.00000  Uiso   1.00
C185   C     0.52555   0.20578   0.71626   0.00000  Uiso   1.00
C186   C     0.54215   0.24085   0.67127   0.00000  Uiso   1.00
C187   C     0.55010   0.30982   0.69302   0.00000  Uiso   1.00
C188   C     0.56523   0.33194   0.64397   0.00000  Uiso   1.00
C189   C     0.59001   0.39328   0.58451   0.00000  Uiso   1.00
C190   C     0.62349   0.14203   0.68217   0.00000  Uiso   1.00
C191   C     0.69983   0.12789   0.71309   0.00000  Uiso   1.00
C192   C     0.78341   0.06682   0.67322   0.00000  Uiso   1.00
C193   C     0.93443   0.97470   0.63070   0.00000  Uiso   1.00
C194   C     0.41973   0.17734   0.70914   0.00000  Uiso   1.00
C195   C     0.32474   0.19289   0.76273   0.00000  Uiso   1.00
C196   C     0.23678   0.16153   0.74557   0.00000  Uiso   1.00
C197   C     0.07142   0.12425   0.74491   0.00000  Uiso   1.00
C198   C     0.53825   0.12244   0.59049   0.00000  Uiso   1.00
C199   C     0.54905   0.19559   0.60296   0.00000  Uiso   1.00
C200   C     0.56416   0.21761   0.55387   0.00000  Uiso   1.00
C201   C     0.57213   0.28660   0.57554   0.00000  Uiso   1.00
C202   C     0.63039   0.09676   0.61386   0.00000  Uiso   1.00
C203   C     0.71388   0.03569   0.57394   0.00000  Uiso   1.00
C204   C     0.79033   0.02147   0.60479   0.00000  Uiso   1.00
C205   C     0.42662   0.13208   0.64083   0.00000  Uiso   1.00
C206   C     0.33880   0.10069   0.62358   0.00000  Uiso   1.00
C207   C     0.24370   0.11618   0.67713   0.00000  Uiso   1.00
H208   H     0.52018   0.24102   0.76944   0.00000  Uiso   1.00
H209   H     0.54477   0.34483   0.74588   0.00000  Uiso   1.00
H210   H     0.69446   0.16293   0.76595   0.00000  Uiso   1.00
H211   H     0.31943   0.22792   0.81558   0.00000  Uiso   1.00
H212   H     0.57511   0.43996   0.68964   0.00000  Uiso   1.00
H213   H     0.89072   0.05640   0.73197   0.00000  Uiso   1.00
H214   H     0.09990   0.19344   0.83662   0.00000  Uiso   1.00
H215   H     0.54363   0.08720   0.53730   0.00000  Uiso   1.00
H216   H     0.56950   0.18257   0.50101   0.00000  Uiso   1.00
H217   H     0.71919   0.00067   0.52108   0.00000  Uiso   1.00
H218   H     0.34416   0.06566   0.57071   0.00000  Uiso   1.00
H219   H     0.59519   0.30826   0.49089   0.00000  Uiso   1.00
H220   H     0.91079   0.92470   0.53322   0.00000  Uiso   1.00
H221   H     0.11998   0.06174   0.63787   0.00000  Uiso   1.00
O222   O     0.60179   0.43962   0.57057   0.00000  Uiso   1.00
O223   O     0.01583   0.93640   0.62611   0.00000  Uiso   1.00
O224   O     0.97830   0.11620   0.76341   0.00000  Uiso   1.00
N225   N     0.57626   0.39588   0.64785   0.00000  Uiso   1.00
N226   N     0.87135   0.03728   0.68742   0.00000  Uiso   1.00
N227   N     0.13201   0.16538   0.78526   0.00000  Uiso   1.00
N228   N     0.58707   0.32501   0.54090   0.00000  Uiso   1.00
N229   N     0.88215   0.96641   0.58047   0.00000  Uiso   1.00
N230   N     0.14282   0.09452   0.67832   0.00000  Uiso   1.00
C231   C     0.24254   0.27159   0.49875   0.00000  Uiso   1.00
C232   C     0.21244   0.31635   0.57647   0.00000  Uiso   1.00
C233   C     0.23690   0.29411   0.62134   0.00000  Uiso   1.00
C234   C     0.20225   0.34302   0.69062   0.00000  Uiso   1.00
C235   C     0.16424   0.40209   0.80773   0.00000  Uiso   1.00
C236   C     0.31140   0.30988   0.46833   0.00000  Uiso   1.00
C237   C     0.41907   0.28218   0.42226   0.00000  Uiso   1.00
C238   C     0.46772   0.32564   0.40049   0.00000  Uiso   1.00
C239   C     0.58332   0.37464   0.34967   0.00000  Uiso   1.00
C240   C     0.13179   0.27519   0.48107   0.00000  Uiso   1.00
C241   C     0.08845   0.21832   0.44570   0.00000  Uiso   1.00
C242   C     0.98589   0.23258   0.43464   0.00000  Uiso   1.00
C243   C     0.82263   0.22771   0.40359   0.00000  Uiso   1.00
C244   C     0.13748   0.39803   0.54198   0.00000  Uiso   1.00
C245   C     0.15538   0.38503   0.59995   0.00000  Uiso   1.00
C246   C     0.12067   0.43399   0.66918   0.00000  Uiso   1.00
C247   C     0.14508   0.41182   0.71415   0.00000  Uiso   1.00
C248   C     0.25435   0.37855   0.49181   0.00000  Uiso   1.00
C249   C     0.30284   0.42207   0.47010   0.00000  Uiso   1.00
C250   C     0.41056   0.39444   0.42402   0.00000  Uiso   1.00
C251   C     0.07473   0.34386   0.50455   0.00000  Uiso   1.00
C252   C     0.97222   0.35821   0.49354   0.00000  Uiso   1.00
C253   C     0.92873   0.30137   0.45816   0.00000  Uiso   1.00
H254   H     0.28697   0.21813   0.48046   0.00000  Uiso   1.00
H255   H     0.28107   0.24096   0.60315   0.00000  Uiso   1.00
H256   H     0.46320   0.22903   0.40409   0.00000  Uiso   1.00
H257   H     0.13263   0.16519   0.42753   0.00000  Uiso   1.00
H258   H     0.24941   0.29656   0.74953   0.00000  Uiso   1.00
H259   H     0.63343   0.27141   0.32979   0.00000  Uiso   1.00
H260   H     0.93636   0.13677   0.37920   0.00000  Uiso   1.00
H261   H     0.09306   0.45149   0.56026   0.00000  Uiso   1.00
H262   H     0.07652   0.48713   0.68734   0.00000  Uiso   1.00
H263   H     0.25866   0.47520   0.48828   0.00000  Uiso   1.00
H264   H     0.92809   0.41136   0.51172   0.00000  Uiso   1.00
H265   H     0.08339   0.49636   0.81786   0.00000  Uiso   1.00
H266   H     0.46742   0.47121   0.39812   0.00000  Uiso   1.00
H267   H     0.77035   0.33657   0.44754   0.00000  Uiso   1.00
O268   O     0.15905   0.41570   0.86584   0.00000  Uiso   1.00
O269   O     0.66286   0.38270   0.31515   0.00000  Uiso   1.00
O270   O     0.74833   0.20605   0.37999   0.00000  Uiso   1.00
N271   N     0.21258   0.33869   0.74817   0.00000  Uiso   1.00
N272   N     0.57163   0.31518   0.35575   0.00000  Uiso   1.00
N273   N     0.91995   0.18930   0.40193   0.00000  Uiso   1.00
N274   N     0.12325   0.44620   0.78494   0.00000  Uiso   1.00
N275   N     0.48230   0.42269   0.39252   0.00000  Uiso   1.00
N276   N     0.83061   0.29681   0.43870   0.00000  Uiso   1.00
