data_job_05045
_audit_creation_date              2018-12-19
_audit_creation_method            'Materials Studio'
_symmetry_space_group_name_H-M    'P1'
_symmetry_Int_Tables_number       1
_symmetry_cell_setting            triclinic
loop_
_symmetry_equiv_pos_as_xyz
  x,y,z
_cell_length_a                    21.2055
_cell_length_b                    21.2055
_cell_length_c                    12.4045
_cell_angle_alpha                 90.0000
_cell_angle_beta                  90.0000
_cell_angle_gamma                 90.0000
loop_
_atom_site_label
_atom_site_type_symbol
_atom_site_fract_x
_atom_site_fract_y
_atom_site_fract_z
_atom_site_U_iso_or_equiv
_atom_site_adp_type
_atom_site_occupancy
C1     C     0.76113   0.57533   0.92233   0.00000  Uiso   1.00
C2     C     0.82727   0.60323   0.92963   0.00000  Uiso   1.00
C3     C     0.88308   0.57134   0.90858   0.00000  Uiso   1.00
C4     C     0.93872   0.60520   0.91984   0.00000  Uiso   1.00
C5     C     0.04146   0.63886   0.92648   0.00000  Uiso   1.00
C6     C     0.73105   0.58558   0.03261   0.00000  Uiso   1.00
C7     C     0.70594   0.53884   0.09813   0.00000  Uiso   1.00
C8     C     0.68058   0.55784   0.19607   0.00000  Uiso   1.00
C9     C     0.63388   0.56410   0.36255   0.00000  Uiso   1.00
C10    C     0.72479   0.61726   0.84413   0.00000  Uiso   1.00
C11    C     0.69441   0.59716   0.75118   0.00000  Uiso   1.00
C12    C     0.66377   0.64283   0.69045   0.00000  Uiso   1.00
C13    C     0.60736   0.69828   0.56429   0.00000  Uiso   1.00
C14    C     0.76072   0.69218   0.97977   0.00000  Uiso   1.00
C15    C     0.82705   0.66670   0.96084   0.00000  Uiso   1.00
C16    C     0.88262   0.70062   0.97213   0.00000  Uiso   1.00
C17    C     0.93850   0.66879   0.95109   0.00000  Uiso   1.00
C18    C     0.73082   0.64904   0.06381   0.00000  Uiso   1.00
C19    C     0.70549   0.66812   0.16168   0.00000  Uiso   1.00
C20    C     0.68036   0.62143   0.22733   0.00000  Uiso   1.00
C21    C     0.72457   0.68073   0.87533   0.00000  Uiso   1.00
C22    C     0.69396   0.72644   0.81474   0.00000  Uiso   1.00
C23    C     0.66354   0.70642   0.72171   0.00000  Uiso   1.00
H24    H     0.76130   0.52592   0.89805   0.00000  Uiso   1.00
H25    H     0.88323   0.52222   0.88444   0.00000  Uiso   1.00
H26    H     0.70611   0.48973   0.07396   0.00000  Uiso   1.00
H27    H     0.69459   0.54804   0.72707   0.00000  Uiso   1.00
H28    H     0.01831   0.54611   0.88316   0.00000  Uiso   1.00
H29    H     0.64484   0.47760   0.28274   0.00000  Uiso   1.00
H30    H     0.62054   0.60055   0.55125   0.00000  Uiso   1.00
H31    H     0.76055   0.74159   0.00407   0.00000  Uiso   1.00
H32    H     0.88244   0.74974   0.99628   0.00000  Uiso   1.00
H33    H     0.70532   0.71724   0.18579   0.00000  Uiso   1.00
H34    H     0.69380   0.77555   0.83890   0.00000  Uiso   1.00
H35    H     0.01767   0.73076   0.97393   0.00000  Uiso   1.00
H36    H     0.64419   0.66225   0.37351   0.00000  Uiso   1.00
H37    H     0.61989   0.78521   0.64203   0.00000  Uiso   1.00
O38    O     0.09819   0.63989   0.92154   0.00000  Uiso   1.00
O39    O     0.60819   0.55001   0.44577   0.00000  Uiso   1.00
O40    O     0.57632   0.71133   0.48608   0.00000  Uiso   1.00
N41    N     0.00143   0.58845   0.90557   0.00000  Uiso   1.00
N42    N     0.65227   0.52440   0.27916   0.00000  Uiso   1.00
N43    N     0.62953   0.63935   0.59530   0.00000  Uiso   1.00
N44    N     0.00109   0.68782   0.95441   0.00000  Uiso   1.00
N45    N     0.65192   0.62376   0.32801   0.00000  Uiso   1.00
N46    N     0.62919   0.73871   0.64414   0.00000  Uiso   1.00
C47    C     0.23887   0.42467   0.92233   0.00000  Uiso   1.00
C48    C     0.17273   0.39677   0.92963   0.00000  Uiso   1.00
C49    C     0.11692   0.42866   0.90858   0.00000  Uiso   1.00
C50    C     0.06128   0.39480   0.91984   0.00000  Uiso   1.00
C51    C     0.95854   0.36114   0.92648   0.00000  Uiso   1.00
C52    C     0.26895   0.41442   0.03261   0.00000  Uiso   1.00
C53    C     0.29406   0.46116   0.09813   0.00000  Uiso   1.00
C54    C     0.31942   0.44216   0.19607   0.00000  Uiso   1.00
C55    C     0.36612   0.43590   0.36255   0.00000  Uiso   1.00
C56    C     0.27521   0.38274   0.84413   0.00000  Uiso   1.00
C57    C     0.30559   0.40284   0.75118   0.00000  Uiso   1.00
C58    C     0.33623   0.35717   0.69045   0.00000  Uiso   1.00
C59    C     0.39264   0.30172   0.56429   0.00000  Uiso   1.00
C60    C     0.23928   0.30782   0.97977   0.00000  Uiso   1.00
C61    C     0.17295   0.33330   0.96084   0.00000  Uiso   1.00
C62    C     0.11738   0.29938   0.97213   0.00000  Uiso   1.00
C63    C     0.06150   0.33121   0.95109   0.00000  Uiso   1.00
C64    C     0.26918   0.35096   0.06381   0.00000  Uiso   1.00
C65    C     0.29451   0.33188   0.16168   0.00000  Uiso   1.00
C66    C     0.31964   0.37857   0.22733   0.00000  Uiso   1.00
C67    C     0.27543   0.31927   0.87533   0.00000  Uiso   1.00
C68    C     0.30604   0.27356   0.81474   0.00000  Uiso   1.00
C69    C     0.33646   0.29358   0.72171   0.00000  Uiso   1.00
H70    H     0.23870   0.47408   0.89805   0.00000  Uiso   1.00
H71    H     0.11677   0.47778   0.88444   0.00000  Uiso   1.00
H72    H     0.29389   0.51027   0.07396   0.00000  Uiso   1.00
H73    H     0.30541   0.45196   0.72707   0.00000  Uiso   1.00
H74    H     0.98169   0.45389   0.88316   0.00000  Uiso   1.00
H75    H     0.35516   0.52240   0.28274   0.00000  Uiso   1.00
H76    H     0.37946   0.39945   0.55125   0.00000  Uiso   1.00
H77    H     0.23945   0.25841   0.00407   0.00000  Uiso   1.00
H78    H     0.11756   0.25026   0.99628   0.00000  Uiso   1.00
H79    H     0.29468   0.28276   0.18579   0.00000  Uiso   1.00
H80    H     0.30620   0.22445   0.83890   0.00000  Uiso   1.00
H81    H     0.98233   0.26924   0.97393   0.00000  Uiso   1.00
H82    H     0.35581   0.33775   0.37351   0.00000  Uiso   1.00
H83    H     0.38011   0.21479   0.64203   0.00000  Uiso   1.00
O84    O     0.90181   0.36011   0.92154   0.00000  Uiso   1.00
O85    O     0.39181   0.44999   0.44577   0.00000  Uiso   1.00
O86    O     0.42368   0.28867   0.48608   0.00000  Uiso   1.00
N87    N     0.99857   0.41155   0.90557   0.00000  Uiso   1.00
N88    N     0.34773   0.47560   0.27916   0.00000  Uiso   1.00
N89    N     0.37047   0.36065   0.59530   0.00000  Uiso   1.00
N90    N     0.99891   0.31218   0.95441   0.00000  Uiso   1.00
N91    N     0.34808   0.37624   0.32801   0.00000  Uiso   1.00
N92    N     0.37081   0.26129   0.64414   0.00000  Uiso   1.00
C93    C     0.57533   0.23887   0.07767   0.00000  Uiso   1.00
C94    C     0.60323   0.17273   0.07037   0.00000  Uiso   1.00
C95    C     0.57134   0.11692   0.09142   0.00000  Uiso   1.00
C96    C     0.60520   0.06128   0.08016   0.00000  Uiso   1.00
C97    C     0.63886   0.95854   0.07352   0.00000  Uiso   1.00
C98    C     0.58558   0.26895   0.96739   0.00000  Uiso   1.00
C99    C     0.53884   0.29406   0.90187   0.00000  Uiso   1.00
C100   C     0.55784   0.31942   0.80393   0.00000  Uiso   1.00
C101   C     0.56410   0.36612   0.63745   0.00000  Uiso   1.00
C102   C     0.61726   0.27521   0.15587   0.00000  Uiso   1.00
C103   C     0.59716   0.30559   0.24882   0.00000  Uiso   1.00
C104   C     0.64283   0.33623   0.30955   0.00000  Uiso   1.00
C105   C     0.69828   0.39264   0.43571   0.00000  Uiso   1.00
C106   C     0.69218   0.23928   0.02023   0.00000  Uiso   1.00
C107   C     0.66670   0.17295   0.03916   0.00000  Uiso   1.00
C108   C     0.70062   0.11738   0.02787   0.00000  Uiso   1.00
C109   C     0.66879   0.06150   0.04891   0.00000  Uiso   1.00
C110   C     0.64904   0.26918   0.93619   0.00000  Uiso   1.00
C111   C     0.66812   0.29451   0.83832   0.00000  Uiso   1.00
C112   C     0.62143   0.31964   0.77267   0.00000  Uiso   1.00
C113   C     0.68073   0.27543   0.12467   0.00000  Uiso   1.00
C114   C     0.72644   0.30604   0.18526   0.00000  Uiso   1.00
C115   C     0.70642   0.33646   0.27829   0.00000  Uiso   1.00
H116   H     0.52592   0.23870   0.10195   0.00000  Uiso   1.00
H117   H     0.52222   0.11677   0.11556   0.00000  Uiso   1.00
H118   H     0.48973   0.29389   0.92604   0.00000  Uiso   1.00
H119   H     0.54804   0.30541   0.27293   0.00000  Uiso   1.00
H120   H     0.54611   0.98169   0.11684   0.00000  Uiso   1.00
H121   H     0.47760   0.35516   0.71726   0.00000  Uiso   1.00
H122   H     0.60055   0.37946   0.44875   0.00000  Uiso   1.00
H123   H     0.74159   0.23945   0.99593   0.00000  Uiso   1.00
H124   H     0.74974   0.11756   0.00372   0.00000  Uiso   1.00
H125   H     0.71724   0.29468   0.81421   0.00000  Uiso   1.00
H126   H     0.77555   0.30620   0.16110   0.00000  Uiso   1.00
H127   H     0.73076   0.98233   0.02607   0.00000  Uiso   1.00
H128   H     0.66225   0.35581   0.62649   0.00000  Uiso   1.00
H129   H     0.78521   0.38011   0.35797   0.00000  Uiso   1.00
O130   O     0.63989   0.90181   0.07846   0.00000  Uiso   1.00
O131   O     0.55001   0.39181   0.55423   0.00000  Uiso   1.00
O132   O     0.71133   0.42368   0.51392   0.00000  Uiso   1.00
N133   N     0.58845   0.99857   0.09443   0.00000  Uiso   1.00
N134   N     0.52440   0.34773   0.72084   0.00000  Uiso   1.00
N135   N     0.63935   0.37047   0.40470   0.00000  Uiso   1.00
N136   N     0.68782   0.99891   0.04559   0.00000  Uiso   1.00
N137   N     0.62376   0.34808   0.67199   0.00000  Uiso   1.00
N138   N     0.73871   0.37081   0.35586   0.00000  Uiso   1.00
C139   C     0.42467   0.76113   0.07767   0.00000  Uiso   1.00
C140   C     0.39677   0.82727   0.07037   0.00000  Uiso   1.00
C141   C     0.42866   0.88308   0.09142   0.00000  Uiso   1.00
C142   C     0.39480   0.93872   0.08016   0.00000  Uiso   1.00
C143   C     0.36114   0.04146   0.07352   0.00000  Uiso   1.00
C144   C     0.41442   0.73105   0.96739   0.00000  Uiso   1.00
C145   C     0.46116   0.70594   0.90187   0.00000  Uiso   1.00
C146   C     0.44216   0.68058   0.80393   0.00000  Uiso   1.00
C147   C     0.43590   0.63388   0.63745   0.00000  Uiso   1.00
C148   C     0.38274   0.72479   0.15587   0.00000  Uiso   1.00
C149   C     0.40284   0.69441   0.24882   0.00000  Uiso   1.00
C150   C     0.35717   0.66377   0.30955   0.00000  Uiso   1.00
C151   C     0.30172   0.60736   0.43571   0.00000  Uiso   1.00
C152   C     0.30782   0.76072   0.02023   0.00000  Uiso   1.00
C153   C     0.33330   0.82705   0.03916   0.00000  Uiso   1.00
C154   C     0.29938   0.88262   0.02787   0.00000  Uiso   1.00
C155   C     0.33121   0.93850   0.04891   0.00000  Uiso   1.00
C156   C     0.35096   0.73082   0.93619   0.00000  Uiso   1.00
C157   C     0.33188   0.70549   0.83832   0.00000  Uiso   1.00
C158   C     0.37857   0.68036   0.77267   0.00000  Uiso   1.00
C159   C     0.31927   0.72457   0.12467   0.00000  Uiso   1.00
C160   C     0.27356   0.69396   0.18526   0.00000  Uiso   1.00
C161   C     0.29358   0.66354   0.27829   0.00000  Uiso   1.00
H162   H     0.47408   0.76130   0.10195   0.00000  Uiso   1.00
H163   H     0.47778   0.88323   0.11556   0.00000  Uiso   1.00
H164   H     0.51027   0.70611   0.92604   0.00000  Uiso   1.00
H165   H     0.45196   0.69459   0.27293   0.00000  Uiso   1.00
H166   H     0.45389   0.01831   0.11684   0.00000  Uiso   1.00
H167   H     0.52240   0.64484   0.71726   0.00000  Uiso   1.00
H168   H     0.39945   0.62054   0.44875   0.00000  Uiso   1.00
H169   H     0.25841   0.76055   0.99593   0.00000  Uiso   1.00
H170   H     0.25026   0.88244   0.00372   0.00000  Uiso   1.00
H171   H     0.28276   0.70532   0.81421   0.00000  Uiso   1.00
H172   H     0.22445   0.69380   0.16110   0.00000  Uiso   1.00
H173   H     0.26924   0.01767   0.02607   0.00000  Uiso   1.00
H174   H     0.33775   0.64419   0.62649   0.00000  Uiso   1.00
H175   H     0.21479   0.61989   0.35797   0.00000  Uiso   1.00
O176   O     0.36011   0.09819   0.07846   0.00000  Uiso   1.00
O177   O     0.44999   0.60819   0.55423   0.00000  Uiso   1.00
O178   O     0.28867   0.57632   0.51392   0.00000  Uiso   1.00
N179   N     0.41155   0.00143   0.09443   0.00000  Uiso   1.00
N180   N     0.47560   0.65227   0.72084   0.00000  Uiso   1.00
N181   N     0.36065   0.62953   0.40470   0.00000  Uiso   1.00
N182   N     0.31218   0.00109   0.04559   0.00000  Uiso   1.00
N183   N     0.37624   0.65192   0.67199   0.00000  Uiso   1.00
N184   N     0.26129   0.62919   0.35586   0.00000  Uiso   1.00
C185   C     0.73887   0.07533   0.57767   0.00000  Uiso   1.00
C186   C     0.67273   0.10323   0.57037   0.00000  Uiso   1.00
C187   C     0.61692   0.07134   0.59142   0.00000  Uiso   1.00
C188   C     0.56128   0.10520   0.58016   0.00000  Uiso   1.00
C189   C     0.45854   0.13886   0.57352   0.00000  Uiso   1.00
C190   C     0.76895   0.08558   0.46739   0.00000  Uiso   1.00
C191   C     0.79406   0.03884   0.40187   0.00000  Uiso   1.00
C192   C     0.81942   0.05784   0.30393   0.00000  Uiso   1.00
C193   C     0.86612   0.06410   0.13745   0.00000  Uiso   1.00
C194   C     0.77521   0.11726   0.65587   0.00000  Uiso   1.00
C195   C     0.80559   0.09716   0.74882   0.00000  Uiso   1.00
C196   C     0.83623   0.14283   0.80955   0.00000  Uiso   1.00
C197   C     0.89264   0.19828   0.93571   0.00000  Uiso   1.00
C198   C     0.73928   0.19218   0.52023   0.00000  Uiso   1.00
C199   C     0.67295   0.16670   0.53916   0.00000  Uiso   1.00
C200   C     0.61738   0.20062   0.52787   0.00000  Uiso   1.00
C201   C     0.56150   0.16879   0.54891   0.00000  Uiso   1.00
C202   C     0.76918   0.14904   0.43619   0.00000  Uiso   1.00
C203   C     0.79451   0.16812   0.33832   0.00000  Uiso   1.00
C204   C     0.81964   0.12143   0.27267   0.00000  Uiso   1.00
C205   C     0.77543   0.18073   0.62467   0.00000  Uiso   1.00
C206   C     0.80604   0.22644   0.68526   0.00000  Uiso   1.00
C207   C     0.83646   0.20642   0.77829   0.00000  Uiso   1.00
H208   H     0.73870   0.02592   0.60195   0.00000  Uiso   1.00
H209   H     0.61677   0.02222   0.61556   0.00000  Uiso   1.00
H210   H     0.79389   0.98973   0.42604   0.00000  Uiso   1.00
H211   H     0.80541   0.04804   0.77293   0.00000  Uiso   1.00
H212   H     0.48169   0.04611   0.61684   0.00000  Uiso   1.00
H213   H     0.85516   0.97760   0.21726   0.00000  Uiso   1.00
H214   H     0.87946   0.10055   0.94875   0.00000  Uiso   1.00
H215   H     0.73945   0.24159   0.49593   0.00000  Uiso   1.00
H216   H     0.61756   0.24974   0.50372   0.00000  Uiso   1.00
H217   H     0.79468   0.21724   0.31421   0.00000  Uiso   1.00
H218   H     0.80620   0.27555   0.66110   0.00000  Uiso   1.00
H219   H     0.48233   0.23076   0.52607   0.00000  Uiso   1.00
H220   H     0.85581   0.16225   0.12649   0.00000  Uiso   1.00
H221   H     0.88011   0.28521   0.85797   0.00000  Uiso   1.00
O222   O     0.40181   0.13989   0.57846   0.00000  Uiso   1.00
O223   O     0.89181   0.05001   0.05423   0.00000  Uiso   1.00
O224   O     0.92368   0.21133   0.01392   0.00000  Uiso   1.00
N225   N     0.49857   0.08845   0.59443   0.00000  Uiso   1.00
N226   N     0.84773   0.02440   0.22084   0.00000  Uiso   1.00
N227   N     0.87047   0.13935   0.90470   0.00000  Uiso   1.00
N228   N     0.49891   0.18782   0.54559   0.00000  Uiso   1.00
N229   N     0.84808   0.12376   0.17199   0.00000  Uiso   1.00
N230   N     0.87081   0.23871   0.85586   0.00000  Uiso   1.00
C231   C     0.26113   0.92467   0.57767   0.00000  Uiso   1.00
C232   C     0.32727   0.89677   0.57037   0.00000  Uiso   1.00
C233   C     0.38308   0.92866   0.59142   0.00000  Uiso   1.00
C234   C     0.43872   0.89480   0.58016   0.00000  Uiso   1.00
C235   C     0.54146   0.86114   0.57352   0.00000  Uiso   1.00
C236   C     0.23105   0.91442   0.46739   0.00000  Uiso   1.00
C237   C     0.20594   0.96116   0.40187   0.00000  Uiso   1.00
C238   C     0.18058   0.94216   0.30393   0.00000  Uiso   1.00
C239   C     0.13388   0.93590   0.13745   0.00000  Uiso   1.00
C240   C     0.22479   0.88274   0.65587   0.00000  Uiso   1.00
C241   C     0.19441   0.90284   0.74882   0.00000  Uiso   1.00
C242   C     0.16377   0.85717   0.80955   0.00000  Uiso   1.00
C243   C     0.10736   0.80172   0.93571   0.00000  Uiso   1.00
C244   C     0.26072   0.80782   0.52023   0.00000  Uiso   1.00
C245   C     0.32705   0.83330   0.53916   0.00000  Uiso   1.00
C246   C     0.38262   0.79938   0.52787   0.00000  Uiso   1.00
C247   C     0.43850   0.83121   0.54891   0.00000  Uiso   1.00
C248   C     0.23082   0.85096   0.43619   0.00000  Uiso   1.00
C249   C     0.20549   0.83188   0.33832   0.00000  Uiso   1.00
C250   C     0.18036   0.87857   0.27267   0.00000  Uiso   1.00
C251   C     0.22457   0.81927   0.62467   0.00000  Uiso   1.00
C252   C     0.19396   0.77356   0.68526   0.00000  Uiso   1.00
C253   C     0.16354   0.79358   0.77829   0.00000  Uiso   1.00
H254   H     0.26130   0.97408   0.60195   0.00000  Uiso   1.00
H255   H     0.38323   0.97778   0.61556   0.00000  Uiso   1.00
H256   H     0.20611   0.01027   0.42604   0.00000  Uiso   1.00
H257   H     0.19459   0.95196   0.77293   0.00000  Uiso   1.00
H258   H     0.51831   0.95389   0.61684   0.00000  Uiso   1.00
H259   H     0.14484   0.02240   0.21726   0.00000  Uiso   1.00
H260   H     0.12054   0.89945   0.94875   0.00000  Uiso   1.00
H261   H     0.26055   0.75841   0.49593   0.00000  Uiso   1.00
H262   H     0.38244   0.75026   0.50372   0.00000  Uiso   1.00
H263   H     0.20532   0.78276   0.31421   0.00000  Uiso   1.00
H264   H     0.19380   0.72445   0.66110   0.00000  Uiso   1.00
H265   H     0.51767   0.76924   0.52607   0.00000  Uiso   1.00
H266   H     0.14419   0.83775   0.12649   0.00000  Uiso   1.00
H267   H     0.11989   0.71479   0.85797   0.00000  Uiso   1.00
O268   O     0.59819   0.86011   0.57846   0.00000  Uiso   1.00
O269   O     0.10819   0.94999   0.05423   0.00000  Uiso   1.00
O270   O     0.07632   0.78867   0.01392   0.00000  Uiso   1.00
N271   N     0.50143   0.91155   0.59443   0.00000  Uiso   1.00
N272   N     0.15227   0.97560   0.22084   0.00000  Uiso   1.00
N273   N     0.12953   0.86065   0.90470   0.00000  Uiso   1.00
N274   N     0.50109   0.81218   0.54559   0.00000  Uiso   1.00
N275   N     0.15192   0.87624   0.17199   0.00000  Uiso   1.00
N276   N     0.12919   0.76129   0.85586   0.00000  Uiso   1.00
C277   C     0.92467   0.73887   0.42233   0.00000  Uiso   1.00
C278   C     0.89677   0.67273   0.42963   0.00000  Uiso   1.00
C279   C     0.92866   0.61692   0.40858   0.00000  Uiso   1.00
C280   C     0.89480   0.56128   0.41984   0.00000  Uiso   1.00
C281   C     0.86114   0.45854   0.42648   0.00000  Uiso   1.00
C282   C     0.91442   0.76895   0.53261   0.00000  Uiso   1.00
C283   C     0.96116   0.79406   0.59813   0.00000  Uiso   1.00
C284   C     0.94216   0.81942   0.69607   0.00000  Uiso   1.00
C285   C     0.93590   0.86612   0.86255   0.00000  Uiso   1.00
C286   C     0.88274   0.77521   0.34413   0.00000  Uiso   1.00
C287   C     0.90284   0.80559   0.25118   0.00000  Uiso   1.00
C288   C     0.85717   0.83623   0.19045   0.00000  Uiso   1.00
C289   C     0.80172   0.89264   0.06429   0.00000  Uiso   1.00
C290   C     0.80782   0.73928   0.47977   0.00000  Uiso   1.00
C291   C     0.83330   0.67295   0.46084   0.00000  Uiso   1.00
C292   C     0.79938   0.61738   0.47213   0.00000  Uiso   1.00
C293   C     0.83121   0.56150   0.45109   0.00000  Uiso   1.00
C294   C     0.85096   0.76918   0.56381   0.00000  Uiso   1.00
C295   C     0.83188   0.79451   0.66168   0.00000  Uiso   1.00
C296   C     0.87857   0.81964   0.72733   0.00000  Uiso   1.00
C297   C     0.81927   0.77543   0.37533   0.00000  Uiso   1.00
C298   C     0.77356   0.80604   0.31474   0.00000  Uiso   1.00
C299   C     0.79358   0.83646   0.22171   0.00000  Uiso   1.00
H300   H     0.97408   0.73870   0.39805   0.00000  Uiso   1.00
H301   H     0.97778   0.61677   0.38444   0.00000  Uiso   1.00
H302   H     0.01027   0.79389   0.57396   0.00000  Uiso   1.00
H303   H     0.95196   0.80541   0.22707   0.00000  Uiso   1.00
H304   H     0.95389   0.48169   0.38316   0.00000  Uiso   1.00
H305   H     0.02240   0.85516   0.78274   0.00000  Uiso   1.00
H306   H     0.89945   0.87946   0.05125   0.00000  Uiso   1.00
H307   H     0.75841   0.73945   0.50407   0.00000  Uiso   1.00
H308   H     0.75026   0.61756   0.49628   0.00000  Uiso   1.00
H309   H     0.78276   0.79468   0.68579   0.00000  Uiso   1.00
H310   H     0.72445   0.80620   0.33890   0.00000  Uiso   1.00
H311   H     0.76924   0.48233   0.47393   0.00000  Uiso   1.00
H312   H     0.83775   0.85581   0.87351   0.00000  Uiso   1.00
H313   H     0.71479   0.88011   0.14203   0.00000  Uiso   1.00
O314   O     0.86011   0.40181   0.42154   0.00000  Uiso   1.00
O315   O     0.94999   0.89181   0.94577   0.00000  Uiso   1.00
O316   O     0.78867   0.92368   0.98608   0.00000  Uiso   1.00
N317   N     0.91155   0.49857   0.40557   0.00000  Uiso   1.00
N318   N     0.97560   0.84773   0.77916   0.00000  Uiso   1.00
N319   N     0.86065   0.87047   0.09530   0.00000  Uiso   1.00
N320   N     0.81218   0.49891   0.45441   0.00000  Uiso   1.00
N321   N     0.87624   0.84808   0.82801   0.00000  Uiso   1.00
N322   N     0.76129   0.87081   0.14414   0.00000  Uiso   1.00
C323   C     0.07533   0.26113   0.42233   0.00000  Uiso   1.00
C324   C     0.10323   0.32727   0.42963   0.00000  Uiso   1.00
C325   C     0.07134   0.38308   0.40858   0.00000  Uiso   1.00
C326   C     0.10520   0.43872   0.41984   0.00000  Uiso   1.00
C327   C     0.13886   0.54146   0.42648   0.00000  Uiso   1.00
C328   C     0.08558   0.23105   0.53261   0.00000  Uiso   1.00
C329   C     0.03884   0.20594   0.59813   0.00000  Uiso   1.00
C330   C     0.05784   0.18058   0.69607   0.00000  Uiso   1.00
C331   C     0.06410   0.13388   0.86255   0.00000  Uiso   1.00
C332   C     0.11726   0.22479   0.34413   0.00000  Uiso   1.00
C333   C     0.09716   0.19441   0.25118   0.00000  Uiso   1.00
C334   C     0.14283   0.16377   0.19045   0.00000  Uiso   1.00
C335   C     0.19828   0.10736   0.06429   0.00000  Uiso   1.00
C336   C     0.19218   0.26072   0.47977   0.00000  Uiso   1.00
C337   C     0.16670   0.32705   0.46084   0.00000  Uiso   1.00
C338   C     0.20062   0.38262   0.47213   0.00000  Uiso   1.00
C339   C     0.16879   0.43850   0.45109   0.00000  Uiso   1.00
C340   C     0.14904   0.23082   0.56381   0.00000  Uiso   1.00
C341   C     0.16812   0.20549   0.66168   0.00000  Uiso   1.00
C342   C     0.12143   0.18036   0.72733   0.00000  Uiso   1.00
C343   C     0.18073   0.22457   0.37533   0.00000  Uiso   1.00
C344   C     0.22644   0.19396   0.31474   0.00000  Uiso   1.00
C345   C     0.20642   0.16354   0.22171   0.00000  Uiso   1.00
H346   H     0.02592   0.26130   0.39805   0.00000  Uiso   1.00
H347   H     0.02222   0.38323   0.38444   0.00000  Uiso   1.00
H348   H     0.98973   0.20611   0.57396   0.00000  Uiso   1.00
H349   H     0.04804   0.19459   0.22707   0.00000  Uiso   1.00
H350   H     0.04611   0.51831   0.38316   0.00000  Uiso   1.00
H351   H     0.97760   0.14484   0.78274   0.00000  Uiso   1.00
H352   H     0.10055   0.12054   0.05125   0.00000  Uiso   1.00
H353   H     0.24159   0.26055   0.50407   0.00000  Uiso   1.00
H354   H     0.24974   0.38244   0.49628   0.00000  Uiso   1.00
H355   H     0.21724   0.20532   0.68579   0.00000  Uiso   1.00
H356   H     0.27555   0.19380   0.33890   0.00000  Uiso   1.00
H357   H     0.23076   0.51767   0.47393   0.00000  Uiso   1.00
H358   H     0.16225   0.14419   0.87351   0.00000  Uiso   1.00
H359   H     0.28521   0.11989   0.14203   0.00000  Uiso   1.00
O360   O     0.13989   0.59819   0.42154   0.00000  Uiso   1.00
O361   O     0.05001   0.10819   0.94577   0.00000  Uiso   1.00
O362   O     0.21133   0.07632   0.98608   0.00000  Uiso   1.00
N363   N     0.08845   0.50143   0.40557   0.00000  Uiso   1.00
N364   N     0.02440   0.15227   0.77916   0.00000  Uiso   1.00
N365   N     0.13935   0.12953   0.09530   0.00000  Uiso   1.00
N366   N     0.18782   0.50109   0.45441   0.00000  Uiso   1.00
N367   N     0.12376   0.15192   0.82801   0.00000  Uiso   1.00
N368   N     0.23871   0.12919   0.14414   0.00000  Uiso   1.00
