data_job_01988
_audit_creation_date              2018-12-19
_audit_creation_method            'Materials Studio'
_symmetry_space_group_name_H-M    'P1'
_symmetry_Int_Tables_number       1
_symmetry_cell_setting            triclinic
loop_
_symmetry_equiv_pos_as_xyz
  x,y,z
_cell_length_a                    14.7965
_cell_length_b                    15.1365
_cell_length_c                    24.3358
_cell_angle_alpha                 90.0000
_cell_angle_beta                  138.2219
_cell_angle_gamma                 90.0000
loop_
_atom_site_label
_atom_site_type_symbol
_atom_site_fract_x
_atom_site_fract_y
_atom_site_fract_z
_atom_site_U_iso_or_equiv
_atom_site_adp_type
_atom_site_occupancy
C1     C     0.15185   0.93322   0.38274   0.00000  Uiso   1.00
C2     C     0.02758   0.91660   0.36225   0.00000  Uiso   1.00
C3     C     0.89518   0.93981   0.28929   0.00000  Uiso   1.00
C4     C     0.79579   0.91886   0.28249   0.00000  Uiso   1.00
C5     C     0.59797   0.89958   0.24096   0.00000  Uiso   1.00
C6     C     0.25051   0.98606   0.46282   0.00000  Uiso   1.00
C7     C     0.30556   0.06767   0.47441   0.00000  Uiso   1.00
C8     C     0.39385   0.10519   0.55228   0.00000  Uiso   1.00
C9     C     0.54221   0.19372   0.66690   0.00000  Uiso   1.00
C10    C     0.21785   0.84323   0.40381   0.00000  Uiso   1.00
C11    C     0.24548   0.80474   0.36580   0.00000  Uiso   1.00
C12    C     0.30630   0.72201   0.39400   0.00000  Uiso   1.00
C13    C     0.40395   0.58877   0.41699   0.00000  Uiso   1.00
C14    C     0.21077   0.85475   0.50042   0.00000  Uiso   1.00
C15    C     0.05959   0.87398   0.42617   0.00000  Uiso   1.00
C16    C     0.96037   0.85299   0.41948   0.00000  Uiso   1.00
C17    C     0.82785   0.87616   0.34651   0.00000  Uiso   1.00
C18    C     0.28251   0.94345   0.52673   0.00000  Uiso   1.00
C19    C     0.37075   0.98085   0.60460   0.00000  Uiso   1.00
C20    C     0.42592   0.06249   0.61631   0.00000  Uiso   1.00
C21    C     0.24985   0.80060   0.46772   0.00000  Uiso   1.00
C22    C     0.31066   0.71792   0.49599   0.00000  Uiso   1.00
C23    C     0.33837   0.67931   0.45803   0.00000  Uiso   1.00
H24    H     0.12694   0.96641   0.33299   0.00000  Uiso   1.00
H25    H     0.87046   0.97280   0.23984   0.00000  Uiso   1.00
H26    H     0.28079   0.10063   0.42494   0.00000  Uiso   1.00
H27    H     0.22070   0.83774   0.31634   0.00000  Uiso   1.00
H28    H     0.60022   0.96112   0.16477   0.00000  Uiso   1.00
H29    H     0.46545   0.23065   0.55507   0.00000  Uiso   1.00
H30    H     0.33876   0.67630   0.32607   0.00000  Uiso   1.00
H31    H     0.23569   0.82157   0.55018   0.00000  Uiso   1.00
H32    H     0.98517   0.82001   0.46895   0.00000  Uiso   1.00
H33    H     0.39550   0.94785   0.65405   0.00000  Uiso   1.00
H34    H     0.33541   0.68496   0.54545   0.00000  Uiso   1.00
H35    H     0.69332   0.83711   0.35072   0.00000  Uiso   1.00
H36    H     0.55856   0.10664   0.74102   0.00000  Uiso   1.00
H37    H     0.43186   0.55229   0.51202   0.00000  Uiso   1.00
O38    O     0.48002   0.90073   0.20040   0.00000  Uiso   1.00
O39    O     0.61518   0.25433   0.71246   0.00000  Uiso   1.00
O40    O     0.44895   0.52704   0.41202   0.00000  Uiso   1.00
N41    N     0.65651   0.93213   0.21968   0.00000  Uiso   1.00
N42    N     0.46543   0.18413   0.58458   0.00000  Uiso   1.00
N43    N     0.34702   0.66587   0.37050   0.00000  Uiso   1.00
N44    N     0.70661   0.86540   0.31973   0.00000  Uiso   1.00
N45    N     0.51553   0.11741   0.68464   0.00000  Uiso   1.00
N46    N     0.39711   0.59915   0.47056   0.00000  Uiso   1.00
C47    C     0.84815   0.43322   0.11726   0.00000  Uiso   1.00
C48    C     0.97242   0.41660   0.13775   0.00000  Uiso   1.00
C49    C     0.10482   0.43981   0.21071   0.00000  Uiso   1.00
C50    C     0.20421   0.41886   0.21751   0.00000  Uiso   1.00
C51    C     0.40203   0.39958   0.25904   0.00000  Uiso   1.00
C52    C     0.74949   0.48606   0.03718   0.00000  Uiso   1.00
C53    C     0.69444   0.56767   0.02559   0.00000  Uiso   1.00
C54    C     0.60615   0.60519   0.94772   0.00000  Uiso   1.00
C55    C     0.45779   0.69372   0.83310   0.00000  Uiso   1.00
C56    C     0.78215   0.34323   0.09619   0.00000  Uiso   1.00
C57    C     0.75452   0.30474   0.13420   0.00000  Uiso   1.00
C58    C     0.69370   0.22201   0.10600   0.00000  Uiso   1.00
C59    C     0.59605   0.08877   0.08301   0.00000  Uiso   1.00
C60    C     0.78923   0.35475   0.99958   0.00000  Uiso   1.00
C61    C     0.94041   0.37398   0.07383   0.00000  Uiso   1.00
C62    C     0.03963   0.35299   0.08052   0.00000  Uiso   1.00
C63    C     0.17215   0.37616   0.15349   0.00000  Uiso   1.00
C64    C     0.71749   0.44345   0.97327   0.00000  Uiso   1.00
C65    C     0.62925   0.48085   0.89540   0.00000  Uiso   1.00
C66    C     0.57408   0.56249   0.88369   0.00000  Uiso   1.00
C67    C     0.75015   0.30060   0.03228   0.00000  Uiso   1.00
C68    C     0.68934   0.21792   0.00401   0.00000  Uiso   1.00
C69    C     0.66163   0.17931   0.04197   0.00000  Uiso   1.00
H70    H     0.87306   0.46641   0.16701   0.00000  Uiso   1.00
H71    H     0.12954   0.47280   0.26016   0.00000  Uiso   1.00
H72    H     0.71921   0.60063   0.07506   0.00000  Uiso   1.00
H73    H     0.77930   0.33774   0.18366   0.00000  Uiso   1.00
H74    H     0.39978   0.46112   0.33523   0.00000  Uiso   1.00
H75    H     0.53455   0.73065   0.94493   0.00000  Uiso   1.00
H76    H     0.66124   0.17630   0.17393   0.00000  Uiso   1.00
H77    H     0.76431   0.32157   0.94982   0.00000  Uiso   1.00
H78    H     0.01483   0.32001   0.03105   0.00000  Uiso   1.00
H79    H     0.60450   0.44785   0.84595   0.00000  Uiso   1.00
H80    H     0.66459   0.18496   0.95455   0.00000  Uiso   1.00
H81    H     0.30668   0.33711   0.14928   0.00000  Uiso   1.00
H82    H     0.44144   0.60664   0.75898   0.00000  Uiso   1.00
H83    H     0.56814   0.05229   0.98798   0.00000  Uiso   1.00
O84    O     0.51998   0.40073   0.29960   0.00000  Uiso   1.00
O85    O     0.38482   0.75433   0.78754   0.00000  Uiso   1.00
O86    O     0.55105   0.02704   0.08798   0.00000  Uiso   1.00
N87    N     0.34349   0.43213   0.28032   0.00000  Uiso   1.00
N88    N     0.53457   0.68413   0.91542   0.00000  Uiso   1.00
N89    N     0.65298   0.16587   0.12950   0.00000  Uiso   1.00
N90    N     0.29339   0.36540   0.18027   0.00000  Uiso   1.00
N91    N     0.48447   0.61741   0.81536   0.00000  Uiso   1.00
N92    N     0.60289   0.09915   0.02944   0.00000  Uiso   1.00
C93    C     0.84815   0.06678   0.61726   0.00000  Uiso   1.00
C94    C     0.97242   0.08340   0.63775   0.00000  Uiso   1.00
C95    C     0.10482   0.06019   0.71071   0.00000  Uiso   1.00
C96    C     0.20421   0.08114   0.71751   0.00000  Uiso   1.00
C97    C     0.40203   0.10042   0.75904   0.00000  Uiso   1.00
C98    C     0.74949   0.01394   0.53718   0.00000  Uiso   1.00
C99    C     0.69444   0.93233   0.52559   0.00000  Uiso   1.00
C100   C     0.60615   0.89481   0.44772   0.00000  Uiso   1.00
C101   C     0.45779   0.80628   0.33310   0.00000  Uiso   1.00
C102   C     0.78215   0.15677   0.59619   0.00000  Uiso   1.00
C103   C     0.75452   0.19526   0.63420   0.00000  Uiso   1.00
C104   C     0.69370   0.27799   0.60600   0.00000  Uiso   1.00
C105   C     0.59605   0.41123   0.58301   0.00000  Uiso   1.00
C106   C     0.78923   0.14525   0.49958   0.00000  Uiso   1.00
C107   C     0.94041   0.12602   0.57383   0.00000  Uiso   1.00
C108   C     0.03963   0.14701   0.58052   0.00000  Uiso   1.00
C109   C     0.17215   0.12384   0.65349   0.00000  Uiso   1.00
C110   C     0.71749   0.05655   0.47327   0.00000  Uiso   1.00
C111   C     0.62925   0.01915   0.39540   0.00000  Uiso   1.00
C112   C     0.57408   0.93751   0.38369   0.00000  Uiso   1.00
C113   C     0.75015   0.19940   0.53228   0.00000  Uiso   1.00
C114   C     0.68934   0.28208   0.50401   0.00000  Uiso   1.00
C115   C     0.66163   0.32069   0.54197   0.00000  Uiso   1.00
H116   H     0.87306   0.03359   0.66701   0.00000  Uiso   1.00
H117   H     0.12954   0.02720   0.76016   0.00000  Uiso   1.00
H118   H     0.71921   0.89937   0.57506   0.00000  Uiso   1.00
H119   H     0.77930   0.16226   0.68366   0.00000  Uiso   1.00
H120   H     0.39978   0.03888   0.83523   0.00000  Uiso   1.00
H121   H     0.53455   0.76935   0.44493   0.00000  Uiso   1.00
H122   H     0.66124   0.32370   0.67393   0.00000  Uiso   1.00
H123   H     0.76431   0.17843   0.44982   0.00000  Uiso   1.00
H124   H     0.01483   0.17999   0.53105   0.00000  Uiso   1.00
H125   H     0.60450   0.05215   0.34595   0.00000  Uiso   1.00
H126   H     0.66459   0.31504   0.45455   0.00000  Uiso   1.00
H127   H     0.30668   0.16289   0.64928   0.00000  Uiso   1.00
H128   H     0.44144   0.89336   0.25898   0.00000  Uiso   1.00
H129   H     0.56814   0.44771   0.48798   0.00000  Uiso   1.00
O130   O     0.51998   0.09927   0.79960   0.00000  Uiso   1.00
O131   O     0.38482   0.74567   0.28754   0.00000  Uiso   1.00
O132   O     0.55105   0.47296   0.58798   0.00000  Uiso   1.00
N133   N     0.34349   0.06787   0.78032   0.00000  Uiso   1.00
N134   N     0.53457   0.81587   0.41542   0.00000  Uiso   1.00
N135   N     0.65298   0.33413   0.62950   0.00000  Uiso   1.00
N136   N     0.29339   0.13460   0.68027   0.00000  Uiso   1.00
N137   N     0.48447   0.88259   0.31536   0.00000  Uiso   1.00
N138   N     0.60289   0.40085   0.52944   0.00000  Uiso   1.00
C139   C     0.15185   0.56678   0.88274   0.00000  Uiso   1.00
C140   C     0.02758   0.58340   0.86225   0.00000  Uiso   1.00
C141   C     0.89518   0.56019   0.78929   0.00000  Uiso   1.00
C142   C     0.79579   0.58114   0.78249   0.00000  Uiso   1.00
C143   C     0.59797   0.60042   0.74096   0.00000  Uiso   1.00
C144   C     0.25051   0.51394   0.96282   0.00000  Uiso   1.00
C145   C     0.30556   0.43233   0.97441   0.00000  Uiso   1.00
C146   C     0.39385   0.39481   0.05228   0.00000  Uiso   1.00
C147   C     0.54221   0.30628   0.16690   0.00000  Uiso   1.00
C148   C     0.21785   0.65677   0.90381   0.00000  Uiso   1.00
C149   C     0.24548   0.69526   0.86580   0.00000  Uiso   1.00
C150   C     0.30630   0.77799   0.89400   0.00000  Uiso   1.00
C151   C     0.40395   0.91123   0.91699   0.00000  Uiso   1.00
C152   C     0.21077   0.64525   0.00042   0.00000  Uiso   1.00
C153   C     0.05959   0.62602   0.92617   0.00000  Uiso   1.00
C154   C     0.96037   0.64701   0.91948   0.00000  Uiso   1.00
C155   C     0.82785   0.62384   0.84651   0.00000  Uiso   1.00
C156   C     0.28251   0.55655   0.02673   0.00000  Uiso   1.00
C157   C     0.37075   0.51915   0.10460   0.00000  Uiso   1.00
C158   C     0.42592   0.43751   0.11631   0.00000  Uiso   1.00
C159   C     0.24985   0.69940   0.96772   0.00000  Uiso   1.00
C160   C     0.31066   0.78208   0.99599   0.00000  Uiso   1.00
C161   C     0.33837   0.82069   0.95803   0.00000  Uiso   1.00
H162   H     0.12694   0.53359   0.83299   0.00000  Uiso   1.00
H163   H     0.87046   0.52720   0.73984   0.00000  Uiso   1.00
H164   H     0.28079   0.39937   0.92494   0.00000  Uiso   1.00
H165   H     0.22070   0.66226   0.81634   0.00000  Uiso   1.00
H166   H     0.60022   0.53888   0.66477   0.00000  Uiso   1.00
H167   H     0.46545   0.26935   0.05507   0.00000  Uiso   1.00
H168   H     0.33876   0.82370   0.82607   0.00000  Uiso   1.00
H169   H     0.23569   0.67843   0.05018   0.00000  Uiso   1.00
H170   H     0.98517   0.67999   0.96895   0.00000  Uiso   1.00
H171   H     0.39550   0.55215   0.15405   0.00000  Uiso   1.00
H172   H     0.33541   0.81504   0.04545   0.00000  Uiso   1.00
H173   H     0.69332   0.66289   0.85072   0.00000  Uiso   1.00
H174   H     0.55856   0.39336   0.24102   0.00000  Uiso   1.00
H175   H     0.43186   0.94771   0.01202   0.00000  Uiso   1.00
O176   O     0.48002   0.59927   0.70040   0.00000  Uiso   1.00
O177   O     0.61518   0.24567   0.21246   0.00000  Uiso   1.00
O178   O     0.44895   0.97296   0.91202   0.00000  Uiso   1.00
N179   N     0.65651   0.56787   0.71968   0.00000  Uiso   1.00
N180   N     0.46543   0.31587   0.08458   0.00000  Uiso   1.00
N181   N     0.34702   0.83413   0.87050   0.00000  Uiso   1.00
N182   N     0.70661   0.63460   0.81973   0.00000  Uiso   1.00
N183   N     0.51553   0.38259   0.18464   0.00000  Uiso   1.00
N184   N     0.39711   0.90085   0.97056   0.00000  Uiso   1.00
