data_job_01916
_audit_creation_date              2018-12-19
_audit_creation_method            'Materials Studio'
_symmetry_space_group_name_H-M    'P1'
_symmetry_Int_Tables_number       1
_symmetry_cell_setting            triclinic
loop_
_symmetry_equiv_pos_as_xyz
  x,y,z
_cell_length_a                    25.4331
_cell_length_b                    21.8865
_cell_length_c                    11.8184
_cell_angle_alpha                 90.0000
_cell_angle_beta                  63.0363
_cell_angle_gamma                 90.0000
loop_
_atom_site_label
_atom_site_type_symbol
_atom_site_fract_x
_atom_site_fract_y
_atom_site_fract_z
_atom_site_U_iso_or_equiv
_atom_site_adp_type
_atom_site_occupancy
C1     C     0.58696   0.20493   0.38624   0.00000  Uiso   1.00
C2     C     0.59782   0.19643   0.50200   0.00000  Uiso   1.00
C3     C     0.55960   0.16840   0.61493   0.00000  Uiso   1.00
C4     C     0.57762   0.16516   0.70947   0.00000  Uiso   1.00
C5     C     0.58621   0.14834   0.89196   0.00000  Uiso   1.00
C6     C     0.59231   0.27334   0.35872   0.00000  Uiso   1.00
C7     C     0.54947   0.30997   0.35117   0.00000  Uiso   1.00
C8     C     0.56285   0.37147   0.32508   0.00000  Uiso   1.00
C9     C     0.56291   0.47404   0.28503   0.00000  Uiso   1.00
C10    C     0.63923   0.17526   0.27544   0.00000  Uiso   1.00
C11    C     0.63584   0.12944   0.19783   0.00000  Uiso   1.00
C12    C     0.68873   0.10838   0.10161   0.00000  Uiso   1.00
C13    C     0.76164   0.05868   0.93226   0.00000  Uiso   1.00
C14    C     0.68690   0.24903   0.35332   0.00000  Uiso   1.00
C15    C     0.65211   0.22038   0.48411   0.00000  Uiso   1.00
C16    C     0.67019   0.21718   0.57851   0.00000  Uiso   1.00
C17    C     0.63201   0.18915   0.69156   0.00000  Uiso   1.00
C18    C     0.64659   0.29729   0.34084   0.00000  Uiso   1.00
C19    C     0.66005   0.35875   0.31475   0.00000  Uiso   1.00
C20    C     0.61724   0.39546   0.30717   0.00000  Uiso   1.00
C21    C     0.69352   0.19921   0.25756   0.00000  Uiso   1.00
C22    C     0.74642   0.17823   0.16142   0.00000  Uiso   1.00
C23    C     0.74311   0.13238   0.08369   0.00000  Uiso   1.00
H24    H     0.54469   0.18629   0.40015   0.00000  Uiso   1.00
H25    H     0.51759   0.14987   0.62873   0.00000  Uiso   1.00
H26    H     0.50746   0.29142   0.36500   0.00000  Uiso   1.00
H27    H     0.59382   0.11092   0.21170   0.00000  Uiso   1.00
H28    H     0.51148   0.12008   0.87428   0.00000  Uiso   1.00
H29    H     0.49013   0.41853   0.31814   0.00000  Uiso   1.00
H30    H     0.67224   0.03791   0.99488   0.00000  Uiso   1.00
H31    H     0.72917   0.26768   0.33940   0.00000  Uiso   1.00
H32    H     0.71220   0.23572   0.56464   0.00000  Uiso   1.00
H33    H     0.70206   0.37727   0.30091   0.00000  Uiso   1.00
H34    H     0.78842   0.19677   0.14761   0.00000  Uiso   1.00
H35    H     0.66943   0.18976   0.82227   0.00000  Uiso   1.00
H36    H     0.64807   0.48821   0.26612   0.00000  Uiso   1.00
H37    H     0.83018   0.10759   0.94287   0.00000  Uiso   1.00
O38    O     0.57595   0.13245   0.99756   0.00000  Uiso   1.00
O39    O     0.54794   0.52400   0.26790   0.00000  Uiso   1.00
O40    O     0.78686   0.02464   0.84380   0.00000  Uiso   1.00
N41    N     0.55099   0.14085   0.83112   0.00000  Uiso   1.00
N42    N     0.53102   0.41989   0.31118   0.00000  Uiso   1.00
N43    N     0.70128   0.06405   0.00894   0.00000  Uiso   1.00
N44    N     0.63598   0.17835   0.80313   0.00000  Uiso   1.00
N45    N     0.61601   0.45738   0.28319   0.00000  Uiso   1.00
N46    N     0.78627   0.10155   0.98095   0.00000  Uiso   1.00
C47    C     0.41518   0.78413   0.55859   0.00000  Uiso   1.00
C48    C     0.40294   0.79555   0.69563   0.00000  Uiso   1.00
C49    C     0.44366   0.81616   0.73483   0.00000  Uiso   1.00
C50    C     0.42379   0.82370   0.86446   0.00000  Uiso   1.00
C51    C     0.41369   0.84333   0.06400   0.00000  Uiso   1.00
C52    C     0.39797   0.71784   0.55318   0.00000  Uiso   1.00
C53    C     0.43452   0.67313   0.47259   0.00000  Uiso   1.00
C54    C     0.41048   0.61526   0.48229   0.00000  Uiso   1.00
C55    C     0.39266   0.51426   0.46060   0.00000  Uiso   1.00
C56    C     0.37082   0.82304   0.53694   0.00000  Uiso   1.00
C57    C     0.38453   0.86677   0.44268   0.00000  Uiso   1.00
C58    C     0.33762   0.89746   0.43870   0.00000  Uiso   1.00
C59    C     0.27764   0.95980   0.39180   0.00000  Uiso   1.00
C60    C     0.30748   0.76087   0.71909   0.00000  Uiso   1.00
C61    C     0.34444   0.78291   0.78281   0.00000  Uiso   1.00
C62    C     0.32451   0.79043   0.91241   0.00000  Uiso   1.00
C63    C     0.36519   0.81105   0.95180   0.00000  Uiso   1.00
C64    C     0.33948   0.70521   0.64035   0.00000  Uiso   1.00
C65    C     0.31537   0.64740   0.65017   0.00000  Uiso   1.00
C66    C     0.35188   0.60260   0.56963   0.00000  Uiso   1.00
C67    C     0.31232   0.81041   0.62412   0.00000  Uiso   1.00
C68    C     0.26538   0.84104   0.62027   0.00000  Uiso   1.00
C69    C     0.27902   0.88480   0.52603   0.00000  Uiso   1.00
H70    H     0.46072   0.79396   0.49071   0.00000  Uiso   1.00
H71    H     0.48892   0.82593   0.66734   0.00000  Uiso   1.00
H72    H     0.47978   0.68292   0.40513   0.00000  Uiso   1.00
H73    H     0.42980   0.87653   0.37524   0.00000  Uiso   1.00
H74    H     0.49441   0.85578   0.90161   0.00000  Uiso   1.00
H75    H     0.47513   0.55424   0.34870   0.00000  Uiso   1.00
H76    H     0.36973   0.96251   0.28566   0.00000  Uiso   1.00
H77    H     0.26194   0.75103   0.78696   0.00000  Uiso   1.00
H78    H     0.27924   0.78065   0.97985   0.00000  Uiso   1.00
H79    H     0.27011   0.63764   0.71764   0.00000  Uiso   1.00
H80    H     0.22012   0.83125   0.68775   0.00000  Uiso   1.00
H81    H     0.32422   0.81903   0.15526   0.00000  Uiso   1.00
H82    H     0.30495   0.51749   0.60234   0.00000  Uiso   1.00
H83    H     0.19955   0.92575   0.53931   0.00000  Uiso   1.00
O84    O     0.42428   0.85764   0.14998   0.00000  Uiso   1.00
O85    O     0.39900   0.46204   0.42456   0.00000  Uiso   1.00
O86    O     0.26072   0.99768   0.34187   0.00000  Uiso   1.00
N87    N     0.45198   0.84308   0.93483   0.00000  Uiso   1.00
N88    N     0.43396   0.56115   0.41791   0.00000  Uiso   1.00
N89    N     0.33542   0.94284   0.35895   0.00000  Uiso   1.00
N90    N     0.36040   0.82330   0.07132   0.00000  Uiso   1.00
N91    N     0.34238   0.54138   0.55439   0.00000  Uiso   1.00
N92    N     0.24385   0.92306   0.49544   0.00000  Uiso   1.00
C93    C     0.08696   0.70493   0.38624   0.00000  Uiso   1.00
C94    C     0.09782   0.69643   0.50200   0.00000  Uiso   1.00
C95    C     0.05960   0.66840   0.61493   0.00000  Uiso   1.00
C96    C     0.07762   0.66516   0.70947   0.00000  Uiso   1.00
C97    C     0.08621   0.64834   0.89196   0.00000  Uiso   1.00
C98    C     0.09231   0.77334   0.35872   0.00000  Uiso   1.00
C99    C     0.04947   0.80997   0.35117   0.00000  Uiso   1.00
C100   C     0.06285   0.87147   0.32508   0.00000  Uiso   1.00
C101   C     0.06291   0.97404   0.28503   0.00000  Uiso   1.00
C102   C     0.13923   0.67526   0.27544   0.00000  Uiso   1.00
C103   C     0.13584   0.62944   0.19783   0.00000  Uiso   1.00
C104   C     0.18873   0.60838   0.10161   0.00000  Uiso   1.00
C105   C     0.26164   0.55868   0.93226   0.00000  Uiso   1.00
C106   C     0.18690   0.74903   0.35332   0.00000  Uiso   1.00
C107   C     0.15211   0.72038   0.48411   0.00000  Uiso   1.00
C108   C     0.17019   0.71718   0.57851   0.00000  Uiso   1.00
C109   C     0.13201   0.68915   0.69156   0.00000  Uiso   1.00
C110   C     0.14659   0.79729   0.34084   0.00000  Uiso   1.00
C111   C     0.16005   0.85875   0.31475   0.00000  Uiso   1.00
C112   C     0.11724   0.89546   0.30717   0.00000  Uiso   1.00
C113   C     0.19352   0.69921   0.25756   0.00000  Uiso   1.00
C114   C     0.24642   0.67823   0.16142   0.00000  Uiso   1.00
C115   C     0.24311   0.63238   0.08369   0.00000  Uiso   1.00
H116   H     0.04469   0.68629   0.40015   0.00000  Uiso   1.00
H117   H     0.01759   0.64987   0.62873   0.00000  Uiso   1.00
H118   H     0.00746   0.79142   0.36500   0.00000  Uiso   1.00
H119   H     0.09382   0.61092   0.21170   0.00000  Uiso   1.00
H120   H     0.01148   0.62008   0.87428   0.00000  Uiso   1.00
H121   H     0.99013   0.91853   0.31814   0.00000  Uiso   1.00
H122   H     0.17224   0.53791   0.99488   0.00000  Uiso   1.00
H123   H     0.22917   0.76768   0.33940   0.00000  Uiso   1.00
H124   H     0.21220   0.73572   0.56464   0.00000  Uiso   1.00
H125   H     0.20206   0.87727   0.30091   0.00000  Uiso   1.00
H126   H     0.28842   0.69677   0.14761   0.00000  Uiso   1.00
H127   H     0.16943   0.68976   0.82227   0.00000  Uiso   1.00
H128   H     0.14807   0.98821   0.26612   0.00000  Uiso   1.00
H129   H     0.33018   0.60759   0.94287   0.00000  Uiso   1.00
O130   O     0.07595   0.63245   0.99756   0.00000  Uiso   1.00
O131   O     0.04794   0.02400   0.26790   0.00000  Uiso   1.00
O132   O     0.28686   0.52464   0.84380   0.00000  Uiso   1.00
N133   N     0.05099   0.64085   0.83112   0.00000  Uiso   1.00
N134   N     0.03102   0.91989   0.31118   0.00000  Uiso   1.00
N135   N     0.20128   0.56405   0.00894   0.00000  Uiso   1.00
N136   N     0.13598   0.67835   0.80313   0.00000  Uiso   1.00
N137   N     0.11601   0.95738   0.28319   0.00000  Uiso   1.00
N138   N     0.28627   0.60155   0.98095   0.00000  Uiso   1.00
C139   C     0.91518   0.28413   0.55859   0.00000  Uiso   1.00
C140   C     0.90294   0.29555   0.69563   0.00000  Uiso   1.00
C141   C     0.94366   0.31616   0.73483   0.00000  Uiso   1.00
C142   C     0.92379   0.32370   0.86446   0.00000  Uiso   1.00
C143   C     0.91369   0.34333   0.06400   0.00000  Uiso   1.00
C144   C     0.89797   0.21784   0.55318   0.00000  Uiso   1.00
C145   C     0.93452   0.17313   0.47259   0.00000  Uiso   1.00
C146   C     0.91048   0.11526   0.48229   0.00000  Uiso   1.00
C147   C     0.89266   0.01426   0.46060   0.00000  Uiso   1.00
C148   C     0.87082   0.32304   0.53694   0.00000  Uiso   1.00
C149   C     0.88453   0.36677   0.44268   0.00000  Uiso   1.00
C150   C     0.83762   0.39746   0.43870   0.00000  Uiso   1.00
C151   C     0.77764   0.45980   0.39180   0.00000  Uiso   1.00
C152   C     0.80748   0.26087   0.71909   0.00000  Uiso   1.00
C153   C     0.84444   0.28291   0.78281   0.00000  Uiso   1.00
C154   C     0.82451   0.29043   0.91241   0.00000  Uiso   1.00
C155   C     0.86519   0.31105   0.95180   0.00000  Uiso   1.00
C156   C     0.83948   0.20521   0.64035   0.00000  Uiso   1.00
C157   C     0.81537   0.14740   0.65017   0.00000  Uiso   1.00
C158   C     0.85188   0.10260   0.56963   0.00000  Uiso   1.00
C159   C     0.81232   0.31041   0.62412   0.00000  Uiso   1.00
C160   C     0.76538   0.34104   0.62027   0.00000  Uiso   1.00
C161   C     0.77902   0.38480   0.52603   0.00000  Uiso   1.00
H162   H     0.96072   0.29396   0.49071   0.00000  Uiso   1.00
H163   H     0.98892   0.32593   0.66734   0.00000  Uiso   1.00
H164   H     0.97978   0.18292   0.40513   0.00000  Uiso   1.00
H165   H     0.92980   0.37653   0.37524   0.00000  Uiso   1.00
H166   H     0.99441   0.35578   0.90161   0.00000  Uiso   1.00
H167   H     0.97513   0.05424   0.34870   0.00000  Uiso   1.00
H168   H     0.86973   0.46251   0.28566   0.00000  Uiso   1.00
H169   H     0.76194   0.25103   0.78696   0.00000  Uiso   1.00
H170   H     0.77924   0.28065   0.97985   0.00000  Uiso   1.00
H171   H     0.77011   0.13764   0.71764   0.00000  Uiso   1.00
H172   H     0.72012   0.33125   0.68775   0.00000  Uiso   1.00
H173   H     0.82422   0.31903   0.15526   0.00000  Uiso   1.00
H174   H     0.80495   0.01749   0.60234   0.00000  Uiso   1.00
H175   H     0.69955   0.42575   0.53931   0.00000  Uiso   1.00
O176   O     0.92428   0.35764   0.14998   0.00000  Uiso   1.00
O177   O     0.89900   0.96204   0.42456   0.00000  Uiso   1.00
O178   O     0.76072   0.49768   0.34187   0.00000  Uiso   1.00
N179   N     0.95198   0.34308   0.93483   0.00000  Uiso   1.00
N180   N     0.93396   0.06115   0.41791   0.00000  Uiso   1.00
N181   N     0.83542   0.44284   0.35895   0.00000  Uiso   1.00
N182   N     0.86040   0.32330   0.07132   0.00000  Uiso   1.00
N183   N     0.84238   0.04138   0.55439   0.00000  Uiso   1.00
N184   N     0.74385   0.42306   0.49544   0.00000  Uiso   1.00
C185   C     0.41304   0.20493   0.61376   0.00000  Uiso   1.00
C186   C     0.40218   0.19643   0.49800   0.00000  Uiso   1.00
C187   C     0.44040   0.16840   0.38507   0.00000  Uiso   1.00
C188   C     0.42238   0.16516   0.29053   0.00000  Uiso   1.00
C189   C     0.41379   0.14834   0.10804   0.00000  Uiso   1.00
C190   C     0.40769   0.27334   0.64128   0.00000  Uiso   1.00
C191   C     0.45053   0.30997   0.64883   0.00000  Uiso   1.00
C192   C     0.43715   0.37147   0.67492   0.00000  Uiso   1.00
C193   C     0.43709   0.47404   0.71497   0.00000  Uiso   1.00
C194   C     0.36077   0.17526   0.72456   0.00000  Uiso   1.00
C195   C     0.36416   0.12944   0.80217   0.00000  Uiso   1.00
C196   C     0.31127   0.10838   0.89839   0.00000  Uiso   1.00
C197   C     0.23836   0.05868   0.06774   0.00000  Uiso   1.00
C198   C     0.31310   0.24903   0.64668   0.00000  Uiso   1.00
C199   C     0.34789   0.22038   0.51589   0.00000  Uiso   1.00
C200   C     0.32981   0.21718   0.42149   0.00000  Uiso   1.00
C201   C     0.36799   0.18915   0.30844   0.00000  Uiso   1.00
C202   C     0.35341   0.29729   0.65916   0.00000  Uiso   1.00
C203   C     0.33995   0.35875   0.68525   0.00000  Uiso   1.00
C204   C     0.38276   0.39546   0.69283   0.00000  Uiso   1.00
C205   C     0.30648   0.19921   0.74244   0.00000  Uiso   1.00
C206   C     0.25358   0.17823   0.83858   0.00000  Uiso   1.00
C207   C     0.25689   0.13238   0.91631   0.00000  Uiso   1.00
H208   H     0.45531   0.18629   0.59985   0.00000  Uiso   1.00
H209   H     0.48241   0.14987   0.37127   0.00000  Uiso   1.00
H210   H     0.49254   0.29142   0.63500   0.00000  Uiso   1.00
H211   H     0.40618   0.11092   0.78830   0.00000  Uiso   1.00
H212   H     0.48852   0.12008   0.12572   0.00000  Uiso   1.00
H213   H     0.50987   0.41853   0.68186   0.00000  Uiso   1.00
H214   H     0.32776   0.03791   0.00512   0.00000  Uiso   1.00
H215   H     0.27083   0.26768   0.66060   0.00000  Uiso   1.00
H216   H     0.28780   0.23572   0.43536   0.00000  Uiso   1.00
H217   H     0.29794   0.37727   0.69909   0.00000  Uiso   1.00
H218   H     0.21158   0.19677   0.85239   0.00000  Uiso   1.00
H219   H     0.33057   0.18976   0.17773   0.00000  Uiso   1.00
H220   H     0.35193   0.48821   0.73388   0.00000  Uiso   1.00
H221   H     0.16982   0.10759   0.05713   0.00000  Uiso   1.00
O222   O     0.42405   0.13245   0.00244   0.00000  Uiso   1.00
O223   O     0.45206   0.52400   0.73210   0.00000  Uiso   1.00
O224   O     0.21314   0.02464   0.15620   0.00000  Uiso   1.00
N225   N     0.44901   0.14085   0.16888   0.00000  Uiso   1.00
N226   N     0.46898   0.41989   0.68882   0.00000  Uiso   1.00
N227   N     0.29872   0.06405   0.99106   0.00000  Uiso   1.00
N228   N     0.36402   0.17835   0.19687   0.00000  Uiso   1.00
N229   N     0.38399   0.45738   0.71681   0.00000  Uiso   1.00
N230   N     0.21373   0.10155   0.01905   0.00000  Uiso   1.00
C231   C     0.58482   0.78413   0.44141   0.00000  Uiso   1.00
C232   C     0.59706   0.79555   0.30437   0.00000  Uiso   1.00
C233   C     0.55634   0.81616   0.26517   0.00000  Uiso   1.00
C234   C     0.57621   0.82370   0.13554   0.00000  Uiso   1.00
C235   C     0.58631   0.84333   0.93600   0.00000  Uiso   1.00
C236   C     0.60203   0.71784   0.44682   0.00000  Uiso   1.00
C237   C     0.56548   0.67313   0.52741   0.00000  Uiso   1.00
C238   C     0.58952   0.61526   0.51771   0.00000  Uiso   1.00
C239   C     0.60734   0.51426   0.53940   0.00000  Uiso   1.00
C240   C     0.62918   0.82304   0.46306   0.00000  Uiso   1.00
C241   C     0.61547   0.86677   0.55732   0.00000  Uiso   1.00
C242   C     0.66238   0.89746   0.56130   0.00000  Uiso   1.00
C243   C     0.72236   0.95980   0.60820   0.00000  Uiso   1.00
C244   C     0.69252   0.76087   0.28091   0.00000  Uiso   1.00
C245   C     0.65556   0.78291   0.21719   0.00000  Uiso   1.00
C246   C     0.67549   0.79043   0.08759   0.00000  Uiso   1.00
C247   C     0.63481   0.81105   0.04820   0.00000  Uiso   1.00
C248   C     0.66052   0.70521   0.35965   0.00000  Uiso   1.00
C249   C     0.68463   0.64740   0.34983   0.00000  Uiso   1.00
C250   C     0.64812   0.60260   0.43037   0.00000  Uiso   1.00
C251   C     0.68768   0.81041   0.37588   0.00000  Uiso   1.00
C252   C     0.73462   0.84104   0.37973   0.00000  Uiso   1.00
C253   C     0.72098   0.88480   0.47397   0.00000  Uiso   1.00
H254   H     0.53928   0.79396   0.50929   0.00000  Uiso   1.00
H255   H     0.51108   0.82593   0.33266   0.00000  Uiso   1.00
H256   H     0.52022   0.68292   0.59487   0.00000  Uiso   1.00
H257   H     0.57020   0.87653   0.62476   0.00000  Uiso   1.00
H258   H     0.50559   0.85578   0.09839   0.00000  Uiso   1.00
H259   H     0.52487   0.55424   0.65130   0.00000  Uiso   1.00
H260   H     0.63027   0.96251   0.71434   0.00000  Uiso   1.00
H261   H     0.73806   0.75103   0.21304   0.00000  Uiso   1.00
H262   H     0.72076   0.78065   0.02015   0.00000  Uiso   1.00
H263   H     0.72989   0.63764   0.28236   0.00000  Uiso   1.00
H264   H     0.77988   0.83125   0.31225   0.00000  Uiso   1.00
H265   H     0.67578   0.81903   0.84474   0.00000  Uiso   1.00
H266   H     0.69505   0.51749   0.39766   0.00000  Uiso   1.00
H267   H     0.80045   0.92575   0.46069   0.00000  Uiso   1.00
O268   O     0.57572   0.85764   0.85002   0.00000  Uiso   1.00
O269   O     0.60100   0.46204   0.57544   0.00000  Uiso   1.00
O270   O     0.73928   0.99768   0.65813   0.00000  Uiso   1.00
N271   N     0.54802   0.84308   0.06517   0.00000  Uiso   1.00
N272   N     0.56604   0.56115   0.58209   0.00000  Uiso   1.00
N273   N     0.66458   0.94284   0.64105   0.00000  Uiso   1.00
N274   N     0.63960   0.82330   0.92868   0.00000  Uiso   1.00
N275   N     0.65762   0.54138   0.44561   0.00000  Uiso   1.00
N276   N     0.75615   0.92306   0.50456   0.00000  Uiso   1.00
C277   C     0.91304   0.70493   0.61376   0.00000  Uiso   1.00
C278   C     0.90218   0.69643   0.49800   0.00000  Uiso   1.00
C279   C     0.94040   0.66840   0.38507   0.00000  Uiso   1.00
C280   C     0.92238   0.66516   0.29053   0.00000  Uiso   1.00
C281   C     0.91379   0.64834   0.10804   0.00000  Uiso   1.00
C282   C     0.90769   0.77334   0.64128   0.00000  Uiso   1.00
C283   C     0.95053   0.80997   0.64883   0.00000  Uiso   1.00
C284   C     0.93715   0.87147   0.67492   0.00000  Uiso   1.00
C285   C     0.93709   0.97404   0.71497   0.00000  Uiso   1.00
C286   C     0.86077   0.67526   0.72456   0.00000  Uiso   1.00
C287   C     0.86416   0.62944   0.80217   0.00000  Uiso   1.00
C288   C     0.81127   0.60838   0.89839   0.00000  Uiso   1.00
C289   C     0.73836   0.55868   0.06774   0.00000  Uiso   1.00
C290   C     0.81310   0.74903   0.64668   0.00000  Uiso   1.00
C291   C     0.84789   0.72038   0.51589   0.00000  Uiso   1.00
C292   C     0.82981   0.71718   0.42149   0.00000  Uiso   1.00
C293   C     0.86799   0.68915   0.30844   0.00000  Uiso   1.00
C294   C     0.85341   0.79729   0.65916   0.00000  Uiso   1.00
C295   C     0.83995   0.85875   0.68525   0.00000  Uiso   1.00
C296   C     0.88276   0.89546   0.69283   0.00000  Uiso   1.00
C297   C     0.80648   0.69921   0.74244   0.00000  Uiso   1.00
C298   C     0.75358   0.67823   0.83858   0.00000  Uiso   1.00
C299   C     0.75689   0.63238   0.91631   0.00000  Uiso   1.00
H300   H     0.95531   0.68629   0.59985   0.00000  Uiso   1.00
H301   H     0.98241   0.64987   0.37127   0.00000  Uiso   1.00
H302   H     0.99254   0.79142   0.63500   0.00000  Uiso   1.00
H303   H     0.90618   0.61092   0.78830   0.00000  Uiso   1.00
H304   H     0.98852   0.62008   0.12572   0.00000  Uiso   1.00
H305   H     0.00987   0.91853   0.68186   0.00000  Uiso   1.00
H306   H     0.82776   0.53791   0.00512   0.00000  Uiso   1.00
H307   H     0.77083   0.76768   0.66060   0.00000  Uiso   1.00
H308   H     0.78780   0.73572   0.43536   0.00000  Uiso   1.00
H309   H     0.79794   0.87727   0.69909   0.00000  Uiso   1.00
H310   H     0.71158   0.69677   0.85239   0.00000  Uiso   1.00
H311   H     0.83057   0.68976   0.17773   0.00000  Uiso   1.00
H312   H     0.85193   0.98821   0.73388   0.00000  Uiso   1.00
H313   H     0.66982   0.60759   0.05713   0.00000  Uiso   1.00
O314   O     0.92405   0.63245   0.00244   0.00000  Uiso   1.00
O315   O     0.95206   0.02400   0.73210   0.00000  Uiso   1.00
O316   O     0.71314   0.52464   0.15620   0.00000  Uiso   1.00
N317   N     0.94901   0.64085   0.16888   0.00000  Uiso   1.00
N318   N     0.96898   0.91989   0.68882   0.00000  Uiso   1.00
N319   N     0.79872   0.56405   0.99106   0.00000  Uiso   1.00
N320   N     0.86402   0.67835   0.19687   0.00000  Uiso   1.00
N321   N     0.88399   0.95738   0.71681   0.00000  Uiso   1.00
N322   N     0.71373   0.60155   0.01905   0.00000  Uiso   1.00
C323   C     0.08482   0.28413   0.44141   0.00000  Uiso   1.00
C324   C     0.09706   0.29555   0.30437   0.00000  Uiso   1.00
C325   C     0.05634   0.31616   0.26517   0.00000  Uiso   1.00
C326   C     0.07621   0.32370   0.13554   0.00000  Uiso   1.00
C327   C     0.08631   0.34333   0.93600   0.00000  Uiso   1.00
C328   C     0.10203   0.21784   0.44682   0.00000  Uiso   1.00
C329   C     0.06548   0.17313   0.52741   0.00000  Uiso   1.00
C330   C     0.08952   0.11526   0.51771   0.00000  Uiso   1.00
C331   C     0.10734   0.01426   0.53940   0.00000  Uiso   1.00
C332   C     0.12918   0.32304   0.46306   0.00000  Uiso   1.00
C333   C     0.11547   0.36677   0.55732   0.00000  Uiso   1.00
C334   C     0.16238   0.39746   0.56130   0.00000  Uiso   1.00
C335   C     0.22236   0.45980   0.60820   0.00000  Uiso   1.00
C336   C     0.19252   0.26087   0.28091   0.00000  Uiso   1.00
C337   C     0.15556   0.28291   0.21719   0.00000  Uiso   1.00
C338   C     0.17549   0.29043   0.08759   0.00000  Uiso   1.00
C339   C     0.13481   0.31105   0.04820   0.00000  Uiso   1.00
C340   C     0.16052   0.20521   0.35965   0.00000  Uiso   1.00
C341   C     0.18463   0.14740   0.34983   0.00000  Uiso   1.00
C342   C     0.14812   0.10260   0.43037   0.00000  Uiso   1.00
C343   C     0.18768   0.31041   0.37588   0.00000  Uiso   1.00
C344   C     0.23462   0.34104   0.37973   0.00000  Uiso   1.00
C345   C     0.22098   0.38480   0.47397   0.00000  Uiso   1.00
H346   H     0.03928   0.29396   0.50929   0.00000  Uiso   1.00
H347   H     0.01108   0.32593   0.33266   0.00000  Uiso   1.00
H348   H     0.02022   0.18292   0.59487   0.00000  Uiso   1.00
H349   H     0.07020   0.37653   0.62476   0.00000  Uiso   1.00
H350   H     0.00559   0.35578   0.09839   0.00000  Uiso   1.00
H351   H     0.02487   0.05424   0.65130   0.00000  Uiso   1.00
H352   H     0.13027   0.46251   0.71434   0.00000  Uiso   1.00
H353   H     0.23806   0.25103   0.21304   0.00000  Uiso   1.00
H354   H     0.22076   0.28065   0.02015   0.00000  Uiso   1.00
H355   H     0.22989   0.13764   0.28236   0.00000  Uiso   1.00
H356   H     0.27988   0.33125   0.31225   0.00000  Uiso   1.00
H357   H     0.17578   0.31903   0.84474   0.00000  Uiso   1.00
H358   H     0.19505   0.01749   0.39766   0.00000  Uiso   1.00
H359   H     0.30045   0.42575   0.46069   0.00000  Uiso   1.00
O360   O     0.07572   0.35764   0.85002   0.00000  Uiso   1.00
O361   O     0.10100   0.96204   0.57544   0.00000  Uiso   1.00
O362   O     0.23928   0.49768   0.65813   0.00000  Uiso   1.00
N363   N     0.04802   0.34308   0.06517   0.00000  Uiso   1.00
N364   N     0.06604   0.06115   0.58209   0.00000  Uiso   1.00
N365   N     0.16458   0.44284   0.64105   0.00000  Uiso   1.00
N366   N     0.13960   0.32330   0.92868   0.00000  Uiso   1.00
N367   N     0.15762   0.04138   0.44561   0.00000  Uiso   1.00
N368   N     0.25615   0.42306   0.50456   0.00000  Uiso   1.00
