data_job_01486
_audit_creation_date              2018-12-19
_audit_creation_method            'Materials Studio'
_symmetry_space_group_name_H-M    'P1'
_symmetry_Int_Tables_number       1
_symmetry_cell_setting            triclinic
loop_
_symmetry_equiv_pos_as_xyz
  x,y,z
_cell_length_a                    9.6520
_cell_length_b                    9.2134
_cell_length_c                    35.0907
_cell_angle_alpha                 90.0000
_cell_angle_beta                  79.3949
_cell_angle_gamma                 90.0000
loop_
_atom_site_label
_atom_site_type_symbol
_atom_site_fract_x
_atom_site_fract_y
_atom_site_fract_z
_atom_site_U_iso_or_equiv
_atom_site_adp_type
_atom_site_occupancy
C1     C     0.98944   0.56267   0.63575   0.00000  Uiso   1.00
C2     C     0.09482   0.64984   0.60690   0.00000  Uiso   1.00
C3     C     0.13956   0.61627   0.56803   0.00000  Uiso   1.00
C4     C     0.23651   0.70967   0.54648   0.00000  Uiso   1.00
C5     C     0.39253   0.82634   0.49914   0.00000  Uiso   1.00
C6     C     0.06469   0.52449   0.66901   0.00000  Uiso   1.00
C7     C     0.08408   0.38553   0.68236   0.00000  Uiso   1.00
C8     C     0.15566   0.37342   0.71311   0.00000  Uiso   1.00
C9     C     0.26482   0.29549   0.76221   0.00000  Uiso   1.00
C10    C     0.87231   0.66827   0.65249   0.00000  Uiso   1.00
C11    C     0.72993   0.65018   0.65196   0.00000  Uiso   1.00
C12    C     0.63953   0.75910   0.66880   0.00000  Uiso   1.00
C13    C     0.44999   0.90441   0.69225   0.00000  Uiso   1.00
C14    C     0.08208   0.78826   0.66661   0.00000  Uiso   1.00
C15    C     0.14513   0.77237   0.62366   0.00000  Uiso   1.00
C16    C     0.24204   0.86585   0.60216   0.00000  Uiso   1.00
C17    C     0.28691   0.83242   0.56327   0.00000  Uiso   1.00
C18    C     0.11501   0.64701   0.68577   0.00000  Uiso   1.00
C19    C     0.18657   0.63511   0.71650   0.00000  Uiso   1.00
C20    C     0.20606   0.49616   0.72990   0.00000  Uiso   1.00
C21    C     0.92262   0.79080   0.66925   0.00000  Uiso   1.00
C22    C     0.83243   0.89976   0.68609   0.00000  Uiso   1.00
C23    C     0.68994   0.88185   0.68559   0.00000  Uiso   1.00
H24    H     0.95028   0.46728   0.62271   0.00000  Uiso   1.00
H25    H     0.10060   0.52143   0.55507   0.00000  Uiso   1.00
H26    H     0.04512   0.29073   0.66939   0.00000  Uiso   1.00
H27    H     0.69104   0.55535   0.63899   0.00000  Uiso   1.00
H28    H     0.28950   0.63547   0.48748   0.00000  Uiso   1.00
H29    H     0.17247   0.14903   0.72854   0.00000  Uiso   1.00
H30    H     0.42580   0.70702   0.66443   0.00000  Uiso   1.00
H31    H     0.12125   0.88365   0.67966   0.00000  Uiso   1.00
H32    H     0.28096   0.96066   0.61514   0.00000  Uiso   1.00
H33    H     0.22548   0.72995   0.72946   0.00000  Uiso   1.00
H34    H     0.87140   0.99457   0.69906   0.00000  Uiso   1.00
H35    H     0.43589   0.99196   0.53623   0.00000  Uiso   1.00
H36    H     0.31885   0.50552   0.77730   0.00000  Uiso   1.00
H37    H     0.57220   0.06352   0.71319   0.00000  Uiso   1.00
O38    O     0.46471   0.85683   0.46839   0.00000  Uiso   1.00
O39    O     0.31114   0.21864   0.78466   0.00000  Uiso   1.00
O40    O     0.33155   0.95072   0.70055   0.00000  Uiso   1.00
N41    N     0.30201   0.70882   0.50780   0.00000  Uiso   1.00
N42    N     0.19261   0.25402   0.73318   0.00000  Uiso   1.00
N43    N     0.49454   0.77568   0.67325   0.00000  Uiso   1.00
N44    N     0.38078   0.90064   0.53404   0.00000  Uiso   1.00
N45    N     0.27138   0.44585   0.75941   0.00000  Uiso   1.00
N46    N     0.57331   0.96751   0.69949   0.00000  Uiso   1.00
C47    C     0.01056   0.56267   0.86425   0.00000  Uiso   1.00
C48    C     0.90518   0.64984   0.89310   0.00000  Uiso   1.00
C49    C     0.86044   0.61627   0.93197   0.00000  Uiso   1.00
C50    C     0.76349   0.70967   0.95352   0.00000  Uiso   1.00
C51    C     0.60747   0.82634   0.00086   0.00000  Uiso   1.00
C52    C     0.93531   0.52449   0.83099   0.00000  Uiso   1.00
C53    C     0.91592   0.38553   0.81764   0.00000  Uiso   1.00
C54    C     0.84434   0.37342   0.78689   0.00000  Uiso   1.00
C55    C     0.73518   0.29549   0.73779   0.00000  Uiso   1.00
C56    C     0.12769   0.66827   0.84751   0.00000  Uiso   1.00
C57    C     0.27007   0.65018   0.84804   0.00000  Uiso   1.00
C58    C     0.36047   0.75910   0.83120   0.00000  Uiso   1.00
C59    C     0.55001   0.90441   0.80775   0.00000  Uiso   1.00
C60    C     0.91792   0.78826   0.83339   0.00000  Uiso   1.00
C61    C     0.85487   0.77237   0.87634   0.00000  Uiso   1.00
C62    C     0.75796   0.86585   0.89784   0.00000  Uiso   1.00
C63    C     0.71309   0.83242   0.93673   0.00000  Uiso   1.00
C64    C     0.88499   0.64701   0.81423   0.00000  Uiso   1.00
C65    C     0.81343   0.63511   0.78350   0.00000  Uiso   1.00
C66    C     0.79394   0.49616   0.77010   0.00000  Uiso   1.00
C67    C     0.07738   0.79080   0.83075   0.00000  Uiso   1.00
C68    C     0.16757   0.89976   0.81391   0.00000  Uiso   1.00
C69    C     0.31006   0.88185   0.81441   0.00000  Uiso   1.00
H70    H     0.04972   0.46728   0.87729   0.00000  Uiso   1.00
H71    H     0.89940   0.52143   0.94493   0.00000  Uiso   1.00
H72    H     0.95488   0.29073   0.83061   0.00000  Uiso   1.00
H73    H     0.30896   0.55535   0.86101   0.00000  Uiso   1.00
H74    H     0.71050   0.63547   0.01252   0.00000  Uiso   1.00
H75    H     0.82753   0.14903   0.77146   0.00000  Uiso   1.00
H76    H     0.57420   0.70702   0.83557   0.00000  Uiso   1.00
H77    H     0.87875   0.88365   0.82034   0.00000  Uiso   1.00
H78    H     0.71904   0.96066   0.88486   0.00000  Uiso   1.00
H79    H     0.77452   0.72995   0.77054   0.00000  Uiso   1.00
H80    H     0.12860   0.99457   0.80094   0.00000  Uiso   1.00
H81    H     0.56411   0.99196   0.96377   0.00000  Uiso   1.00
H82    H     0.68115   0.50552   0.72270   0.00000  Uiso   1.00
H83    H     0.42780   0.06352   0.78681   0.00000  Uiso   1.00
O84    O     0.53529   0.85683   0.03161   0.00000  Uiso   1.00
O85    O     0.68886   0.21864   0.71534   0.00000  Uiso   1.00
O86    O     0.66845   0.95072   0.79945   0.00000  Uiso   1.00
N87    N     0.69799   0.70882   0.99220   0.00000  Uiso   1.00
N88    N     0.80739   0.25402   0.76682   0.00000  Uiso   1.00
N89    N     0.50546   0.77568   0.82675   0.00000  Uiso   1.00
N90    N     0.61922   0.90064   0.96596   0.00000  Uiso   1.00
N91    N     0.72862   0.44585   0.74059   0.00000  Uiso   1.00
N92    N     0.42669   0.96751   0.80051   0.00000  Uiso   1.00
C93    C     0.01056   0.43733   0.36425   0.00000  Uiso   1.00
C94    C     0.90518   0.35016   0.39310   0.00000  Uiso   1.00
C95    C     0.86044   0.38373   0.43197   0.00000  Uiso   1.00
C96    C     0.76349   0.29033   0.45352   0.00000  Uiso   1.00
C97    C     0.60747   0.17366   0.50086   0.00000  Uiso   1.00
C98    C     0.93531   0.47551   0.33099   0.00000  Uiso   1.00
C99    C     0.91592   0.61447   0.31764   0.00000  Uiso   1.00
C100   C     0.84434   0.62658   0.28689   0.00000  Uiso   1.00
C101   C     0.73518   0.70451   0.23779   0.00000  Uiso   1.00
C102   C     0.12769   0.33173   0.34751   0.00000  Uiso   1.00
C103   C     0.27007   0.34982   0.34804   0.00000  Uiso   1.00
C104   C     0.36047   0.24090   0.33120   0.00000  Uiso   1.00
C105   C     0.55001   0.09559   0.30775   0.00000  Uiso   1.00
C106   C     0.91792   0.21174   0.33339   0.00000  Uiso   1.00
C107   C     0.85487   0.22763   0.37634   0.00000  Uiso   1.00
C108   C     0.75796   0.13415   0.39784   0.00000  Uiso   1.00
C109   C     0.71309   0.16758   0.43673   0.00000  Uiso   1.00
C110   C     0.88499   0.35299   0.31423   0.00000  Uiso   1.00
C111   C     0.81343   0.36489   0.28350   0.00000  Uiso   1.00
C112   C     0.79394   0.50384   0.27010   0.00000  Uiso   1.00
C113   C     0.07738   0.20920   0.33075   0.00000  Uiso   1.00
C114   C     0.16757   0.10024   0.31391   0.00000  Uiso   1.00
C115   C     0.31006   0.11815   0.31441   0.00000  Uiso   1.00
H116   H     0.04972   0.53272   0.37729   0.00000  Uiso   1.00
H117   H     0.89940   0.47857   0.44493   0.00000  Uiso   1.00
H118   H     0.95488   0.70927   0.33061   0.00000  Uiso   1.00
H119   H     0.30896   0.44465   0.36101   0.00000  Uiso   1.00
H120   H     0.71050   0.36453   0.51252   0.00000  Uiso   1.00
H121   H     0.82753   0.85097   0.27146   0.00000  Uiso   1.00
H122   H     0.57420   0.29298   0.33557   0.00000  Uiso   1.00
H123   H     0.87875   0.11635   0.32034   0.00000  Uiso   1.00
H124   H     0.71904   0.03934   0.38486   0.00000  Uiso   1.00
H125   H     0.77452   0.27005   0.27054   0.00000  Uiso   1.00
H126   H     0.12860   0.00543   0.30094   0.00000  Uiso   1.00
H127   H     0.56411   0.00804   0.46377   0.00000  Uiso   1.00
H128   H     0.68115   0.49448   0.22270   0.00000  Uiso   1.00
H129   H     0.42780   0.93648   0.28681   0.00000  Uiso   1.00
O130   O     0.53529   0.14317   0.53161   0.00000  Uiso   1.00
O131   O     0.68886   0.78136   0.21534   0.00000  Uiso   1.00
O132   O     0.66845   0.04928   0.29945   0.00000  Uiso   1.00
N133   N     0.69799   0.29118   0.49220   0.00000  Uiso   1.00
N134   N     0.80739   0.74598   0.26682   0.00000  Uiso   1.00
N135   N     0.50546   0.22432   0.32675   0.00000  Uiso   1.00
N136   N     0.61922   0.09936   0.46596   0.00000  Uiso   1.00
N137   N     0.72862   0.55415   0.24059   0.00000  Uiso   1.00
N138   N     0.42669   0.03249   0.30051   0.00000  Uiso   1.00
C139   C     0.98944   0.43733   0.13575   0.00000  Uiso   1.00
C140   C     0.09482   0.35016   0.10690   0.00000  Uiso   1.00
C141   C     0.13956   0.38373   0.06803   0.00000  Uiso   1.00
C142   C     0.23651   0.29033   0.04648   0.00000  Uiso   1.00
C143   C     0.39253   0.17366   0.99914   0.00000  Uiso   1.00
C144   C     0.06469   0.47551   0.16901   0.00000  Uiso   1.00
C145   C     0.08408   0.61447   0.18236   0.00000  Uiso   1.00
C146   C     0.15566   0.62658   0.21311   0.00000  Uiso   1.00
C147   C     0.26482   0.70451   0.26221   0.00000  Uiso   1.00
C148   C     0.87231   0.33173   0.15249   0.00000  Uiso   1.00
C149   C     0.72993   0.34982   0.15196   0.00000  Uiso   1.00
C150   C     0.63953   0.24090   0.16880   0.00000  Uiso   1.00
C151   C     0.44999   0.09559   0.19225   0.00000  Uiso   1.00
C152   C     0.08208   0.21174   0.16661   0.00000  Uiso   1.00
C153   C     0.14513   0.22763   0.12366   0.00000  Uiso   1.00
C154   C     0.24204   0.13415   0.10216   0.00000  Uiso   1.00
C155   C     0.28691   0.16758   0.06327   0.00000  Uiso   1.00
C156   C     0.11501   0.35299   0.18577   0.00000  Uiso   1.00
C157   C     0.18657   0.36489   0.21650   0.00000  Uiso   1.00
C158   C     0.20606   0.50384   0.22990   0.00000  Uiso   1.00
C159   C     0.92262   0.20920   0.16925   0.00000  Uiso   1.00
C160   C     0.83243   0.10024   0.18609   0.00000  Uiso   1.00
C161   C     0.68994   0.11815   0.18559   0.00000  Uiso   1.00
H162   H     0.95028   0.53272   0.12271   0.00000  Uiso   1.00
H163   H     0.10060   0.47857   0.05507   0.00000  Uiso   1.00
H164   H     0.04512   0.70927   0.16939   0.00000  Uiso   1.00
H165   H     0.69104   0.44465   0.13899   0.00000  Uiso   1.00
H166   H     0.28950   0.36453   0.98748   0.00000  Uiso   1.00
H167   H     0.17247   0.85097   0.22854   0.00000  Uiso   1.00
H168   H     0.42580   0.29298   0.16443   0.00000  Uiso   1.00
H169   H     0.12125   0.11635   0.17966   0.00000  Uiso   1.00
H170   H     0.28096   0.03934   0.11514   0.00000  Uiso   1.00
H171   H     0.22548   0.27005   0.22946   0.00000  Uiso   1.00
H172   H     0.87140   0.00543   0.19906   0.00000  Uiso   1.00
H173   H     0.43589   0.00804   0.03623   0.00000  Uiso   1.00
H174   H     0.31885   0.49448   0.27730   0.00000  Uiso   1.00
H175   H     0.57220   0.93648   0.21319   0.00000  Uiso   1.00
O176   O     0.46471   0.14317   0.96839   0.00000  Uiso   1.00
O177   O     0.31114   0.78136   0.28466   0.00000  Uiso   1.00
O178   O     0.33155   0.04928   0.20055   0.00000  Uiso   1.00
N179   N     0.30201   0.29118   0.00780   0.00000  Uiso   1.00
N180   N     0.19261   0.74598   0.23318   0.00000  Uiso   1.00
N181   N     0.49454   0.22432   0.17325   0.00000  Uiso   1.00
N182   N     0.38078   0.09936   0.03404   0.00000  Uiso   1.00
N183   N     0.27138   0.55415   0.25941   0.00000  Uiso   1.00
N184   N     0.57331   0.03249   0.19949   0.00000  Uiso   1.00
