data_job_06806
_audit_creation_date              2018-12-19
_audit_creation_method            'Materials Studio'
_symmetry_space_group_name_H-M    'P1'
_symmetry_Int_Tables_number       1
_symmetry_cell_setting            triclinic
loop_
_symmetry_equiv_pos_as_xyz
  x,y,z
_cell_length_a                    22.6603
_cell_length_b                    21.6561
_cell_length_c                    20.1154
_cell_angle_alpha                 75.8775
_cell_angle_beta                  75.2941
_cell_angle_gamma                 69.9682
loop_
_atom_site_label
_atom_site_type_symbol
_atom_site_fract_x
_atom_site_fract_y
_atom_site_fract_z
_atom_site_U_iso_or_equiv
_atom_site_adp_type
_atom_site_occupancy
C1     C     0.04809   0.18757   0.65732   0.00000  Uiso   1.00
C2     C     0.11027   0.13643   0.63128   0.00000  Uiso   1.00
C3     C     0.11518   0.07979   0.60702   0.00000  Uiso   1.00
C4     C     0.17640   0.03928   0.58556   0.00000  Uiso   1.00
C5     C     0.26468   0.95747   0.54475   0.00000  Uiso   1.00
C6     C     0.05124   0.19119   0.73105   0.00000  Uiso   1.00
C7     C     0.00651   0.18061   0.79068   0.00000  Uiso   1.00
C8     C     0.01804   0.18622   0.85320   0.00000  Uiso   1.00
C9     C     0.01465   0.18948   0.96728   0.00000  Uiso   1.00
C10    C     0.05130   0.25481   0.61306   0.00000  Uiso   1.00
C11    C     0.00662   0.29773   0.57350   0.00000  Uiso   1.00
C12    C     0.01819   0.35691   0.53669   0.00000  Uiso   1.00
C13    C     0.01490   0.45895   0.46758   0.00000  Uiso   1.00
C14    C     0.14809   0.21635   0.66233   0.00000  Uiso   1.00
C15    C     0.16458   0.15206   0.63401   0.00000  Uiso   1.00
C16    C     0.22581   0.11163   0.61257   0.00000  Uiso   1.00
C17    C     0.23081   0.05494   0.58829   0.00000  Uiso   1.00
C18    C     0.10555   0.20682   0.73378   0.00000  Uiso   1.00
C19    C     0.11714   0.21245   0.79623   0.00000  Uiso   1.00
C20    C     0.07245   0.20188   0.85593   0.00000  Uiso   1.00
C21    C     0.10562   0.27045   0.61579   0.00000  Uiso   1.00
C22    C     0.11726   0.32957   0.57904   0.00000  Uiso   1.00
C23    C     0.07260   0.37257   0.53942   0.00000  Uiso   1.00
H24    H     0.00580   0.17540   0.65520   0.00000  Uiso   1.00
H25    H     0.07313   0.06771   0.60493   0.00000  Uiso   1.00
H26    H     0.96448   0.16852   0.78855   0.00000  Uiso   1.00
H27    H     0.96459   0.28562   0.57140   0.00000  Uiso   1.00
H28    H     0.17173   0.95519   0.55042   0.00000  Uiso   1.00
H29    H     0.94262   0.16778   0.93760   0.00000  Uiso   1.00
H30    H     0.94285   0.41471   0.47969   0.00000  Uiso   1.00
H31    H     0.19038   0.22852   0.66446   0.00000  Uiso   1.00
H32    H     0.26784   0.12374   0.61469   0.00000  Uiso   1.00
H33    H     0.15918   0.22455   0.79832   0.00000  Uiso   1.00
H34    H     0.15929   0.34165   0.58117   0.00000  Uiso   1.00
H35    H     0.32976   0.00066   0.55835   0.00000  Uiso   1.00
H36    H     0.10064   0.21326   0.94552   0.00000  Uiso   1.00
H37    H     0.10088   0.46018   0.48762   0.00000  Uiso   1.00
O38    O     0.29837   0.90803   0.52150   0.00000  Uiso   1.00
O39    O     0.99777   0.18695   0.02946   0.00000  Uiso   1.00
O40    O     0.99808   0.51091   0.42869   0.00000  Uiso   1.00
N41    N     0.19829   0.98028   0.55910   0.00000  Uiso   1.00
N42    N     0.98409   0.17903   0.92109   0.00000  Uiso   1.00
N43    N     0.98430   0.40989   0.49300   0.00000  Uiso   1.00
N44    N     0.28333   0.00475   0.56337   0.00000  Uiso   1.00
N45    N     0.06912   0.20350   0.92535   0.00000  Uiso   1.00
N46    N     0.06933   0.43436   0.49727   0.00000  Uiso   1.00
C47    C     0.81261   0.97277   0.07113   0.00000  Uiso   1.00
C48    C     0.75898   0.03862   0.06616   0.00000  Uiso   1.00
C49    C     0.71841   0.06139   0.01822   0.00000  Uiso   1.00
C50    C     0.67241   0.12294   0.02223   0.00000  Uiso   1.00
C51    C     0.58993   0.21951   0.00687   0.00000  Uiso   1.00
C52    C     0.87339   0.99088   0.06495   0.00000  Uiso   1.00
C53    C     0.92902   0.97351   0.01599   0.00000  Uiso   1.00
C54    C     0.97934   0.99487   0.01900   0.00000  Uiso   1.00
C55    C     0.07452   0.01729   0.00178   0.00000  Uiso   1.00
C56    C     0.79894   0.93598   0.14559   0.00000  Uiso   1.00
C57    C     0.79198   0.87243   0.16443   0.00000  Uiso   1.00
C58    C     0.77963   0.84756   0.23532   0.00000  Uiso   1.00
C59    C     0.75920   0.78472   0.34330   0.00000  Uiso   1.00
C60    C     0.80307   0.04158   0.16352   0.00000  Uiso   1.00
C61    C     0.75379   0.07599   0.11635   0.00000  Uiso   1.00
C62    C     0.70784   0.13752   0.12044   0.00000  Uiso   1.00
C63    C     0.66721   0.16038   0.07251   0.00000  Uiso   1.00
C64    C     0.86821   0.02826   0.11513   0.00000  Uiso   1.00
C65    C     0.91846   0.04964   0.11821   0.00000  Uiso   1.00
C66    C     0.97415   0.03231   0.06927   0.00000  Uiso   1.00
C67    C     0.79375   0.97335   0.19577   0.00000  Uiso   1.00
C68    C     0.78141   0.94857   0.26664   0.00000  Uiso   1.00
C69    C     0.77444   0.88500   0.28559   0.00000  Uiso   1.00
H70    H     0.81666   0.94368   0.03206   0.00000  Uiso   1.00
H71    H     0.72244   0.03246   0.97939   0.00000  Uiso   1.00
H72    H     0.93302   0.94458   0.97717   0.00000  Uiso   1.00
H73    H     0.79600   0.84352   0.12558   0.00000  Uiso   1.00
H74    H     0.61571   0.14738   0.94311   0.00000  Uiso   1.00
H75    H     0.05975   0.96207   0.93844   0.00000  Uiso   1.00
H76    H     0.77080   0.74897   0.25140   0.00000  Uiso   1.00
H77    H     0.79903   0.07068   0.20259   0.00000  Uiso   1.00
H78    H     0.70384   0.16644   0.15928   0.00000  Uiso   1.00
H79    H     0.91443   0.07856   0.15705   0.00000  Uiso   1.00
H80    H     0.77740   0.97750   0.30546   0.00000  Uiso   1.00
H81    H     0.60062   0.25612   0.08911   0.00000  Uiso   1.00
H82    H     0.04466   0.07082   0.08444   0.00000  Uiso   1.00
H83    H     0.75571   0.85771   0.39739   0.00000  Uiso   1.00
O84    O     0.54588   0.26246   0.98452   0.00000  Uiso   1.00
O85    O     0.12844   0.01933   0.97841   0.00000  Uiso   1.00
O86    O     0.74935   0.73975   0.38900   0.00000  Uiso   1.00
N87    N     0.62521   0.15983   0.98342   0.00000  Uiso   1.00
N88    N     0.04036   0.98658   0.97905   0.00000  Uiso   1.00
N89    N     0.77024   0.78734   0.27164   0.00000  Uiso   1.00
N90    N     0.61709   0.21834   0.06198   0.00000  Uiso   1.00
N91    N     0.03224   0.04510   0.05761   0.00000  Uiso   1.00
N92    N     0.76212   0.84586   0.35020   0.00000  Uiso   1.00
C93    C     0.26136   0.57060   0.02499   0.00000  Uiso   1.00
C94    C     0.19331   0.57591   0.06460   0.00000  Uiso   1.00
C95    C     0.14412   0.57203   0.03797   0.00000  Uiso   1.00
C96    C     0.08532   0.57807   0.08255   0.00000  Uiso   1.00
C97    C     0.98104   0.58489   0.13358   0.00000  Uiso   1.00
C98    C     0.27412   0.63419   0.02900   0.00000  Uiso   1.00
C99    C     0.29287   0.67931   0.97244   0.00000  Uiso   1.00
C100   C     0.30210   0.73441   0.98706   0.00000  Uiso   1.00
C101   C     0.32333   0.83169   0.98283   0.00000  Uiso   1.00
C102   C     0.30505   0.51379   0.06807   0.00000  Uiso   1.00
C103   C     0.34982   0.45768   0.04435   0.00000  Uiso   1.00
C104   C     0.38511   0.41142   0.09185   0.00000  Uiso   1.00
C105   C     0.45435   0.32176   0.14828   0.00000  Uiso   1.00
C106   C     0.24442   0.58823   0.15150   0.00000  Uiso   1.00
C107   C     0.18411   0.58549   0.13331   0.00000  Uiso   1.00
C108   C     0.12537   0.59154   0.17795   0.00000  Uiso   1.00
C109   C     0.07610   0.58767   0.15139   0.00000  Uiso   1.00
C110   C     0.26491   0.64377   0.09772   0.00000  Uiso   1.00
C111   C     0.27413   0.69882   0.11242   0.00000  Uiso   1.00
C112   C     0.29288   0.74401   0.05590   0.00000  Uiso   1.00
C113   C     0.29584   0.52337   0.13678   0.00000  Uiso   1.00
C114   C     0.33107   0.47719   0.18433   0.00000  Uiso   1.00
C115   C     0.37589   0.42102   0.16069   0.00000  Uiso   1.00
H116   H     0.26853   0.56314   0.97149   0.00000  Uiso   1.00
H117   H     0.15125   0.56462   0.98478   0.00000  Uiso   1.00
H118   H     0.29999   0.67188   0.91927   0.00000  Uiso   1.00
H119   H     0.35693   0.45028   0.99117   0.00000  Uiso   1.00
H120   H     0.01717   0.57050   0.02983   0.00000  Uiso   1.00
H121   H     0.33082   0.79666   0.89168   0.00000  Uiso   1.00
H122   H     0.45088   0.32938   0.04330   0.00000  Uiso   1.00
H123   H     0.23726   0.59569   0.20501   0.00000  Uiso   1.00
H124   H     0.11826   0.59895   0.23112   0.00000  Uiso   1.00
H125   H     0.26700   0.70621   0.16560   0.00000  Uiso   1.00
H126   H     0.32394   0.48462   0.23750   0.00000  Uiso   1.00
H127   H     0.99039   0.59837   0.22976   0.00000  Uiso   1.00
H128   H     0.30404   0.82452   0.09161   0.00000  Uiso   1.00
H129   H     0.42410   0.35725   0.24323   0.00000  Uiso   1.00
O130   O     0.92607   0.58602   0.14275   0.00000  Uiso   1.00
O131   O     0.33757   0.88271   0.96151   0.00000  Uiso   1.00
O132   O     0.49508   0.26966   0.16042   0.00000  Uiso   1.00
N133   N     0.02720   0.57660   0.07330   0.00000  Uiso   1.00
N134   N     0.32043   0.78805   0.94414   0.00000  Uiso   1.00
N135   N     0.43269   0.35119   0.08588   0.00000  Uiso   1.00
N136   N     0.01279   0.59160   0.18088   0.00000  Uiso   1.00
N137   N     0.30602   0.80304   0.05173   0.00000  Uiso   1.00
N138   N     0.41829   0.36619   0.19347   0.00000  Uiso   1.00
C139   C     0.52298   0.16117   0.62480   0.00000  Uiso   1.00
C140   C     0.58660   0.14562   0.57393   0.00000  Uiso   1.00
C141   C     0.59451   0.14166   0.50423   0.00000  Uiso   1.00
C142   C     0.65661   0.12688   0.46644   0.00000  Uiso   1.00
C143   C     0.74744   0.10436   0.38275   0.00000  Uiso   1.00
C144   C     0.51913   0.22168   0.65357   0.00000  Uiso   1.00
C145   C     0.47030   0.28166   0.65082   0.00000  Uiso   1.00
C146   C     0.47561   0.33090   0.68009   0.00000  Uiso   1.00
C147   C     0.46166   0.42644   0.72007   0.00000  Uiso   1.00
C148   C     0.52916   0.10304   0.68587   0.00000  Uiso   1.00
C149   C     0.48876   0.06328   0.71031   0.00000  Uiso   1.00
C150   C     0.50250   0.01264   0.76678   0.00000  Uiso   1.00
C151   C     0.50413   0.92398   0.85692   0.00000  Uiso   1.00
C152   C     0.61921   0.14194   0.68165   0.00000  Uiso   1.00
C153   C     0.63887   0.13518   0.60481   0.00000  Uiso   1.00
C154   C     0.70098   0.12039   0.56713   0.00000  Uiso   1.00
C155   C     0.70898   0.11641   0.49738   0.00000  Uiso   1.00
C156   C     0.57139   0.21124   0.68444   0.00000  Uiso   1.00
C157   C     0.57677   0.26039   0.71372   0.00000  Uiso   1.00
C158   C     0.52797   0.32044   0.71102   0.00000  Uiso   1.00
C159   C     0.58143   0.09259   0.71675   0.00000  Uiso   1.00
C160   C     0.59523   0.04201   0.77320   0.00000  Uiso   1.00
C161   C     0.55486   0.00218   0.79772   0.00000  Uiso   1.00
H162   H     0.48229   0.16930   0.60077   0.00000  Uiso   1.00
H163   H     0.55405   0.14975   0.48035   0.00000  Uiso   1.00
H164   H     0.42986   0.28973   0.62693   0.00000  Uiso   1.00
H165   H     0.44832   0.07138   0.68640   0.00000  Uiso   1.00
H166   H     0.65666   0.12350   0.36046   0.00000  Uiso   1.00
H167   H     0.39478   0.41864   0.66955   0.00000  Uiso   1.00
H168   H     0.43370   0.95820   0.79496   0.00000  Uiso   1.00
H169   H     0.65990   0.13381   0.70570   0.00000  Uiso   1.00
H170   H     0.74141   0.11231   0.59103   0.00000  Uiso   1.00
H171   H     0.61722   0.25229   0.73762   0.00000  Uiso   1.00
H172   H     0.63568   0.03394   0.79709   0.00000  Uiso   1.00
H173   H     0.80873   0.09312   0.45029   0.00000  Uiso   1.00
H174   H     0.54685   0.38825   0.75939   0.00000  Uiso   1.00
H175   H     0.58577   0.92782   0.88480   0.00000  Uiso   1.00
O176   O     0.78311   0.09483   0.32805   0.00000  Uiso   1.00
O177   O     0.43953   0.48203   0.73358   0.00000  Uiso   1.00
O178   O     0.49060   0.87795   0.89811   0.00000  Uiso   1.00
N179   N     0.68126   0.11929   0.39734   0.00000  Uiso   1.00
N180   N     0.43643   0.39523   0.68631   0.00000  Uiso   1.00
N181   N     0.47281   0.96477   0.80357   0.00000  Uiso   1.00
N182   N     0.76309   0.10294   0.44568   0.00000  Uiso   1.00
N183   N     0.51826   0.37888   0.73465   0.00000  Uiso   1.00
N184   N     0.55464   0.94842   0.85191   0.00000  Uiso   1.00
C185   C     0.15688   0.68587   0.53721   0.00000  Uiso   1.00
C186   C     0.13666   0.64166   0.60483   0.00000  Uiso   1.00
C187   C     0.11629   0.58683   0.60991   0.00000  Uiso   1.00
C188   C     0.09991   0.55291   0.67655   0.00000  Uiso   1.00
C189   C     0.06795   0.48116   0.77251   0.00000  Uiso   1.00
C190   C     0.22442   0.68468   0.53782   0.00000  Uiso   1.00
C191   C     0.27783   0.66603   0.48655   0.00000  Uiso   1.00
C192   C     0.33532   0.66834   0.49677   0.00000  Uiso   1.00
C193   C     0.43961   0.66344   0.48866   0.00000  Uiso   1.00
C194   C     0.11446   0.75680   0.54389   0.00000  Uiso   1.00
C195   C     0.07543   0.79880   0.49771   0.00000  Uiso   1.00
C196   C     0.04036   0.86184   0.51303   0.00000  Uiso   1.00
C197   C     0.97392   0.96891   0.51436   0.00000  Uiso   1.00
C198   C     0.16402   0.72314   0.64651   0.00000  Uiso   1.00
C199   C     0.14054   0.66190   0.66420   0.00000  Uiso   1.00
C200   C     0.12419   0.62806   0.73085   0.00000  Uiso   1.00
C201   C     0.10379   0.57319   0.73602   0.00000  Uiso   1.00
C202   C     0.22830   0.70492   0.59718   0.00000  Uiso   1.00
C203   C     0.28573   0.70727   0.60748   0.00000  Uiso   1.00
C204   C     0.33921   0.68862   0.55624   0.00000  Uiso   1.00
C205   C     0.11834   0.77704   0.60326   0.00000  Uiso   1.00
C206   C     0.08333   0.84003   0.61865   0.00000  Uiso   1.00
C207   C     0.04425   0.88212   0.57251   0.00000  Uiso   1.00
H208   H     0.15387   0.67011   0.49099   0.00000  Uiso   1.00
H209   H     0.11330   0.57117   0.56396   0.00000  Uiso   1.00
H210   H     0.27481   0.65038   0.44061   0.00000  Uiso   1.00
H211   H     0.07244   0.78312   0.45178   0.00000  Uiso   1.00
H212   H     0.07006   0.47040   0.67103   0.00000  Uiso   1.00
H213   H     0.41061   0.63742   0.41094   0.00000  Uiso   1.00
H214   H     0.98388   0.91734   0.43448   0.00000  Uiso   1.00
H215   H     0.16704   0.73890   0.69274   0.00000  Uiso   1.00
H216   H     0.12719   0.64373   0.77678   0.00000  Uiso   1.00
H217   H     0.28871   0.72294   0.65343   0.00000  Uiso   1.00
H218   H     0.08634   0.85568   0.66460   0.00000  Uiso   1.00
H219   H     0.08133   0.52929   0.84377   0.00000  Uiso   1.00
H220   H     0.42189   0.69632   0.58367   0.00000  Uiso   1.00
H221   H     0.99515   0.97623   0.60722   0.00000  Uiso   1.00
O222   O     0.04927   0.43599   0.80904   0.00000  Uiso   1.00
O223   O     0.49606   0.65513   0.46780   0.00000  Uiso   1.00
O224   O     0.93619   0.02237   0.49869   0.00000  Uiso   1.00
N225   N     0.07817   0.49732   0.70015   0.00000  Uiso   1.00
N226   N     0.39657   0.65348   0.45698   0.00000  Uiso   1.00
N227   N     0.99762   0.91518   0.47899   0.00000  Uiso   1.00
N228   N     0.08423   0.52901   0.79310   0.00000  Uiso   1.00
N229   N     0.40264   0.68517   0.54993   0.00000  Uiso   1.00
N230   N     0.00369   0.94687   0.57193   0.00000  Uiso   1.00
C231   C     0.68231   0.46551   0.25649   0.00000  Uiso   1.00
C232   C     0.66073   0.51047   0.19043   0.00000  Uiso   1.00
C233   C     0.60784   0.51372   0.16543   0.00000  Uiso   1.00
C234   C     0.59618   0.55806   0.10409   0.00000  Uiso   1.00
C235   C     0.55659   0.62186   0.00686   0.00000  Uiso   1.00
C236   C     0.68524   0.51170   0.30114   0.00000  Uiso   1.00
C237   C     0.65295   0.51596   0.36923   0.00000  Uiso   1.00
C238   C     0.66192   0.56133   0.40109   0.00000  Uiso   1.00
C239   C     0.66042   0.62700   0.47576   0.00000  Uiso   1.00
C240   C     0.75124   0.42438   0.23373   0.00000  Uiso   1.00
C241   C     0.77445   0.35523   0.24516   0.00000  Uiso   1.00
C242   C     0.83900   0.32708   0.22028   0.00000  Uiso   1.00
C243   C     0.93997   0.25718   0.19029   0.00000  Uiso   1.00
C244   C     0.75567   0.53849   0.19203   0.00000  Uiso   1.00
C245   C     0.70058   0.55011   0.15542   0.00000  Uiso   1.00
C246   C     0.68900   0.59446   0.09410   0.00000  Uiso   1.00
C247   C     0.63609   0.59776   0.06901   0.00000  Uiso   1.00
C248   C     0.72508   0.55134   0.26613   0.00000  Uiso   1.00
C249   C     0.73411   0.59670   0.29791   0.00000  Uiso   1.00
C250   C     0.70184   0.60104   0.36602   0.00000  Uiso   1.00
C251   C     0.79108   0.46402   0.19872   0.00000  Uiso   1.00
C252   C     0.85561   0.43597   0.17383   0.00000  Uiso   1.00
C253   C     0.87892   0.36679   0.18521   0.00000  Uiso   1.00
H254   H     0.65129   0.43466   0.28376   0.00000  Uiso   1.00
H255   H     0.57701   0.48304   0.19254   0.00000  Uiso   1.00
H256   H     0.62212   0.48528   0.39631   0.00000  Uiso   1.00
H257   H     0.74360   0.32457   0.27225   0.00000  Uiso   1.00
H258   H     0.51221   0.55418   0.07599   0.00000  Uiso   1.00
H259   H     0.60735   0.55888   0.50565   0.00000  Uiso   1.00
H260   H     0.86352   0.22000   0.24406   0.00000  Uiso   1.00
H261   H     0.78669   0.56935   0.16477   0.00000  Uiso   1.00
H262   H     0.71984   0.62513   0.06702   0.00000  Uiso   1.00
H263   H     0.76495   0.62737   0.27080   0.00000  Uiso   1.00
H264   H     0.88643   0.46666   0.14674   0.00000  Uiso   1.00
H265   H     0.62813   0.66950   0.97411   0.00000  Uiso   1.00
H266   H     0.72327   0.67421   0.40378   0.00000  Uiso   1.00
H267   H     0.97944   0.33533   0.14218   0.00000  Uiso   1.00
O268   O     0.52374   0.64612   0.96291   0.00000  Uiso   1.00
O269   O     0.64857   0.65228   0.52662   0.00000  Uiso   1.00
O270   O     0.98465   0.20768   0.18340   0.00000  Uiso   1.00
N271   N     0.54868   0.57366   0.06542   0.00000  Uiso   1.00
N272   N     0.63762   0.57806   0.46713   0.00000  Uiso   1.00
N273   N     0.87712   0.26124   0.22257   0.00000  Uiso   1.00
N274   N     0.61105   0.63571   0.01060   0.00000  Uiso   1.00
N275   N     0.69999   0.64012   0.41231   0.00000  Uiso   1.00
N276   N     0.93949   0.32329   0.16775   0.00000  Uiso   1.00
C277   C     0.11124   0.82511   0.20813   0.00000  Uiso   1.00
C278   C     0.05804   0.88338   0.23626   0.00000  Uiso   1.00
C279   C     0.06645   0.93815   0.25250   0.00000  Uiso   1.00
C280   C     0.01170   0.98612   0.27755   0.00000  Uiso   1.00
C281   C     0.93836   0.07762   0.31991   0.00000  Uiso   1.00
C282   C     0.09590   0.82123   0.13998   0.00000  Uiso   1.00
C283   C     0.13616   0.82375   0.07527   0.00000  Uiso   1.00
C284   C     0.11328   0.81940   0.01928   0.00000  Uiso   1.00
C285   C     0.09874   0.81436   0.91217   0.00000  Uiso   1.00
C286   C     0.10289   0.76237   0.25887   0.00000  Uiso   1.00
C287   C     0.14902   0.71538   0.29410   0.00000  Uiso   1.00
C288   C     0.13203   0.66145   0.33819   0.00000  Uiso   1.00
C289   C     0.12834   0.56502   0.41566   0.00000  Uiso   1.00
C290   C     0.99904   0.81289   0.22377   0.00000  Uiso   1.00
C291   C     0.99709   0.87674   0.24475   0.00000  Uiso   1.00
C292   C     0.94231   0.92464   0.26980   0.00000  Uiso   1.00
C293   C     0.95065   0.97947   0.28607   0.00000  Uiso   1.00
C294   C     0.03496   0.81459   0.14847   0.00000  Uiso   1.00
C295   C     0.01202   0.81023   0.09257   0.00000  Uiso   1.00
C296   C     0.05222   0.81275   0.02779   0.00000  Uiso   1.00
C297   C     0.04194   0.75573   0.26736   0.00000  Uiso   1.00
C298   C     0.02488   0.70186   0.31140   0.00000  Uiso   1.00
C299   C     0.07097   0.65480   0.34670   0.00000  Uiso   1.00
H300   H     0.15868   0.83028   0.20152   0.00000  Uiso   1.00
H301   H     0.11362   0.94328   0.24591   0.00000  Uiso   1.00
H302   H     0.18332   0.82888   0.06872   0.00000  Uiso   1.00
H303   H     0.19617   0.72053   0.28751   0.00000  Uiso   1.00
H304   H     0.03679   0.06564   0.29885   0.00000  Uiso   1.00
H305   H     0.18375   0.82440   0.92523   0.00000  Uiso   1.00
H306   H     0.21086   0.59592   0.38660   0.00000  Uiso   1.00
H307   H     0.95159   0.80773   0.23038   0.00000  Uiso   1.00
H308   H     0.89516   0.91949   0.27636   0.00000  Uiso   1.00
H309   H     0.96486   0.80509   0.09916   0.00000  Uiso   1.00
H310   H     0.97771   0.69674   0.31796   0.00000  Uiso   1.00
H311   H     0.85947   0.04633   0.32356   0.00000  Uiso   1.00
H312   H     0.00644   0.80509   0.94994   0.00000  Uiso   1.00
H313   H     0.03355   0.57661   0.41131   0.00000  Uiso   1.00
O314   O     0.91474   0.12992   0.34091   0.00000  Uiso   1.00
O315   O     0.10756   0.81342   0.85074   0.00000  Uiso   1.00
O316   O     0.14313   0.51366   0.45605   0.00000  Uiso   1.00
N317   N     0.00280   0.04575   0.29837   0.00000  Uiso   1.00
N318   N     0.14020   0.82022   0.94905   0.00000  Uiso   1.00
N319   N     0.16555   0.60660   0.38038   0.00000  Uiso   1.00
N320   N     0.90739   0.03536   0.31167   0.00000  Uiso   1.00
N321   N     0.04479   0.80983   0.96235   0.00000  Uiso   1.00
N322   N     0.07014   0.59621   0.39368   0.00000  Uiso   1.00
C323   C     0.40237   0.84454   0.76220   0.00000  Uiso   1.00
C324   C     0.41481   0.76914   0.77635   0.00000  Uiso   1.00
C325   C     0.44369   0.72458   0.82961   0.00000  Uiso   1.00
C326   C     0.45070   0.65758   0.83378   0.00000  Uiso   1.00
C327   C     0.47319   0.54379   0.86300   0.00000  Uiso   1.00
C328   C     0.33073   0.87521   0.76352   0.00000  Uiso   1.00
C329   C     0.28892   0.91985   0.80598   0.00000  Uiso   1.00
C330   C     0.22515   0.94214   0.79934   0.00000  Uiso   1.00
C331   C     0.11712   0.99307   0.80859   0.00000  Uiso   1.00
C332   C     0.43490   0.86201   0.68690   0.00000  Uiso   1.00
C333   C     0.48068   0.89557   0.66493   0.00000  Uiso   1.00
C334   C     0.50460   0.90676   0.59378   0.00000  Uiso   1.00
C335   C     0.55832   0.93720   0.48408   0.00000  Uiso   1.00
C336   C     0.36346   0.80477   0.67490   0.00000  Uiso   1.00
C337   C     0.39367   0.74754   0.72894   0.00000  Uiso   1.00
C338   C     0.40064   0.68058   0.73303   0.00000  Uiso   1.00
C339   C     0.42952   0.63593   0.78628   0.00000  Uiso   1.00
C340   C     0.30959   0.85361   0.71611   0.00000  Uiso   1.00
C341   C     0.24587   0.87584   0.70940   0.00000  Uiso   1.00
C342   C     0.20397   0.92050   0.75184   0.00000  Uiso   1.00
C343   C     0.41377   0.84041   0.63948   0.00000  Uiso   1.00
C344   C     0.43762   0.85156   0.56835   0.00000  Uiso   1.00
C345   C     0.48343   0.88512   0.54628   0.00000  Uiso   1.00
H346   H     0.41882   0.86136   0.79911   0.00000  Uiso   1.00
H347   H     0.46004   0.74132   0.86630   0.00000  Uiso   1.00
H348   H     0.30529   0.93656   0.84266   0.00000  Uiso   1.00
H349   H     0.49702   0.91228   0.70164   0.00000  Uiso   1.00
H350   H     0.49638   0.59871   0.91989   0.00000  Uiso   1.00
H351   H     0.17011   0.01040   0.87004   0.00000  Uiso   1.00
H352   H     0.57440   0.95921   0.57267   0.00000  Uiso   1.00
H353   H     0.34700   0.78795   0.63798   0.00000  Uiso   1.00
H354   H     0.38428   0.66387   0.69633   0.00000  Uiso   1.00
H355   H     0.22953   0.85912   0.67270   0.00000  Uiso   1.00
H356   H     0.42126   0.83483   0.53167   0.00000  Uiso   1.00
H357   H     0.43489   0.53585   0.78194   0.00000  Uiso   1.00
H358   H     0.10861   0.94755   0.73209   0.00000  Uiso   1.00
H359   H     0.51290   0.89635   0.43472   0.00000  Uiso   1.00
O360   O     0.49143   0.48699   0.89222   0.00000  Uiso   1.00
O361   O     0.06337   0.02712   0.82681   0.00000  Uiso   1.00
O362   O     0.59379   0.95995   0.43666   0.00000  Uiso   1.00
N363   N     0.47681   0.60094   0.87941   0.00000  Uiso   1.00
N364   N     0.17175   0.98584   0.83281   0.00000  Uiso   1.00
N365   N     0.54972   0.93799   0.55479   0.00000  Uiso   1.00
N366   N     0.44372   0.56712   0.80518   0.00000  Uiso   1.00
N367   N     0.13867   0.95202   0.75858   0.00000  Uiso   1.00
N368   N     0.51663   0.90417   0.48056   0.00000  Uiso   1.00
C369   C     0.81305   0.27164   0.90733   0.00000  Uiso   1.00
C370   C     0.83990   0.31611   0.84411   0.00000  Uiso   1.00
C371   C     0.89541   0.33306   0.83590   0.00000  Uiso   1.00
C372   C     0.91184   0.37431   0.77424   0.00000  Uiso   1.00
C373   C     0.95929   0.43977   0.68391   0.00000  Uiso   1.00
C374   C     0.80652   0.21539   0.87929   0.00000  Uiso   1.00
C375   C     0.83397   0.14766   0.90066   0.00000  Uiso   1.00
C376   C     0.82230   0.10413   0.86862   0.00000  Uiso   1.00
C377   C     0.81789   0.01321   0.83293   0.00000  Uiso   1.00
C378   C     0.74508   0.31298   0.93356   0.00000  Uiso   1.00
C379   C     0.72087   0.32729   0.00058   0.00000  Uiso   1.00
C380   C     0.65746   0.36591   0.01424   0.00000  Uiso   1.00
C381   C     0.55766   0.42651   0.06282   0.00000  Uiso   1.00
C382   C     0.74351   0.31477   0.81244   0.00000  Uiso   1.00
C383   C     0.80212   0.33953   0.79257   0.00000  Uiso   1.00
C384   C     0.81847   0.38077   0.73092   0.00000  Uiso   1.00
C385   C     0.87400   0.39778   0.72261   0.00000  Uiso   1.00
C386   C     0.76875   0.23881   0.82775   0.00000  Uiso   1.00
C387   C     0.75703   0.19537   0.79568   0.00000  Uiso   1.00
C388   C     0.78446   0.12759   0.81699   0.00000  Uiso   1.00
C389   C     0.70731   0.33640   0.88202   0.00000  Uiso   1.00
C390   C     0.64393   0.37500   0.89559   0.00000  Uiso   1.00
C391   C     0.61962   0.38937   0.96261   0.00000  Uiso   1.00
H392   H     0.84246   0.25340   0.94745   0.00000  Uiso   1.00
H393   H     0.92464   0.31492   0.87579   0.00000  Uiso   1.00
H394   H     0.86319   0.12955   0.94055   0.00000  Uiso   1.00
H395   H     0.75011   0.30915   0.04044   0.00000  Uiso   1.00
H396   H     0.99910   0.39343   0.77360   0.00000  Uiso   1.00
H397   H     0.86953   0.00256   0.91016   0.00000  Uiso   1.00
H398   H     0.63107   0.38129   0.12082   0.00000  Uiso   1.00
H399   H     0.71410   0.33300   0.77232   0.00000  Uiso   1.00
H400   H     0.78923   0.39889   0.69104   0.00000  Uiso   1.00
H401   H     0.72779   0.21351   0.75580   0.00000  Uiso   1.00
H402   H     0.61471   0.39312   0.85569   0.00000  Uiso   1.00
H403   H     0.88920   0.46158   0.62365   0.00000  Uiso   1.00
H404   H     0.75963   0.07071   0.76021   0.00000  Uiso   1.00
H405   H     0.52117   0.44944   0.97086   0.00000  Uiso   1.00
O406   O     0.99590   0.46939   0.64831   0.00000  Uiso   1.00
O407   O     0.82590   0.95659   0.82748   0.00000  Uiso   1.00
O408   O     0.51305   0.45348   0.10385   0.00000  Uiso   1.00
N409   N     0.96291   0.40044   0.74947   0.00000  Uiso   1.00
N410   N     0.84178   0.03500   0.87714   0.00000  Uiso   1.00
N411   N     0.61884   0.38906   0.07409   0.00000  Uiso   1.00
N412   N     0.90378   0.43711   0.66878   0.00000  Uiso   1.00
N413   N     0.78265   0.07167   0.79645   0.00000  Uiso   1.00
N414   N     0.55971   0.42574   0.99340   0.00000  Uiso   1.00
C415   C     0.46358   0.73001   0.28747   0.00000  Uiso   1.00
C416   C     0.39379   0.76945   0.30901   0.00000  Uiso   1.00
C417   C     0.36862   0.80080   0.36691   0.00000  Uiso   1.00
C418   C     0.30358   0.83433   0.37758   0.00000  Uiso   1.00
C419   C     0.20106   0.89524   0.41797   0.00000  Uiso   1.00
C420   C     0.46334   0.66084   0.28288   0.00000  Uiso   1.00
C421   C     0.49665   0.60087   0.31880   0.00000  Uiso   1.00
C422   C     0.49017   0.54298   0.30747   0.00000  Uiso   1.00
C423   C     0.49567   0.43526   0.30727   0.00000  Uiso   1.00
C424   C     0.48513   0.76234   0.21297   0.00000  Uiso   1.00
C425   C     0.53677   0.78770   0.19011   0.00000  Uiso   1.00
C426   C     0.54863   0.81525   0.11992   0.00000  Uiso   1.00
C427   C     0.58795   0.86512   0.01118   0.00000  Uiso   1.00
C428   C     0.39284   0.73383   0.20347   0.00000  Uiso   1.00
C429   C     0.35537   0.77153   0.26338   0.00000  Uiso   1.00
C430   C     0.29036   0.80503   0.27396   0.00000  Uiso   1.00
C431   C     0.26509   0.83642   0.33187   0.00000  Uiso   1.00
C432   C     0.42492   0.66292   0.23725   0.00000  Uiso   1.00
C433   C     0.41839   0.60510   0.22586   0.00000  Uiso   1.00
C434   C     0.45168   0.54506   0.26176   0.00000  Uiso   1.00
C435   C     0.44670   0.76442   0.16734   0.00000  Uiso   1.00
C436   C     0.45850   0.79193   0.09717   0.00000  Uiso   1.00
C437   C     0.51015   0.81733   0.07421   0.00000  Uiso   1.00
H438   H     0.49349   0.72838   0.32300   0.00000  Uiso   1.00
H439   H     0.39837   0.79917   0.40221   0.00000  Uiso   1.00
H440   H     0.52639   0.59928   0.35411   0.00000  Uiso   1.00
H441   H     0.56649   0.78608   0.22544   0.00000  Uiso   1.00
H442   H     0.27596   0.87855   0.46992   0.00000  Uiso   1.00
H443   H     0.54591   0.45706   0.36848   0.00000  Uiso   1.00
H444   H     0.63047   0.85096   0.09716   0.00000  Uiso   1.00
H445   H     0.36293   0.73545   0.16794   0.00000  Uiso   1.00
H446   H     0.26064   0.80663   0.23864   0.00000  Uiso   1.00
H447   H     0.38866   0.60673   0.19054   0.00000  Uiso   1.00
H448   H     0.42876   0.79353   0.06188   0.00000  Uiso   1.00
H449   H     0.16417   0.88460   0.33717   0.00000  Uiso   1.00
H450   H     0.43413   0.46311   0.23572   0.00000  Uiso   1.00
H451   H     0.51869   0.85701   0.96440   0.00000  Uiso   1.00
O452   O     0.15512   0.92825   0.45287   0.00000  Uiso   1.00
O453   O     0.50930   0.37527   0.31976   0.00000  Uiso   1.00
O454   O     0.62024   0.89207   0.96380   0.00000  Uiso   1.00
N455   N     0.26369   0.87021   0.42897   0.00000  Uiso   1.00
N456   N     0.51607   0.47615   0.33413   0.00000  Uiso   1.00
N457   N     0.59514   0.84440   0.08047   0.00000  Uiso   1.00
N458   N     0.20354   0.87347   0.35753   0.00000  Uiso   1.00
N459   N     0.45592   0.47940   0.26270   0.00000  Uiso   1.00
N460   N     0.53499   0.84765   0.00903   0.00000  Uiso   1.00
C461   C     0.75635   0.37845   0.54674   0.00000  Uiso   1.00
C462   C     0.79203   0.41648   0.48488   0.00000  Uiso   1.00
C463   C     0.80759   0.47294   0.48556   0.00000  Uiso   1.00
C464   C     0.84032   0.50037   0.42360   0.00000  Uiso   1.00
C465   C     0.89318   0.56371   0.33673   0.00000  Uiso   1.00
C466   C     0.69829   0.37688   0.52277   0.00000  Uiso   1.00
C467   C     0.63503   0.40005   0.55533   0.00000  Uiso   1.00
C468   C     0.58885   0.39414   0.52527   0.00000  Uiso   1.00
C469   C     0.49617   0.39596   0.49726   0.00000  Uiso   1.00
C470   C     0.79960   0.30657   0.55632   0.00000  Uiso   1.00
C471   C     0.82153   0.27061   0.61708   0.00000  Uiso   1.00
C472   C     0.86064   0.20550   0.61527   0.00000  Uiso   1.00
C473   C     0.92527   0.09815   0.63935   0.00000  Uiso   1.00
C474   C     0.78681   0.32675   0.43548   0.00000  Uiso   1.00
C475   C     0.80857   0.38840   0.42444   0.00000  Uiso   1.00
C476   C     0.84129   0.41574   0.36247   0.00000  Uiso   1.00
C477   C     0.85690   0.47224   0.36306   0.00000  Uiso   1.00
C478   C     0.71483   0.34880   0.46234   0.00000  Uiso   1.00
C479   C     0.66873   0.34285   0.43223   0.00000  Uiso   1.00
C480   C     0.60543   0.36601   0.46473   0.00000  Uiso   1.00
C481   C     0.81615   0.27849   0.49589   0.00000  Uiso   1.00
C482   C     0.85523   0.21341   0.49398   0.00000  Uiso   1.00
C483   C     0.87721   0.17736   0.55473   0.00000  Uiso   1.00
H484   H     0.74346   0.40032   0.59378   0.00000  Uiso   1.00
H485   H     0.79477   0.49466   0.53234   0.00000  Uiso   1.00
H486   H     0.62224   0.42177   0.60209   0.00000  Uiso   1.00
H487   H     0.80871   0.29236   0.66383   0.00000  Uiso   1.00
H488   H     0.85893   0.58690   0.43755   0.00000  Uiso   1.00
H489   H     0.49515   0.43318   0.58465   0.00000  Uiso   1.00
H490   H     0.88835   0.16029   0.71485   0.00000  Uiso   1.00
H491   H     0.79969   0.30489   0.38843   0.00000  Uiso   1.00
H492   H     0.85409   0.39400   0.31571   0.00000  Uiso   1.00
H493   H     0.68155   0.32111   0.38547   0.00000  Uiso   1.00
H494   H     0.86802   0.19170   0.44721   0.00000  Uiso   1.00
H495   H     0.90707   0.50520   0.26173   0.00000  Uiso   1.00
H496   H     0.54328   0.35148   0.40884   0.00000  Uiso   1.00
H497   H     0.93649   0.07859   0.53903   0.00000  Uiso   1.00
O498   O     0.91775   0.60640   0.30550   0.00000  Uiso   1.00
O499   O     0.44048   0.40473   0.49851   0.00000  Uiso   1.00
O500   O     0.95636   0.04669   0.66932   0.00000  Uiso   1.00
N501   N     0.86281   0.55543   0.40615   0.00000  Uiso   1.00
N502   N     0.52269   0.41173   0.54368   0.00000  Uiso   1.00
N503   N     0.89029   0.15659   0.66541   0.00000  Uiso   1.00
N504   N     0.88871   0.51147   0.31155   0.00000  Uiso   1.00
N505   N     0.54859   0.36777   0.44907   0.00000  Uiso   1.00
N506   N     0.91619   0.11262   0.57080   0.00000  Uiso   1.00
C507   C     0.29500   0.40427   0.83037   0.00000  Uiso   1.00
C508   C     0.34688   0.33737   0.83906   0.00000  Uiso   1.00
C509   C     0.40395   0.32591   0.86032   0.00000  Uiso   1.00
C510   C     0.44511   0.26120   0.86500   0.00000  Uiso   1.00
C511   C     0.52802   0.16514   0.88089   0.00000  Uiso   1.00
C512   C     0.28500   0.41796   0.75536   0.00000  Uiso   1.00
C513   C     0.29002   0.47427   0.70625   0.00000  Uiso   1.00
C514   C     0.27908   0.47740   0.64048   0.00000  Uiso   1.00
C515   C     0.26587   0.50649   0.52644   0.00000  Uiso   1.00
C516   C     0.23368   0.39267   0.87648   0.00000  Uiso   1.00
C517   C     0.19555   0.42773   0.92921   0.00000  Uiso   1.00
C518   C     0.14140   0.40958   0.96541   0.00000  Uiso   1.00
C519   C     0.04852   0.39941   0.03943   0.00000  Uiso   1.00
C520   C     0.26662   0.30971   0.80089   0.00000  Uiso   1.00
C521   C     0.33146   0.28601   0.82304   0.00000  Uiso   1.00
C522   C     0.37254   0.22129   0.82770   0.00000  Uiso   1.00
C523   C     0.42966   0.20974   0.84896   0.00000  Uiso   1.00
C524   C     0.26958   0.36660   0.73934   0.00000  Uiso   1.00
C525   C     0.25862   0.36965   0.67363   0.00000  Uiso   1.00
C526   C     0.26363   0.42595   0.62444   0.00000  Uiso   1.00
C527   C     0.21826   0.34131   0.86047   0.00000  Uiso   1.00
C528   C     0.16415   0.32311   0.89659   0.00000  Uiso   1.00
C529   C     0.12595   0.35813   0.94936   0.00000  Uiso   1.00
H530   H     0.30701   0.44426   0.84283   0.00000  Uiso   1.00
H531   H     0.41587   0.36567   0.87270   0.00000  Uiso   1.00
H532   H     0.30195   0.51401   0.71866   0.00000  Uiso   1.00
H533   H     0.20750   0.46747   0.94158   0.00000  Uiso   1.00
H534   H     0.52977   0.25591   0.89872   0.00000  Uiso   1.00
H535   H     0.28955   0.56870   0.57393   0.00000  Uiso   1.00
H536   H     0.09038   0.47057   0.04401   0.00000  Uiso   1.00
H537   H     0.25461   0.26972   0.78842   0.00000  Uiso   1.00
H538   H     0.36060   0.18155   0.81531   0.00000  Uiso   1.00
H539   H     0.24668   0.32990   0.66126   0.00000  Uiso   1.00
H540   H     0.15224   0.28336   0.88419   0.00000  Uiso   1.00
H541   H     0.48491   0.10647   0.85214   0.00000  Uiso   1.00
H542   H     0.24469   0.41926   0.52734   0.00000  Uiso   1.00
H543   H     0.04553   0.32113   0.99742   0.00000  Uiso   1.00
O544   O     0.57802   0.12634   0.89407   0.00000  Uiso   1.00
O545   O     0.26285   0.53672   0.46796   0.00000  Uiso   1.00
O546   O     0.00155   0.40797   0.08470   0.00000  Uiso   1.00
N547   N     0.50466   0.23283   0.88408   0.00000  Uiso   1.00
N548   N     0.28008   0.52527   0.58042   0.00000  Uiso   1.00
N549   N     0.09387   0.43354   0.01989   0.00000  Uiso   1.00
N550   N     0.48052   0.15242   0.85902   0.00000  Uiso   1.00
N551   N     0.25594   0.44486   0.55535   0.00000  Uiso   1.00
N552   N     0.06973   0.35313   0.99482   0.00000  Uiso   1.00
