data_job_01428
_audit_creation_date              2018-12-19
_audit_creation_method            'Materials Studio'
_symmetry_space_group_name_H-M    'P1'
_symmetry_Int_Tables_number       1
_symmetry_cell_setting            triclinic
loop_
_symmetry_equiv_pos_as_xyz
  x,y,z
_cell_length_a                    12.5131
_cell_length_b                    12.5131
_cell_length_c                    17.1142
_cell_angle_alpha                 90.0000
_cell_angle_beta                  90.0000
_cell_angle_gamma                 90.0000
loop_
_atom_site_label
_atom_site_type_symbol
_atom_site_fract_x
_atom_site_fract_y
_atom_site_fract_z
_atom_site_U_iso_or_equiv
_atom_site_adp_type
_atom_site_occupancy
C1     C     0.46847   0.85691   0.47770   0.00000  Uiso   1.00
C2     C     0.49145   0.96107   0.43460   0.00000  Uiso   1.00
C3     C     0.58383   0.02173   0.44139   0.00000  Uiso   1.00
C4     C     0.58947   0.11448   0.39706   0.00000  Uiso   1.00
C5     C     0.63787   0.27154   0.33767   0.00000  Uiso   1.00
C6     C     0.36383   0.87453   0.52152   0.00000  Uiso   1.00
C7     C     0.34892   0.86241   0.60139   0.00000  Uiso   1.00
C8     C     0.24712   0.88229   0.63021   0.00000  Uiso   1.00
C9     C     0.09738   0.90492   0.70576   0.00000  Uiso   1.00
C10    C     0.44441   0.77410   0.41475   0.00000  Uiso   1.00
C11    C     0.49723   0.67751   0.40485   0.00000  Uiso   1.00
C12    C     0.46326   0.61283   0.34379   0.00000  Uiso   1.00
C13    C     0.43863   0.47952   0.25356   0.00000  Uiso   1.00
C14    C     0.31421   0.91376   0.38688   0.00000  Uiso   1.00
C15    C     0.40766   0.99195   0.38528   0.00000  Uiso   1.00
C16    C     0.41316   0.08462   0.34091   0.00000  Uiso   1.00
C17    C     0.50554   0.14541   0.34764   0.00000  Uiso   1.00
C18    C     0.28005   0.90541   0.47220   0.00000  Uiso   1.00
C19    C     0.17825   0.92530   0.50091   0.00000  Uiso   1.00
C20    C     0.16318   0.91322   0.58080   0.00000  Uiso   1.00
C21    C     0.36063   0.80497   0.36542   0.00000  Uiso   1.00
C22    C     0.32656   0.74041   0.30437   0.00000  Uiso   1.00
C23    C     0.37932   0.64376   0.29438   0.00000  Uiso   1.00
H24    H     0.53370   0.83287   0.51611   0.00000  Uiso   1.00
H25    H     0.64865   0.99782   0.47958   0.00000  Uiso   1.00
H26    H     0.41377   0.83851   0.63954   0.00000  Uiso   1.00
H27    H     0.56206   0.65365   0.44303   0.00000  Uiso   1.00
H28    H     0.73913   0.19432   0.41735   0.00000  Uiso   1.00
H29    H     0.24387   0.85837   0.75464   0.00000  Uiso   1.00
H30    H     0.55657   0.46856   0.34026   0.00000  Uiso   1.00
H31    H     0.24897   0.93780   0.34848   0.00000  Uiso   1.00
H32    H     0.34831   0.10850   0.30275   0.00000  Uiso   1.00
H33    H     0.11343   0.94919   0.46272   0.00000  Uiso   1.00
H34    H     0.26172   0.76433   0.26621   0.00000  Uiso   1.00
H35    H     0.49536   0.28416   0.27383   0.00000  Uiso   1.00
H36    H     0.00009   0.94820   0.61112   0.00000  Uiso   1.00
H37    H     0.31279   0.55839   0.19674   0.00000  Uiso   1.00
O38    O     0.68771   0.34965   0.31855   0.00000  Uiso   1.00
O39    O     0.03794   0.90888   0.76106   0.00000  Uiso   1.00
O40    O     0.44820   0.39746   0.21741   0.00000  Uiso   1.00
N41    N     0.66814   0.19202   0.38983   0.00000  Uiso   1.00
N42    N     0.20510   0.87795   0.70518   0.00000  Uiso   1.00
N43    N     0.49743   0.51349   0.31779   0.00000  Uiso   1.00
N44    N     0.53697   0.24036   0.31261   0.00000  Uiso   1.00
N45    N     0.07392   0.92629   0.62796   0.00000  Uiso   1.00
N46    N     0.36626   0.56183   0.24056   0.00000  Uiso   1.00
C47    C     0.53153   0.14309   0.97770   0.00000  Uiso   1.00
C48    C     0.50855   0.03893   0.93460   0.00000  Uiso   1.00
C49    C     0.41617   0.97827   0.94139   0.00000  Uiso   1.00
C50    C     0.41053   0.88552   0.89706   0.00000  Uiso   1.00
C51    C     0.36213   0.72846   0.83767   0.00000  Uiso   1.00
C52    C     0.63617   0.12547   0.02152   0.00000  Uiso   1.00
C53    C     0.65108   0.13759   0.10139   0.00000  Uiso   1.00
C54    C     0.75288   0.11771   0.13021   0.00000  Uiso   1.00
C55    C     0.90262   0.09508   0.20576   0.00000  Uiso   1.00
C56    C     0.55559   0.22590   0.91475   0.00000  Uiso   1.00
C57    C     0.50277   0.32249   0.90485   0.00000  Uiso   1.00
C58    C     0.53674   0.38717   0.84379   0.00000  Uiso   1.00
C59    C     0.56137   0.52048   0.75356   0.00000  Uiso   1.00
C60    C     0.68579   0.08624   0.88688   0.00000  Uiso   1.00
C61    C     0.59234   0.00805   0.88528   0.00000  Uiso   1.00
C62    C     0.58684   0.91538   0.84091   0.00000  Uiso   1.00
C63    C     0.49446   0.85459   0.84764   0.00000  Uiso   1.00
C64    C     0.71995   0.09459   0.97220   0.00000  Uiso   1.00
C65    C     0.82175   0.07470   0.00091   0.00000  Uiso   1.00
C66    C     0.83682   0.08678   0.08080   0.00000  Uiso   1.00
C67    C     0.63937   0.19503   0.86542   0.00000  Uiso   1.00
C68    C     0.67344   0.25959   0.80437   0.00000  Uiso   1.00
C69    C     0.62068   0.35624   0.79438   0.00000  Uiso   1.00
H70    H     0.46630   0.16713   0.01611   0.00000  Uiso   1.00
H71    H     0.35135   0.00218   0.97958   0.00000  Uiso   1.00
H72    H     0.58623   0.16149   0.13954   0.00000  Uiso   1.00
H73    H     0.43794   0.34635   0.94303   0.00000  Uiso   1.00
H74    H     0.26087   0.80568   0.91735   0.00000  Uiso   1.00
H75    H     0.75613   0.14163   0.25464   0.00000  Uiso   1.00
H76    H     0.44343   0.53144   0.84026   0.00000  Uiso   1.00
H77    H     0.75103   0.06220   0.84848   0.00000  Uiso   1.00
H78    H     0.65169   0.89150   0.80275   0.00000  Uiso   1.00
H79    H     0.88657   0.05081   0.96272   0.00000  Uiso   1.00
H80    H     0.73828   0.23567   0.76621   0.00000  Uiso   1.00
H81    H     0.50464   0.71584   0.77383   0.00000  Uiso   1.00
H82    H     0.99991   0.05180   0.11112   0.00000  Uiso   1.00
H83    H     0.68721   0.44161   0.69674   0.00000  Uiso   1.00
O84    O     0.31229   0.65035   0.81855   0.00000  Uiso   1.00
O85    O     0.96206   0.09112   0.26106   0.00000  Uiso   1.00
O86    O     0.55180   0.60254   0.71741   0.00000  Uiso   1.00
N87    N     0.33186   0.80798   0.88983   0.00000  Uiso   1.00
N88    N     0.79490   0.12205   0.20518   0.00000  Uiso   1.00
N89    N     0.50257   0.48651   0.81779   0.00000  Uiso   1.00
N90    N     0.46303   0.75964   0.81261   0.00000  Uiso   1.00
N91    N     0.92608   0.07371   0.12796   0.00000  Uiso   1.00
N92    N     0.63374   0.43817   0.74056   0.00000  Uiso   1.00
C93    C     0.14309   0.46847   0.72770   0.00000  Uiso   1.00
C94    C     0.03893   0.49145   0.68460   0.00000  Uiso   1.00
C95    C     0.97827   0.58383   0.69139   0.00000  Uiso   1.00
C96    C     0.88552   0.58947   0.64706   0.00000  Uiso   1.00
C97    C     0.72846   0.63787   0.58767   0.00000  Uiso   1.00
C98    C     0.12547   0.36383   0.77152   0.00000  Uiso   1.00
C99    C     0.13759   0.34892   0.85139   0.00000  Uiso   1.00
C100   C     0.11771   0.24712   0.88021   0.00000  Uiso   1.00
C101   C     0.09508   0.09738   0.95576   0.00000  Uiso   1.00
C102   C     0.22590   0.44441   0.66475   0.00000  Uiso   1.00
C103   C     0.32249   0.49723   0.65485   0.00000  Uiso   1.00
C104   C     0.38717   0.46326   0.59379   0.00000  Uiso   1.00
C105   C     0.52048   0.43863   0.50356   0.00000  Uiso   1.00
C106   C     0.08624   0.31421   0.63688   0.00000  Uiso   1.00
C107   C     0.00805   0.40766   0.63528   0.00000  Uiso   1.00
C108   C     0.91538   0.41316   0.59091   0.00000  Uiso   1.00
C109   C     0.85459   0.50554   0.59764   0.00000  Uiso   1.00
C110   C     0.09459   0.28005   0.72220   0.00000  Uiso   1.00
C111   C     0.07470   0.17825   0.75091   0.00000  Uiso   1.00
C112   C     0.08678   0.16318   0.83080   0.00000  Uiso   1.00
C113   C     0.19503   0.36063   0.61542   0.00000  Uiso   1.00
C114   C     0.25959   0.32656   0.55437   0.00000  Uiso   1.00
C115   C     0.35624   0.37932   0.54438   0.00000  Uiso   1.00
H116   H     0.16713   0.53370   0.76611   0.00000  Uiso   1.00
H117   H     0.00218   0.64865   0.72958   0.00000  Uiso   1.00
H118   H     0.16149   0.41377   0.88954   0.00000  Uiso   1.00
H119   H     0.34635   0.56206   0.69303   0.00000  Uiso   1.00
H120   H     0.80568   0.73913   0.66735   0.00000  Uiso   1.00
H121   H     0.14163   0.24387   0.00464   0.00000  Uiso   1.00
H122   H     0.53144   0.55657   0.59026   0.00000  Uiso   1.00
H123   H     0.06220   0.24897   0.59848   0.00000  Uiso   1.00
H124   H     0.89150   0.34831   0.55275   0.00000  Uiso   1.00
H125   H     0.05081   0.11343   0.71272   0.00000  Uiso   1.00
H126   H     0.23567   0.26172   0.51621   0.00000  Uiso   1.00
H127   H     0.71584   0.49536   0.52383   0.00000  Uiso   1.00
H128   H     0.05180   0.00009   0.86112   0.00000  Uiso   1.00
H129   H     0.44161   0.31279   0.44674   0.00000  Uiso   1.00
O130   O     0.65035   0.68771   0.56855   0.00000  Uiso   1.00
O131   O     0.09112   0.03794   0.01106   0.00000  Uiso   1.00
O132   O     0.60254   0.44820   0.46741   0.00000  Uiso   1.00
N133   N     0.80798   0.66814   0.63983   0.00000  Uiso   1.00
N134   N     0.12205   0.20510   0.95518   0.00000  Uiso   1.00
N135   N     0.48651   0.49743   0.56779   0.00000  Uiso   1.00
N136   N     0.75964   0.53697   0.56261   0.00000  Uiso   1.00
N137   N     0.07371   0.07392   0.87796   0.00000  Uiso   1.00
N138   N     0.43817   0.36626   0.49056   0.00000  Uiso   1.00
C139   C     0.85691   0.53153   0.22770   0.00000  Uiso   1.00
C140   C     0.96107   0.50855   0.18460   0.00000  Uiso   1.00
C141   C     0.02173   0.41617   0.19139   0.00000  Uiso   1.00
C142   C     0.11448   0.41053   0.14706   0.00000  Uiso   1.00
C143   C     0.27154   0.36213   0.08767   0.00000  Uiso   1.00
C144   C     0.87453   0.63617   0.27152   0.00000  Uiso   1.00
C145   C     0.86241   0.65108   0.35139   0.00000  Uiso   1.00
C146   C     0.88229   0.75288   0.38021   0.00000  Uiso   1.00
C147   C     0.90492   0.90262   0.45576   0.00000  Uiso   1.00
C148   C     0.77410   0.55559   0.16475   0.00000  Uiso   1.00
C149   C     0.67751   0.50277   0.15485   0.00000  Uiso   1.00
C150   C     0.61283   0.53674   0.09379   0.00000  Uiso   1.00
C151   C     0.47952   0.56137   0.00356   0.00000  Uiso   1.00
C152   C     0.91376   0.68579   0.13688   0.00000  Uiso   1.00
C153   C     0.99195   0.59234   0.13528   0.00000  Uiso   1.00
C154   C     0.08462   0.58684   0.09091   0.00000  Uiso   1.00
C155   C     0.14541   0.49446   0.09764   0.00000  Uiso   1.00
C156   C     0.90541   0.71995   0.22220   0.00000  Uiso   1.00
C157   C     0.92530   0.82175   0.25091   0.00000  Uiso   1.00
C158   C     0.91322   0.83682   0.33080   0.00000  Uiso   1.00
C159   C     0.80497   0.63937   0.11542   0.00000  Uiso   1.00
C160   C     0.74041   0.67344   0.05437   0.00000  Uiso   1.00
C161   C     0.64376   0.62068   0.04438   0.00000  Uiso   1.00
H162   H     0.83287   0.46630   0.26611   0.00000  Uiso   1.00
H163   H     0.99782   0.35135   0.22958   0.00000  Uiso   1.00
H164   H     0.83851   0.58623   0.38954   0.00000  Uiso   1.00
H165   H     0.65365   0.43794   0.19303   0.00000  Uiso   1.00
H166   H     0.19432   0.26087   0.16735   0.00000  Uiso   1.00
H167   H     0.85837   0.75613   0.50464   0.00000  Uiso   1.00
H168   H     0.46856   0.44343   0.09026   0.00000  Uiso   1.00
H169   H     0.93780   0.75103   0.09848   0.00000  Uiso   1.00
H170   H     0.10850   0.65169   0.05275   0.00000  Uiso   1.00
H171   H     0.94919   0.88657   0.21272   0.00000  Uiso   1.00
H172   H     0.76433   0.73828   0.01621   0.00000  Uiso   1.00
H173   H     0.28416   0.50464   0.02383   0.00000  Uiso   1.00
H174   H     0.94820   0.99991   0.36112   0.00000  Uiso   1.00
H175   H     0.55839   0.68721   0.94674   0.00000  Uiso   1.00
O176   O     0.34965   0.31229   0.06855   0.00000  Uiso   1.00
O177   O     0.90888   0.96206   0.51106   0.00000  Uiso   1.00
O178   O     0.39746   0.55180   0.96741   0.00000  Uiso   1.00
N179   N     0.19202   0.33186   0.13983   0.00000  Uiso   1.00
N180   N     0.87795   0.79490   0.45518   0.00000  Uiso   1.00
N181   N     0.51349   0.50257   0.06779   0.00000  Uiso   1.00
N182   N     0.24036   0.46303   0.06261   0.00000  Uiso   1.00
N183   N     0.92629   0.92608   0.37796   0.00000  Uiso   1.00
N184   N     0.56183   0.63374   0.99056   0.00000  Uiso   1.00
