data_job_02309
_audit_creation_date              2018-12-19
_audit_creation_method            'Materials Studio'
_symmetry_space_group_name_H-M    'P1'
_symmetry_Int_Tables_number       1
_symmetry_cell_setting            triclinic
loop_
_symmetry_equiv_pos_as_xyz
  x,y,z
_cell_length_a                    18.6671
_cell_length_b                    16.5897
_cell_length_c                    16.3663
_cell_angle_alpha                 90.0000
_cell_angle_beta                  116.0150
_cell_angle_gamma                 90.0000
loop_
_atom_site_label
_atom_site_type_symbol
_atom_site_fract_x
_atom_site_fract_y
_atom_site_fract_z
_atom_site_U_iso_or_equiv
_atom_site_adp_type
_atom_site_occupancy
C1     C     0.75238   0.44778   0.23244   0.00000  Uiso   1.00
C2     C     0.72932   0.38023   0.27950   0.00000  Uiso   1.00
C3     C     0.73219   0.29834   0.26388   0.00000  Uiso   1.00
C4     C     0.70859   0.24617   0.31384   0.00000  Uiso   1.00
C5     C     0.67663   0.13691   0.37727   0.00000  Uiso   1.00
C6     C     0.67949   0.50233   0.18953   0.00000  Uiso   1.00
C7     C     0.64048   0.52312   0.09826   0.00000  Uiso   1.00
C8     C     0.57494   0.57375   0.07249   0.00000  Uiso   1.00
C9     C     0.46565   0.65411   0.99624   0.00000  Uiso   1.00
C10    C     0.81609   0.49708   0.30811   0.00000  Uiso   1.00
C11    C     0.89194   0.51347   0.31653   0.00000  Uiso   1.00
C12    C     0.94140   0.55969   0.39058   0.00000  Uiso   1.00
C13    C     0.04421   0.63189   0.49844   0.00000  Uiso   1.00
C14    C     0.70535   0.50076   0.34895   0.00000  Uiso   1.00
C15    C     0.70377   0.40901   0.34279   0.00000  Uiso   1.00
C16    C     0.68016   0.35695   0.39279   0.00000  Uiso   1.00
C17    C     0.68300   0.27500   0.37724   0.00000  Uiso   1.00
C18    C     0.65395   0.53111   0.25281   0.00000  Uiso   1.00
C19    C     0.58845   0.58173   0.22717   0.00000  Uiso   1.00
C20    C     0.54935   0.60258   0.13589   0.00000  Uiso   1.00
C21    C     0.79055   0.52586   0.37140   0.00000  Uiso   1.00
C22    C     0.83991   0.57208   0.44544   0.00000  Uiso   1.00
C23    C     0.91581   0.58852   0.45398   0.00000  Uiso   1.00
H24    H     0.77226   0.42538   0.18316   0.00000  Uiso   1.00
H25    H     0.75196   0.27609   0.21489   0.00000  Uiso   1.00
H26    H     0.66027   0.50084   0.04931   0.00000  Uiso   1.00
H27    H     0.91168   0.49119   0.26755   0.00000  Uiso   1.00
H28    H     0.71815   0.12327   0.27796   0.00000  Uiso   1.00
H29    H     0.52483   0.59719   0.92882   0.00000  Uiso   1.00
H30    H     0.05499   0.57684   0.38901   0.00000  Uiso   1.00
H31    H     0.68546   0.52317   0.39822   0.00000  Uiso   1.00
H32    H     0.66040   0.37924   0.44175   0.00000  Uiso   1.00
H33    H     0.56870   0.60399   0.27616   0.00000  Uiso   1.00
H34    H     0.82012   0.59434   0.49440   0.00000  Uiso   1.00
H35    H     0.64384   0.20699   0.46208   0.00000  Uiso   1.00
H36    H     0.45052   0.68092   0.11294   0.00000  Uiso   1.00
H37    H     0.98068   0.66056   0.57313   0.00000  Uiso   1.00
O38    O     0.66605   0.06869   0.39476   0.00000  Uiso   1.00
O39    O     0.41243   0.69047   0.93670   0.00000  Uiso   1.00
O40    O     0.10799   0.66375   0.54046   0.00000  Uiso   1.00
N41    N     0.70412   0.16273   0.31533   0.00000  Uiso   1.00
N42    N     0.52337   0.60581   0.98890   0.00000  Uiso   1.00
N43    N     0.01902   0.58679   0.41913   0.00000  Uiso   1.00
N44    N     0.66413   0.20778   0.41441   0.00000  Uiso   1.00
N45    N     0.48338   0.65085   0.08798   0.00000  Uiso   1.00
N46    N     0.97903   0.63184   0.51821   0.00000  Uiso   1.00
C47    C     0.25238   0.94778   0.23244   0.00000  Uiso   1.00
C48    C     0.22932   0.88023   0.27950   0.00000  Uiso   1.00
C49    C     0.23219   0.79834   0.26388   0.00000  Uiso   1.00
C50    C     0.20859   0.74617   0.31384   0.00000  Uiso   1.00
C51    C     0.17663   0.63691   0.37727   0.00000  Uiso   1.00
C52    C     0.17949   0.00233   0.18953   0.00000  Uiso   1.00
C53    C     0.14048   0.02312   0.09826   0.00000  Uiso   1.00
C54    C     0.07494   0.07375   0.07249   0.00000  Uiso   1.00
C55    C     0.96565   0.15411   0.99624   0.00000  Uiso   1.00
C56    C     0.31609   0.99708   0.30811   0.00000  Uiso   1.00
C57    C     0.39194   0.01347   0.31653   0.00000  Uiso   1.00
C58    C     0.44140   0.05969   0.39058   0.00000  Uiso   1.00
C59    C     0.54421   0.13189   0.49844   0.00000  Uiso   1.00
C60    C     0.20535   0.00076   0.34895   0.00000  Uiso   1.00
C61    C     0.20377   0.90901   0.34279   0.00000  Uiso   1.00
C62    C     0.18016   0.85695   0.39279   0.00000  Uiso   1.00
C63    C     0.18300   0.77500   0.37724   0.00000  Uiso   1.00
C64    C     0.15395   0.03111   0.25281   0.00000  Uiso   1.00
C65    C     0.08845   0.08173   0.22717   0.00000  Uiso   1.00
C66    C     0.04935   0.10258   0.13589   0.00000  Uiso   1.00
C67    C     0.29055   0.02586   0.37140   0.00000  Uiso   1.00
C68    C     0.33991   0.07208   0.44544   0.00000  Uiso   1.00
C69    C     0.41581   0.08852   0.45398   0.00000  Uiso   1.00
H70    H     0.27226   0.92538   0.18316   0.00000  Uiso   1.00
H71    H     0.25196   0.77609   0.21489   0.00000  Uiso   1.00
H72    H     0.16027   0.00084   0.04931   0.00000  Uiso   1.00
H73    H     0.41168   0.99119   0.26755   0.00000  Uiso   1.00
H74    H     0.21815   0.62327   0.27796   0.00000  Uiso   1.00
H75    H     0.02483   0.09719   0.92882   0.00000  Uiso   1.00
H76    H     0.55499   0.07684   0.38901   0.00000  Uiso   1.00
H77    H     0.18546   0.02317   0.39822   0.00000  Uiso   1.00
H78    H     0.16040   0.87924   0.44175   0.00000  Uiso   1.00
H79    H     0.06870   0.10399   0.27616   0.00000  Uiso   1.00
H80    H     0.32012   0.09434   0.49440   0.00000  Uiso   1.00
H81    H     0.14384   0.70699   0.46208   0.00000  Uiso   1.00
H82    H     0.95052   0.18092   0.11294   0.00000  Uiso   1.00
H83    H     0.48068   0.16056   0.57313   0.00000  Uiso   1.00
O84    O     0.16605   0.56869   0.39476   0.00000  Uiso   1.00
O85    O     0.91243   0.19047   0.93670   0.00000  Uiso   1.00
O86    O     0.60799   0.16375   0.54046   0.00000  Uiso   1.00
N87    N     0.20412   0.66273   0.31533   0.00000  Uiso   1.00
N88    N     0.02337   0.10581   0.98890   0.00000  Uiso   1.00
N89    N     0.51902   0.08679   0.41913   0.00000  Uiso   1.00
N90    N     0.16413   0.70778   0.41441   0.00000  Uiso   1.00
N91    N     0.98338   0.15085   0.08798   0.00000  Uiso   1.00
N92    N     0.47903   0.13184   0.51821   0.00000  Uiso   1.00
C93    C     0.24762   0.44778   0.26756   0.00000  Uiso   1.00
C94    C     0.27068   0.38023   0.22050   0.00000  Uiso   1.00
C95    C     0.26781   0.29834   0.23612   0.00000  Uiso   1.00
C96    C     0.29141   0.24617   0.18616   0.00000  Uiso   1.00
C97    C     0.32337   0.13691   0.12273   0.00000  Uiso   1.00
C98    C     0.32051   0.50233   0.31047   0.00000  Uiso   1.00
C99    C     0.35952   0.52312   0.40174   0.00000  Uiso   1.00
C100   C     0.42506   0.57375   0.42751   0.00000  Uiso   1.00
C101   C     0.53435   0.65411   0.50376   0.00000  Uiso   1.00
C102   C     0.18391   0.49708   0.19189   0.00000  Uiso   1.00
C103   C     0.10806   0.51347   0.18347   0.00000  Uiso   1.00
C104   C     0.05860   0.55969   0.10942   0.00000  Uiso   1.00
C105   C     0.95579   0.63189   0.00156   0.00000  Uiso   1.00
C106   C     0.29465   0.50076   0.15105   0.00000  Uiso   1.00
C107   C     0.29623   0.40901   0.15721   0.00000  Uiso   1.00
C108   C     0.31984   0.35695   0.10721   0.00000  Uiso   1.00
C109   C     0.31700   0.27500   0.12276   0.00000  Uiso   1.00
C110   C     0.34605   0.53111   0.24719   0.00000  Uiso   1.00
C111   C     0.41155   0.58173   0.27283   0.00000  Uiso   1.00
C112   C     0.45065   0.60258   0.36411   0.00000  Uiso   1.00
C113   C     0.20945   0.52586   0.12860   0.00000  Uiso   1.00
C114   C     0.16009   0.57208   0.05456   0.00000  Uiso   1.00
C115   C     0.08419   0.58852   0.04602   0.00000  Uiso   1.00
H116   H     0.22774   0.42538   0.31684   0.00000  Uiso   1.00
H117   H     0.24804   0.27609   0.28511   0.00000  Uiso   1.00
H118   H     0.33973   0.50084   0.45069   0.00000  Uiso   1.00
H119   H     0.08832   0.49119   0.23245   0.00000  Uiso   1.00
H120   H     0.28185   0.12327   0.22204   0.00000  Uiso   1.00
H121   H     0.47517   0.59719   0.57118   0.00000  Uiso   1.00
H122   H     0.94501   0.57684   0.11099   0.00000  Uiso   1.00
H123   H     0.31454   0.52317   0.10178   0.00000  Uiso   1.00
H124   H     0.33960   0.37924   0.05825   0.00000  Uiso   1.00
H125   H     0.43130   0.60399   0.22384   0.00000  Uiso   1.00
H126   H     0.17988   0.59434   0.00560   0.00000  Uiso   1.00
H127   H     0.35616   0.20699   0.03792   0.00000  Uiso   1.00
H128   H     0.54948   0.68092   0.38706   0.00000  Uiso   1.00
H129   H     0.01932   0.66056   0.92687   0.00000  Uiso   1.00
O130   O     0.33395   0.06869   0.10524   0.00000  Uiso   1.00
O131   O     0.58757   0.69047   0.56330   0.00000  Uiso   1.00
O132   O     0.89201   0.66375   0.95954   0.00000  Uiso   1.00
N133   N     0.29588   0.16273   0.18467   0.00000  Uiso   1.00
N134   N     0.47663   0.60581   0.51110   0.00000  Uiso   1.00
N135   N     0.98098   0.58679   0.08087   0.00000  Uiso   1.00
N136   N     0.33587   0.20778   0.08559   0.00000  Uiso   1.00
N137   N     0.51662   0.65085   0.41202   0.00000  Uiso   1.00
N138   N     0.02097   0.63184   0.98179   0.00000  Uiso   1.00
C139   C     0.74762   0.94778   0.26756   0.00000  Uiso   1.00
C140   C     0.77068   0.88023   0.22050   0.00000  Uiso   1.00
C141   C     0.76781   0.79834   0.23612   0.00000  Uiso   1.00
C142   C     0.79141   0.74617   0.18616   0.00000  Uiso   1.00
C143   C     0.82337   0.63691   0.12273   0.00000  Uiso   1.00
C144   C     0.82051   0.00233   0.31047   0.00000  Uiso   1.00
C145   C     0.85952   0.02312   0.40174   0.00000  Uiso   1.00
C146   C     0.92506   0.07375   0.42751   0.00000  Uiso   1.00
C147   C     0.03435   0.15411   0.50376   0.00000  Uiso   1.00
C148   C     0.68391   0.99708   0.19189   0.00000  Uiso   1.00
C149   C     0.60806   0.01347   0.18347   0.00000  Uiso   1.00
C150   C     0.55860   0.05969   0.10942   0.00000  Uiso   1.00
C151   C     0.45579   0.13189   0.00156   0.00000  Uiso   1.00
C152   C     0.79465   0.00076   0.15105   0.00000  Uiso   1.00
C153   C     0.79623   0.90901   0.15721   0.00000  Uiso   1.00
C154   C     0.81984   0.85695   0.10721   0.00000  Uiso   1.00
C155   C     0.81700   0.77500   0.12276   0.00000  Uiso   1.00
C156   C     0.84605   0.03111   0.24719   0.00000  Uiso   1.00
C157   C     0.91155   0.08173   0.27283   0.00000  Uiso   1.00
C158   C     0.95065   0.10258   0.36411   0.00000  Uiso   1.00
C159   C     0.70945   0.02586   0.12860   0.00000  Uiso   1.00
C160   C     0.66009   0.07208   0.05456   0.00000  Uiso   1.00
C161   C     0.58419   0.08852   0.04602   0.00000  Uiso   1.00
H162   H     0.72774   0.92538   0.31684   0.00000  Uiso   1.00
H163   H     0.74804   0.77609   0.28511   0.00000  Uiso   1.00
H164   H     0.83973   0.00084   0.45069   0.00000  Uiso   1.00
H165   H     0.58832   0.99119   0.23245   0.00000  Uiso   1.00
H166   H     0.78185   0.62327   0.22204   0.00000  Uiso   1.00
H167   H     0.97517   0.09719   0.57118   0.00000  Uiso   1.00
H168   H     0.44501   0.07684   0.11099   0.00000  Uiso   1.00
H169   H     0.81454   0.02317   0.10178   0.00000  Uiso   1.00
H170   H     0.83960   0.87924   0.05825   0.00000  Uiso   1.00
H171   H     0.93130   0.10399   0.22384   0.00000  Uiso   1.00
H172   H     0.67988   0.09434   0.00560   0.00000  Uiso   1.00
H173   H     0.85616   0.70699   0.03792   0.00000  Uiso   1.00
H174   H     0.04948   0.18092   0.38706   0.00000  Uiso   1.00
H175   H     0.51932   0.16056   0.92687   0.00000  Uiso   1.00
O176   O     0.83395   0.56869   0.10524   0.00000  Uiso   1.00
O177   O     0.08757   0.19047   0.56330   0.00000  Uiso   1.00
O178   O     0.39201   0.16375   0.95954   0.00000  Uiso   1.00
N179   N     0.79588   0.66273   0.18467   0.00000  Uiso   1.00
N180   N     0.97663   0.10581   0.51110   0.00000  Uiso   1.00
N181   N     0.48098   0.08679   0.08087   0.00000  Uiso   1.00
N182   N     0.83587   0.70778   0.08559   0.00000  Uiso   1.00
N183   N     0.01662   0.15085   0.41202   0.00000  Uiso   1.00
N184   N     0.52097   0.13184   0.98179   0.00000  Uiso   1.00
C185   C     0.24762   0.55222   0.76756   0.00000  Uiso   1.00
C186   C     0.27068   0.61977   0.72050   0.00000  Uiso   1.00
C187   C     0.26781   0.70166   0.73612   0.00000  Uiso   1.00
C188   C     0.29141   0.75383   0.68616   0.00000  Uiso   1.00
C189   C     0.32337   0.86309   0.62273   0.00000  Uiso   1.00
C190   C     0.32051   0.49767   0.81047   0.00000  Uiso   1.00
C191   C     0.35952   0.47688   0.90174   0.00000  Uiso   1.00
C192   C     0.42506   0.42625   0.92751   0.00000  Uiso   1.00
C193   C     0.53435   0.34589   0.00376   0.00000  Uiso   1.00
C194   C     0.18391   0.50292   0.69189   0.00000  Uiso   1.00
C195   C     0.10806   0.48653   0.68347   0.00000  Uiso   1.00
C196   C     0.05860   0.44031   0.60942   0.00000  Uiso   1.00
C197   C     0.95579   0.36811   0.50156   0.00000  Uiso   1.00
C198   C     0.29465   0.49924   0.65105   0.00000  Uiso   1.00
C199   C     0.29623   0.59099   0.65721   0.00000  Uiso   1.00
C200   C     0.31984   0.64305   0.60721   0.00000  Uiso   1.00
C201   C     0.31700   0.72500   0.62276   0.00000  Uiso   1.00
C202   C     0.34605   0.46889   0.74719   0.00000  Uiso   1.00
C203   C     0.41155   0.41827   0.77283   0.00000  Uiso   1.00
C204   C     0.45065   0.39742   0.86411   0.00000  Uiso   1.00
C205   C     0.20945   0.47414   0.62860   0.00000  Uiso   1.00
C206   C     0.16009   0.42792   0.55456   0.00000  Uiso   1.00
C207   C     0.08419   0.41148   0.54602   0.00000  Uiso   1.00
H208   H     0.22774   0.57462   0.81684   0.00000  Uiso   1.00
H209   H     0.24804   0.72391   0.78511   0.00000  Uiso   1.00
H210   H     0.33973   0.49916   0.95069   0.00000  Uiso   1.00
H211   H     0.08832   0.50881   0.73245   0.00000  Uiso   1.00
H212   H     0.28185   0.87673   0.72204   0.00000  Uiso   1.00
H213   H     0.47517   0.40281   0.07118   0.00000  Uiso   1.00
H214   H     0.94501   0.42316   0.61099   0.00000  Uiso   1.00
H215   H     0.31454   0.47683   0.60178   0.00000  Uiso   1.00
H216   H     0.33960   0.62076   0.55825   0.00000  Uiso   1.00
H217   H     0.43130   0.39601   0.72384   0.00000  Uiso   1.00
H218   H     0.17988   0.40566   0.50560   0.00000  Uiso   1.00
H219   H     0.35616   0.79301   0.53792   0.00000  Uiso   1.00
H220   H     0.54948   0.31908   0.88706   0.00000  Uiso   1.00
H221   H     0.01932   0.33944   0.42687   0.00000  Uiso   1.00
O222   O     0.33395   0.93131   0.60524   0.00000  Uiso   1.00
O223   O     0.58757   0.30953   0.06330   0.00000  Uiso   1.00
O224   O     0.89201   0.33625   0.45954   0.00000  Uiso   1.00
N225   N     0.29588   0.83727   0.68467   0.00000  Uiso   1.00
N226   N     0.47663   0.39419   0.01110   0.00000  Uiso   1.00
N227   N     0.98098   0.41321   0.58087   0.00000  Uiso   1.00
N228   N     0.33587   0.79222   0.58559   0.00000  Uiso   1.00
N229   N     0.51662   0.34915   0.91202   0.00000  Uiso   1.00
N230   N     0.02097   0.36816   0.48179   0.00000  Uiso   1.00
C231   C     0.74762   0.05222   0.76756   0.00000  Uiso   1.00
C232   C     0.77068   0.11977   0.72050   0.00000  Uiso   1.00
C233   C     0.76781   0.20166   0.73612   0.00000  Uiso   1.00
C234   C     0.79141   0.25383   0.68616   0.00000  Uiso   1.00
C235   C     0.82337   0.36309   0.62273   0.00000  Uiso   1.00
C236   C     0.82051   0.99767   0.81047   0.00000  Uiso   1.00
C237   C     0.85952   0.97688   0.90174   0.00000  Uiso   1.00
C238   C     0.92506   0.92625   0.92751   0.00000  Uiso   1.00
C239   C     0.03435   0.84589   0.00376   0.00000  Uiso   1.00
C240   C     0.68391   0.00292   0.69189   0.00000  Uiso   1.00
C241   C     0.60806   0.98653   0.68347   0.00000  Uiso   1.00
C242   C     0.55860   0.94031   0.60942   0.00000  Uiso   1.00
C243   C     0.45579   0.86811   0.50156   0.00000  Uiso   1.00
C244   C     0.79465   0.99924   0.65105   0.00000  Uiso   1.00
C245   C     0.79623   0.09099   0.65721   0.00000  Uiso   1.00
C246   C     0.81984   0.14305   0.60721   0.00000  Uiso   1.00
C247   C     0.81700   0.22500   0.62276   0.00000  Uiso   1.00
C248   C     0.84605   0.96889   0.74719   0.00000  Uiso   1.00
C249   C     0.91155   0.91827   0.77283   0.00000  Uiso   1.00
C250   C     0.95065   0.89742   0.86411   0.00000  Uiso   1.00
C251   C     0.70945   0.97414   0.62860   0.00000  Uiso   1.00
C252   C     0.66009   0.92792   0.55456   0.00000  Uiso   1.00
C253   C     0.58419   0.91148   0.54602   0.00000  Uiso   1.00
H254   H     0.72774   0.07462   0.81684   0.00000  Uiso   1.00
H255   H     0.74804   0.22391   0.78511   0.00000  Uiso   1.00
H256   H     0.83973   0.99916   0.95069   0.00000  Uiso   1.00
H257   H     0.58832   0.00881   0.73245   0.00000  Uiso   1.00
H258   H     0.78185   0.37673   0.72204   0.00000  Uiso   1.00
H259   H     0.97517   0.90281   0.07118   0.00000  Uiso   1.00
H260   H     0.44501   0.92316   0.61099   0.00000  Uiso   1.00
H261   H     0.81454   0.97683   0.60178   0.00000  Uiso   1.00
H262   H     0.83960   0.12076   0.55825   0.00000  Uiso   1.00
H263   H     0.93130   0.89601   0.72384   0.00000  Uiso   1.00
H264   H     0.67988   0.90566   0.50560   0.00000  Uiso   1.00
H265   H     0.85616   0.29301   0.53792   0.00000  Uiso   1.00
H266   H     0.04948   0.81908   0.88706   0.00000  Uiso   1.00
H267   H     0.51932   0.83944   0.42687   0.00000  Uiso   1.00
O268   O     0.83395   0.43131   0.60524   0.00000  Uiso   1.00
O269   O     0.08757   0.80953   0.06330   0.00000  Uiso   1.00
O270   O     0.39201   0.83625   0.45954   0.00000  Uiso   1.00
N271   N     0.79588   0.33727   0.68467   0.00000  Uiso   1.00
N272   N     0.97663   0.89419   0.01110   0.00000  Uiso   1.00
N273   N     0.48098   0.91321   0.58087   0.00000  Uiso   1.00
N274   N     0.83587   0.29222   0.58559   0.00000  Uiso   1.00
N275   N     0.01662   0.84915   0.91202   0.00000  Uiso   1.00
N276   N     0.52097   0.86816   0.48179   0.00000  Uiso   1.00
C277   C     0.75238   0.55222   0.73244   0.00000  Uiso   1.00
C278   C     0.72932   0.61977   0.77950   0.00000  Uiso   1.00
C279   C     0.73219   0.70166   0.76388   0.00000  Uiso   1.00
C280   C     0.70859   0.75383   0.81384   0.00000  Uiso   1.00
C281   C     0.67663   0.86309   0.87727   0.00000  Uiso   1.00
C282   C     0.67949   0.49767   0.68953   0.00000  Uiso   1.00
C283   C     0.64048   0.47688   0.59826   0.00000  Uiso   1.00
C284   C     0.57494   0.42625   0.57249   0.00000  Uiso   1.00
C285   C     0.46565   0.34589   0.49624   0.00000  Uiso   1.00
C286   C     0.81609   0.50292   0.80811   0.00000  Uiso   1.00
C287   C     0.89194   0.48653   0.81653   0.00000  Uiso   1.00
C288   C     0.94140   0.44031   0.89058   0.00000  Uiso   1.00
C289   C     0.04421   0.36811   0.99844   0.00000  Uiso   1.00
C290   C     0.70535   0.49924   0.84895   0.00000  Uiso   1.00
C291   C     0.70377   0.59099   0.84279   0.00000  Uiso   1.00
C292   C     0.68016   0.64305   0.89279   0.00000  Uiso   1.00
C293   C     0.68300   0.72500   0.87724   0.00000  Uiso   1.00
C294   C     0.65395   0.46889   0.75281   0.00000  Uiso   1.00
C295   C     0.58845   0.41827   0.72717   0.00000  Uiso   1.00
C296   C     0.54935   0.39742   0.63589   0.00000  Uiso   1.00
C297   C     0.79055   0.47414   0.87140   0.00000  Uiso   1.00
C298   C     0.83991   0.42792   0.94544   0.00000  Uiso   1.00
C299   C     0.91581   0.41148   0.95398   0.00000  Uiso   1.00
H300   H     0.77226   0.57462   0.68316   0.00000  Uiso   1.00
H301   H     0.75196   0.72391   0.71489   0.00000  Uiso   1.00
H302   H     0.66027   0.49916   0.54931   0.00000  Uiso   1.00
H303   H     0.91168   0.50881   0.76755   0.00000  Uiso   1.00
H304   H     0.71815   0.87673   0.77796   0.00000  Uiso   1.00
H305   H     0.52483   0.40281   0.42882   0.00000  Uiso   1.00
H306   H     0.05499   0.42316   0.88901   0.00000  Uiso   1.00
H307   H     0.68546   0.47683   0.89822   0.00000  Uiso   1.00
H308   H     0.66040   0.62076   0.94175   0.00000  Uiso   1.00
H309   H     0.56870   0.39601   0.77616   0.00000  Uiso   1.00
H310   H     0.82012   0.40566   0.99440   0.00000  Uiso   1.00
H311   H     0.64384   0.79301   0.96208   0.00000  Uiso   1.00
H312   H     0.45052   0.31908   0.61294   0.00000  Uiso   1.00
H313   H     0.98068   0.33944   0.07313   0.00000  Uiso   1.00
O314   O     0.66605   0.93131   0.89476   0.00000  Uiso   1.00
O315   O     0.41243   0.30953   0.43670   0.00000  Uiso   1.00
O316   O     0.10799   0.33625   0.04046   0.00000  Uiso   1.00
N317   N     0.70412   0.83727   0.81533   0.00000  Uiso   1.00
N318   N     0.52337   0.39419   0.48890   0.00000  Uiso   1.00
N319   N     0.01902   0.41321   0.91913   0.00000  Uiso   1.00
N320   N     0.66413   0.79222   0.91441   0.00000  Uiso   1.00
N321   N     0.48338   0.34915   0.58798   0.00000  Uiso   1.00
N322   N     0.97903   0.36816   0.01821   0.00000  Uiso   1.00
C323   C     0.25238   0.05222   0.73244   0.00000  Uiso   1.00
C324   C     0.22932   0.11977   0.77950   0.00000  Uiso   1.00
C325   C     0.23219   0.20166   0.76388   0.00000  Uiso   1.00
C326   C     0.20859   0.25383   0.81384   0.00000  Uiso   1.00
C327   C     0.17663   0.36309   0.87727   0.00000  Uiso   1.00
C328   C     0.17949   0.99767   0.68953   0.00000  Uiso   1.00
C329   C     0.14048   0.97688   0.59826   0.00000  Uiso   1.00
C330   C     0.07494   0.92625   0.57249   0.00000  Uiso   1.00
C331   C     0.96565   0.84589   0.49624   0.00000  Uiso   1.00
C332   C     0.31609   0.00292   0.80811   0.00000  Uiso   1.00
C333   C     0.39194   0.98653   0.81653   0.00000  Uiso   1.00
C334   C     0.44140   0.94031   0.89058   0.00000  Uiso   1.00
C335   C     0.54421   0.86811   0.99844   0.00000  Uiso   1.00
C336   C     0.20535   0.99924   0.84895   0.00000  Uiso   1.00
C337   C     0.20377   0.09099   0.84279   0.00000  Uiso   1.00
C338   C     0.18016   0.14305   0.89279   0.00000  Uiso   1.00
C339   C     0.18300   0.22500   0.87724   0.00000  Uiso   1.00
C340   C     0.15395   0.96889   0.75281   0.00000  Uiso   1.00
C341   C     0.08845   0.91827   0.72717   0.00000  Uiso   1.00
C342   C     0.04935   0.89742   0.63589   0.00000  Uiso   1.00
C343   C     0.29055   0.97414   0.87140   0.00000  Uiso   1.00
C344   C     0.33991   0.92792   0.94544   0.00000  Uiso   1.00
C345   C     0.41581   0.91148   0.95398   0.00000  Uiso   1.00
H346   H     0.27226   0.07462   0.68316   0.00000  Uiso   1.00
H347   H     0.25196   0.22391   0.71489   0.00000  Uiso   1.00
H348   H     0.16027   0.99916   0.54931   0.00000  Uiso   1.00
H349   H     0.41168   0.00881   0.76755   0.00000  Uiso   1.00
H350   H     0.21815   0.37673   0.77796   0.00000  Uiso   1.00
H351   H     0.02483   0.90281   0.42882   0.00000  Uiso   1.00
H352   H     0.55499   0.92316   0.88901   0.00000  Uiso   1.00
H353   H     0.18546   0.97683   0.89822   0.00000  Uiso   1.00
H354   H     0.16040   0.12076   0.94175   0.00000  Uiso   1.00
H355   H     0.06870   0.89601   0.77616   0.00000  Uiso   1.00
H356   H     0.32012   0.90566   0.99440   0.00000  Uiso   1.00
H357   H     0.14384   0.29301   0.96208   0.00000  Uiso   1.00
H358   H     0.95052   0.81908   0.61294   0.00000  Uiso   1.00
H359   H     0.48068   0.83944   0.07313   0.00000  Uiso   1.00
O360   O     0.16605   0.43131   0.89476   0.00000  Uiso   1.00
O361   O     0.91243   0.80953   0.43670   0.00000  Uiso   1.00
O362   O     0.60799   0.83625   0.04046   0.00000  Uiso   1.00
N363   N     0.20412   0.33727   0.81533   0.00000  Uiso   1.00
N364   N     0.02337   0.89419   0.48890   0.00000  Uiso   1.00
N365   N     0.51902   0.91321   0.91913   0.00000  Uiso   1.00
N366   N     0.16413   0.29222   0.91441   0.00000  Uiso   1.00
N367   N     0.98338   0.84915   0.58798   0.00000  Uiso   1.00
N368   N     0.47903   0.86816   0.01821   0.00000  Uiso   1.00
