data_job_03584
_audit_creation_date              2018-12-19
_audit_creation_method            'Materials Studio'
_symmetry_space_group_name_H-M    'P1'
_symmetry_Int_Tables_number       1
_symmetry_cell_setting            triclinic
loop_
_symmetry_equiv_pos_as_xyz
  x,y,z
_cell_length_a                    23.6526
_cell_length_b                    23.6526
_cell_length_c                    10.3892
_cell_angle_alpha                 90.0000
_cell_angle_beta                  90.0000
_cell_angle_gamma                 90.0000
loop_
_atom_site_label
_atom_site_type_symbol
_atom_site_fract_x
_atom_site_fract_y
_atom_site_fract_z
_atom_site_U_iso_or_equiv
_atom_site_adp_type
_atom_site_occupancy
C1     C     0.09318   0.74343   0.60601   0.00000  Uiso   1.00
C2     C     0.03353   0.75736   0.65179   0.00000  Uiso   1.00
C3     C     0.99977   0.72301   0.72810   0.00000  Uiso   1.00
C4     C     0.94648   0.74337   0.75953   0.00000  Uiso   1.00
C5     C     0.85670   0.75695   0.83717   0.00000  Uiso   1.00
C6     C     0.09172   0.74762   0.45958   0.00000  Uiso   1.00
C7     C     0.10691   0.70509   0.37428   0.00000  Uiso   1.00
C8     C     0.10260   0.71725   0.24391   0.00000  Uiso   1.00
C9     C     0.10322   0.71573   0.02313   0.00000  Uiso   1.00
C10    C     0.13056   0.79193   0.65192   0.00000  Uiso   1.00
C11    C     0.17840   0.78666   0.72831   0.00000  Uiso   1.00
C12    C     0.20680   0.83614   0.75985   0.00000  Uiso   1.00
C13    C     0.26771   0.90342   0.83770   0.00000  Uiso   1.00
C14    C     0.05856   0.84065   0.52614   0.00000  Uiso   1.00
C15    C     0.01472   0.81017   0.60840   0.00000  Uiso   1.00
C16    C     0.96146   0.83058   0.63973   0.00000  Uiso   1.00
C17    C     0.92763   0.79627   0.71608   0.00000  Uiso   1.00
C18    C     0.07292   0.80043   0.41619   0.00000  Uiso   1.00
C19    C     0.06860   0.81266   0.28591   0.00000  Uiso   1.00
C20    C     0.08376   0.77016   0.20044   0.00000  Uiso   1.00
C21    C     0.11175   0.84474   0.60854   0.00000  Uiso   1.00
C22    C     0.14009   0.89423   0.63995   0.00000  Uiso   1.00
C23    C     0.18796   0.88904   0.71638   0.00000  Uiso   1.00
H24    H     0.10782   0.70231   0.63978   0.00000  Uiso   1.00
H25    H     0.01434   0.68215   0.76165   0.00000  Uiso   1.00
H26    H     0.12146   0.66423   0.40789   0.00000  Uiso   1.00
H27    H     0.19294   0.74579   0.76187   0.00000  Uiso   1.00
H28    H     0.90240   0.68306   0.87759   0.00000  Uiso   1.00
H29    H     0.12829   0.64529   0.13166   0.00000  Uiso   1.00
H30    H     0.27902   0.81728   0.87809   0.00000  Uiso   1.00
H31    H     0.04391   0.88177   0.49236   0.00000  Uiso   1.00
H32    H     0.94692   0.87145   0.60614   0.00000  Uiso   1.00
H33    H     0.05404   0.85353   0.25238   0.00000  Uiso   1.00
H34    H     0.12552   0.93509   0.60636   0.00000  Uiso   1.00
H35    H     0.84767   0.83671   0.75137   0.00000  Uiso   1.00
H36    H     0.07357   0.79894   0.00544   0.00000  Uiso   1.00
H37    H     0.22430   0.97092   0.75187   0.00000  Uiso   1.00
O38    O     0.81238   0.74985   0.89195   0.00000  Uiso   1.00
O39    O     0.10875   0.70030   0.91333   0.00000  Uiso   1.00
O40    O     0.30650   0.92594   0.89263   0.00000  Uiso   1.00
N41    N     0.90283   0.72065   0.83229   0.00000  Uiso   1.00
N42    N     0.11402   0.68533   0.13489   0.00000  Uiso   1.00
N43    N     0.25495   0.84612   0.83271   0.00000  Uiso   1.00
N44    N     0.87339   0.80332   0.76437   0.00000  Uiso   1.00
N45    N     0.08457   0.76800   0.06698   0.00000  Uiso   1.00
N46    N     0.22551   0.92880   0.76480   0.00000  Uiso   1.00
C47    C     0.90682   0.25657   0.60601   0.00000  Uiso   1.00
C48    C     0.96647   0.24264   0.65179   0.00000  Uiso   1.00
C49    C     0.00023   0.27699   0.72810   0.00000  Uiso   1.00
C50    C     0.05352   0.25663   0.75953   0.00000  Uiso   1.00
C51    C     0.14330   0.24305   0.83717   0.00000  Uiso   1.00
C52    C     0.90828   0.25238   0.45958   0.00000  Uiso   1.00
C53    C     0.89309   0.29491   0.37428   0.00000  Uiso   1.00
C54    C     0.89740   0.28275   0.24391   0.00000  Uiso   1.00
C55    C     0.89678   0.28427   0.02313   0.00000  Uiso   1.00
C56    C     0.86944   0.20807   0.65192   0.00000  Uiso   1.00
C57    C     0.82160   0.21334   0.72831   0.00000  Uiso   1.00
C58    C     0.79320   0.16386   0.75985   0.00000  Uiso   1.00
C59    C     0.73229   0.09658   0.83770   0.00000  Uiso   1.00
C60    C     0.94144   0.15935   0.52614   0.00000  Uiso   1.00
C61    C     0.98528   0.18983   0.60840   0.00000  Uiso   1.00
C62    C     0.03854   0.16942   0.63973   0.00000  Uiso   1.00
C63    C     0.07237   0.20373   0.71608   0.00000  Uiso   1.00
C64    C     0.92708   0.19957   0.41619   0.00000  Uiso   1.00
C65    C     0.93140   0.18734   0.28591   0.00000  Uiso   1.00
C66    C     0.91624   0.22984   0.20044   0.00000  Uiso   1.00
C67    C     0.88825   0.15526   0.60854   0.00000  Uiso   1.00
C68    C     0.85991   0.10577   0.63995   0.00000  Uiso   1.00
C69    C     0.81204   0.11096   0.71638   0.00000  Uiso   1.00
H70    H     0.89218   0.29769   0.63978   0.00000  Uiso   1.00
H71    H     0.98566   0.31785   0.76165   0.00000  Uiso   1.00
H72    H     0.87854   0.33577   0.40789   0.00000  Uiso   1.00
H73    H     0.80706   0.25421   0.76187   0.00000  Uiso   1.00
H74    H     0.09760   0.31694   0.87759   0.00000  Uiso   1.00
H75    H     0.87171   0.35471   0.13166   0.00000  Uiso   1.00
H76    H     0.72098   0.18272   0.87809   0.00000  Uiso   1.00
H77    H     0.95609   0.11823   0.49236   0.00000  Uiso   1.00
H78    H     0.05308   0.12855   0.60614   0.00000  Uiso   1.00
H79    H     0.94596   0.14647   0.25238   0.00000  Uiso   1.00
H80    H     0.87448   0.06491   0.60636   0.00000  Uiso   1.00
H81    H     0.15233   0.16329   0.75137   0.00000  Uiso   1.00
H82    H     0.92643   0.20106   0.00544   0.00000  Uiso   1.00
H83    H     0.77570   0.02908   0.75187   0.00000  Uiso   1.00
O84    O     0.18762   0.25015   0.89195   0.00000  Uiso   1.00
O85    O     0.89125   0.29970   0.91333   0.00000  Uiso   1.00
O86    O     0.69350   0.07406   0.89263   0.00000  Uiso   1.00
N87    N     0.09717   0.27935   0.83229   0.00000  Uiso   1.00
N88    N     0.88598   0.31467   0.13489   0.00000  Uiso   1.00
N89    N     0.74505   0.15388   0.83271   0.00000  Uiso   1.00
N90    N     0.12661   0.19668   0.76437   0.00000  Uiso   1.00
N91    N     0.91543   0.23200   0.06698   0.00000  Uiso   1.00
N92    N     0.77449   0.07120   0.76480   0.00000  Uiso   1.00
C93    C     0.74343   0.90682   0.39399   0.00000  Uiso   1.00
C94    C     0.75736   0.96647   0.34821   0.00000  Uiso   1.00
C95    C     0.72301   0.00023   0.27190   0.00000  Uiso   1.00
C96    C     0.74337   0.05352   0.24047   0.00000  Uiso   1.00
C97    C     0.75695   0.14330   0.16283   0.00000  Uiso   1.00
C98    C     0.74762   0.90828   0.54042   0.00000  Uiso   1.00
C99    C     0.70509   0.89309   0.62572   0.00000  Uiso   1.00
C100   C     0.71725   0.89740   0.75609   0.00000  Uiso   1.00
C101   C     0.71573   0.89678   0.97687   0.00000  Uiso   1.00
C102   C     0.79193   0.86944   0.34808   0.00000  Uiso   1.00
C103   C     0.78666   0.82160   0.27169   0.00000  Uiso   1.00
C104   C     0.83614   0.79320   0.24015   0.00000  Uiso   1.00
C105   C     0.90342   0.73229   0.16230   0.00000  Uiso   1.00
C106   C     0.84065   0.94144   0.47386   0.00000  Uiso   1.00
C107   C     0.81017   0.98528   0.39160   0.00000  Uiso   1.00
C108   C     0.83058   0.03854   0.36027   0.00000  Uiso   1.00
C109   C     0.79627   0.07237   0.28392   0.00000  Uiso   1.00
C110   C     0.80043   0.92708   0.58381   0.00000  Uiso   1.00
C111   C     0.81266   0.93140   0.71409   0.00000  Uiso   1.00
C112   C     0.77016   0.91624   0.79956   0.00000  Uiso   1.00
C113   C     0.84474   0.88825   0.39146   0.00000  Uiso   1.00
C114   C     0.89423   0.85991   0.36005   0.00000  Uiso   1.00
C115   C     0.88904   0.81204   0.28362   0.00000  Uiso   1.00
H116   H     0.70231   0.89218   0.36022   0.00000  Uiso   1.00
H117   H     0.68215   0.98566   0.23835   0.00000  Uiso   1.00
H118   H     0.66423   0.87854   0.59211   0.00000  Uiso   1.00
H119   H     0.74579   0.80706   0.23813   0.00000  Uiso   1.00
H120   H     0.68306   0.09760   0.12241   0.00000  Uiso   1.00
H121   H     0.64529   0.87171   0.86834   0.00000  Uiso   1.00
H122   H     0.81728   0.72098   0.12191   0.00000  Uiso   1.00
H123   H     0.88177   0.95609   0.50764   0.00000  Uiso   1.00
H124   H     0.87145   0.05308   0.39386   0.00000  Uiso   1.00
H125   H     0.85353   0.94596   0.74762   0.00000  Uiso   1.00
H126   H     0.93509   0.87448   0.39364   0.00000  Uiso   1.00
H127   H     0.83671   0.15233   0.24863   0.00000  Uiso   1.00
H128   H     0.79894   0.92643   0.99456   0.00000  Uiso   1.00
H129   H     0.97092   0.77570   0.24813   0.00000  Uiso   1.00
O130   O     0.74985   0.18762   0.10805   0.00000  Uiso   1.00
O131   O     0.70030   0.89125   0.08667   0.00000  Uiso   1.00
O132   O     0.92594   0.69350   0.10737   0.00000  Uiso   1.00
N133   N     0.72065   0.09717   0.16771   0.00000  Uiso   1.00
N134   N     0.68533   0.88598   0.86511   0.00000  Uiso   1.00
N135   N     0.84612   0.74505   0.16729   0.00000  Uiso   1.00
N136   N     0.80332   0.12661   0.23563   0.00000  Uiso   1.00
N137   N     0.76800   0.91543   0.93302   0.00000  Uiso   1.00
N138   N     0.92880   0.77449   0.23520   0.00000  Uiso   1.00
C139   C     0.25657   0.09318   0.39399   0.00000  Uiso   1.00
C140   C     0.24264   0.03353   0.34821   0.00000  Uiso   1.00
C141   C     0.27699   0.99977   0.27190   0.00000  Uiso   1.00
C142   C     0.25663   0.94648   0.24047   0.00000  Uiso   1.00
C143   C     0.24305   0.85670   0.16283   0.00000  Uiso   1.00
C144   C     0.25238   0.09172   0.54042   0.00000  Uiso   1.00
C145   C     0.29491   0.10691   0.62572   0.00000  Uiso   1.00
C146   C     0.28275   0.10260   0.75609   0.00000  Uiso   1.00
C147   C     0.28427   0.10322   0.97687   0.00000  Uiso   1.00
C148   C     0.20807   0.13056   0.34808   0.00000  Uiso   1.00
C149   C     0.21334   0.17840   0.27169   0.00000  Uiso   1.00
C150   C     0.16386   0.20680   0.24015   0.00000  Uiso   1.00
C151   C     0.09658   0.26771   0.16230   0.00000  Uiso   1.00
C152   C     0.15935   0.05856   0.47386   0.00000  Uiso   1.00
C153   C     0.18983   0.01472   0.39160   0.00000  Uiso   1.00
C154   C     0.16942   0.96146   0.36027   0.00000  Uiso   1.00
C155   C     0.20373   0.92763   0.28392   0.00000  Uiso   1.00
C156   C     0.19957   0.07292   0.58381   0.00000  Uiso   1.00
C157   C     0.18734   0.06860   0.71409   0.00000  Uiso   1.00
C158   C     0.22984   0.08376   0.79956   0.00000  Uiso   1.00
C159   C     0.15526   0.11175   0.39146   0.00000  Uiso   1.00
C160   C     0.10577   0.14009   0.36005   0.00000  Uiso   1.00
C161   C     0.11096   0.18796   0.28362   0.00000  Uiso   1.00
H162   H     0.29769   0.10782   0.36022   0.00000  Uiso   1.00
H163   H     0.31785   0.01434   0.23835   0.00000  Uiso   1.00
H164   H     0.33577   0.12146   0.59211   0.00000  Uiso   1.00
H165   H     0.25421   0.19294   0.23813   0.00000  Uiso   1.00
H166   H     0.31694   0.90240   0.12241   0.00000  Uiso   1.00
H167   H     0.35471   0.12829   0.86834   0.00000  Uiso   1.00
H168   H     0.18272   0.27902   0.12191   0.00000  Uiso   1.00
H169   H     0.11823   0.04391   0.50764   0.00000  Uiso   1.00
H170   H     0.12855   0.94692   0.39386   0.00000  Uiso   1.00
H171   H     0.14647   0.05404   0.74762   0.00000  Uiso   1.00
H172   H     0.06491   0.12552   0.39364   0.00000  Uiso   1.00
H173   H     0.16329   0.84767   0.24863   0.00000  Uiso   1.00
H174   H     0.20106   0.07357   0.99456   0.00000  Uiso   1.00
H175   H     0.02908   0.22430   0.24813   0.00000  Uiso   1.00
O176   O     0.25015   0.81238   0.10805   0.00000  Uiso   1.00
O177   O     0.29970   0.10875   0.08667   0.00000  Uiso   1.00
O178   O     0.07406   0.30650   0.10737   0.00000  Uiso   1.00
N179   N     0.27935   0.90283   0.16771   0.00000  Uiso   1.00
N180   N     0.31467   0.11402   0.86511   0.00000  Uiso   1.00
N181   N     0.15388   0.25495   0.16729   0.00000  Uiso   1.00
N182   N     0.19668   0.87339   0.23563   0.00000  Uiso   1.00
N183   N     0.23200   0.08457   0.93302   0.00000  Uiso   1.00
N184   N     0.07120   0.22551   0.23520   0.00000  Uiso   1.00
C185   C     0.59318   0.75657   0.60601   0.00000  Uiso   1.00
C186   C     0.53353   0.74264   0.65179   0.00000  Uiso   1.00
C187   C     0.49977   0.77699   0.72810   0.00000  Uiso   1.00
C188   C     0.44648   0.75663   0.75953   0.00000  Uiso   1.00
C189   C     0.35670   0.74305   0.83717   0.00000  Uiso   1.00
C190   C     0.59172   0.75238   0.45958   0.00000  Uiso   1.00
C191   C     0.60691   0.79491   0.37428   0.00000  Uiso   1.00
C192   C     0.60260   0.78275   0.24391   0.00000  Uiso   1.00
C193   C     0.60322   0.78427   0.02313   0.00000  Uiso   1.00
C194   C     0.63056   0.70807   0.65192   0.00000  Uiso   1.00
C195   C     0.67840   0.71334   0.72831   0.00000  Uiso   1.00
C196   C     0.70680   0.66386   0.75985   0.00000  Uiso   1.00
C197   C     0.76771   0.59658   0.83770   0.00000  Uiso   1.00
C198   C     0.55856   0.65935   0.52614   0.00000  Uiso   1.00
C199   C     0.51472   0.68983   0.60840   0.00000  Uiso   1.00
C200   C     0.46146   0.66942   0.63973   0.00000  Uiso   1.00
C201   C     0.42763   0.70373   0.71608   0.00000  Uiso   1.00
C202   C     0.57292   0.69957   0.41619   0.00000  Uiso   1.00
C203   C     0.56860   0.68734   0.28591   0.00000  Uiso   1.00
C204   C     0.58376   0.72984   0.20044   0.00000  Uiso   1.00
C205   C     0.61175   0.65526   0.60854   0.00000  Uiso   1.00
C206   C     0.64009   0.60577   0.63995   0.00000  Uiso   1.00
C207   C     0.68796   0.61096   0.71638   0.00000  Uiso   1.00
H208   H     0.60782   0.79769   0.63978   0.00000  Uiso   1.00
H209   H     0.51434   0.81785   0.76165   0.00000  Uiso   1.00
H210   H     0.62146   0.83577   0.40789   0.00000  Uiso   1.00
H211   H     0.69294   0.75421   0.76187   0.00000  Uiso   1.00
H212   H     0.40240   0.81694   0.87759   0.00000  Uiso   1.00
H213   H     0.62829   0.85471   0.13166   0.00000  Uiso   1.00
H214   H     0.77902   0.68272   0.87809   0.00000  Uiso   1.00
H215   H     0.54391   0.61823   0.49236   0.00000  Uiso   1.00
H216   H     0.44692   0.62855   0.60614   0.00000  Uiso   1.00
H217   H     0.55404   0.64647   0.25238   0.00000  Uiso   1.00
H218   H     0.62552   0.56491   0.60636   0.00000  Uiso   1.00
H219   H     0.34767   0.66329   0.75137   0.00000  Uiso   1.00
H220   H     0.57357   0.70106   0.00544   0.00000  Uiso   1.00
H221   H     0.72430   0.52908   0.75187   0.00000  Uiso   1.00
O222   O     0.31238   0.75015   0.89195   0.00000  Uiso   1.00
O223   O     0.60875   0.79970   0.91333   0.00000  Uiso   1.00
O224   O     0.80650   0.57406   0.89263   0.00000  Uiso   1.00
N225   N     0.40283   0.77935   0.83229   0.00000  Uiso   1.00
N226   N     0.61402   0.81467   0.13489   0.00000  Uiso   1.00
N227   N     0.75495   0.65388   0.83271   0.00000  Uiso   1.00
N228   N     0.37339   0.69668   0.76437   0.00000  Uiso   1.00
N229   N     0.58457   0.73200   0.06698   0.00000  Uiso   1.00
N230   N     0.72551   0.57120   0.76480   0.00000  Uiso   1.00
C231   C     0.40682   0.24343   0.60601   0.00000  Uiso   1.00
C232   C     0.46647   0.25736   0.65179   0.00000  Uiso   1.00
C233   C     0.50023   0.22301   0.72810   0.00000  Uiso   1.00
C234   C     0.55352   0.24337   0.75953   0.00000  Uiso   1.00
C235   C     0.64330   0.25695   0.83717   0.00000  Uiso   1.00
C236   C     0.40828   0.24762   0.45958   0.00000  Uiso   1.00
C237   C     0.39309   0.20509   0.37428   0.00000  Uiso   1.00
C238   C     0.39740   0.21725   0.24391   0.00000  Uiso   1.00
C239   C     0.39678   0.21573   0.02313   0.00000  Uiso   1.00
C240   C     0.36944   0.29193   0.65192   0.00000  Uiso   1.00
C241   C     0.32160   0.28666   0.72831   0.00000  Uiso   1.00
C242   C     0.29320   0.33614   0.75985   0.00000  Uiso   1.00
C243   C     0.23229   0.40342   0.83770   0.00000  Uiso   1.00
C244   C     0.44144   0.34065   0.52614   0.00000  Uiso   1.00
C245   C     0.48528   0.31017   0.60840   0.00000  Uiso   1.00
C246   C     0.53854   0.33058   0.63973   0.00000  Uiso   1.00
C247   C     0.57237   0.29627   0.71608   0.00000  Uiso   1.00
C248   C     0.42708   0.30043   0.41619   0.00000  Uiso   1.00
C249   C     0.43140   0.31266   0.28591   0.00000  Uiso   1.00
C250   C     0.41624   0.27016   0.20044   0.00000  Uiso   1.00
C251   C     0.38825   0.34474   0.60854   0.00000  Uiso   1.00
C252   C     0.35991   0.39423   0.63995   0.00000  Uiso   1.00
C253   C     0.31204   0.38904   0.71638   0.00000  Uiso   1.00
H254   H     0.39218   0.20231   0.63978   0.00000  Uiso   1.00
H255   H     0.48566   0.18215   0.76165   0.00000  Uiso   1.00
H256   H     0.37854   0.16423   0.40789   0.00000  Uiso   1.00
H257   H     0.30706   0.24579   0.76187   0.00000  Uiso   1.00
H258   H     0.59760   0.18306   0.87759   0.00000  Uiso   1.00
H259   H     0.37171   0.14529   0.13166   0.00000  Uiso   1.00
H260   H     0.22098   0.31728   0.87809   0.00000  Uiso   1.00
H261   H     0.45609   0.38177   0.49236   0.00000  Uiso   1.00
H262   H     0.55308   0.37145   0.60614   0.00000  Uiso   1.00
H263   H     0.44596   0.35353   0.25238   0.00000  Uiso   1.00
H264   H     0.37448   0.43509   0.60636   0.00000  Uiso   1.00
H265   H     0.65233   0.33671   0.75137   0.00000  Uiso   1.00
H266   H     0.42643   0.29894   0.00544   0.00000  Uiso   1.00
H267   H     0.27570   0.47092   0.75187   0.00000  Uiso   1.00
O268   O     0.68762   0.24985   0.89195   0.00000  Uiso   1.00
O269   O     0.39125   0.20030   0.91333   0.00000  Uiso   1.00
O270   O     0.19350   0.42594   0.89263   0.00000  Uiso   1.00
N271   N     0.59717   0.22065   0.83229   0.00000  Uiso   1.00
N272   N     0.38598   0.18533   0.13489   0.00000  Uiso   1.00
N273   N     0.24505   0.34612   0.83271   0.00000  Uiso   1.00
N274   N     0.62661   0.30332   0.76437   0.00000  Uiso   1.00
N275   N     0.41543   0.26800   0.06698   0.00000  Uiso   1.00
N276   N     0.27449   0.42880   0.76480   0.00000  Uiso   1.00
C277   C     0.24343   0.59318   0.39399   0.00000  Uiso   1.00
C278   C     0.25736   0.53353   0.34821   0.00000  Uiso   1.00
C279   C     0.22301   0.49977   0.27190   0.00000  Uiso   1.00
C280   C     0.24337   0.44648   0.24047   0.00000  Uiso   1.00
C281   C     0.25695   0.35670   0.16283   0.00000  Uiso   1.00
C282   C     0.24762   0.59172   0.54042   0.00000  Uiso   1.00
C283   C     0.20509   0.60691   0.62572   0.00000  Uiso   1.00
C284   C     0.21725   0.60260   0.75609   0.00000  Uiso   1.00
C285   C     0.21573   0.60322   0.97687   0.00000  Uiso   1.00
C286   C     0.29193   0.63056   0.34808   0.00000  Uiso   1.00
C287   C     0.28666   0.67840   0.27169   0.00000  Uiso   1.00
C288   C     0.33614   0.70680   0.24015   0.00000  Uiso   1.00
C289   C     0.40342   0.76771   0.16230   0.00000  Uiso   1.00
C290   C     0.34065   0.55856   0.47386   0.00000  Uiso   1.00
C291   C     0.31017   0.51472   0.39160   0.00000  Uiso   1.00
C292   C     0.33058   0.46146   0.36027   0.00000  Uiso   1.00
C293   C     0.29627   0.42763   0.28392   0.00000  Uiso   1.00
C294   C     0.30043   0.57292   0.58381   0.00000  Uiso   1.00
C295   C     0.31266   0.56860   0.71409   0.00000  Uiso   1.00
C296   C     0.27016   0.58376   0.79956   0.00000  Uiso   1.00
C297   C     0.34474   0.61175   0.39146   0.00000  Uiso   1.00
C298   C     0.39423   0.64009   0.36005   0.00000  Uiso   1.00
C299   C     0.38904   0.68796   0.28362   0.00000  Uiso   1.00
H300   H     0.20231   0.60782   0.36022   0.00000  Uiso   1.00
H301   H     0.18215   0.51434   0.23835   0.00000  Uiso   1.00
H302   H     0.16423   0.62146   0.59211   0.00000  Uiso   1.00
H303   H     0.24579   0.69294   0.23813   0.00000  Uiso   1.00
H304   H     0.18306   0.40240   0.12241   0.00000  Uiso   1.00
H305   H     0.14529   0.62829   0.86834   0.00000  Uiso   1.00
H306   H     0.31728   0.77902   0.12191   0.00000  Uiso   1.00
H307   H     0.38177   0.54391   0.50764   0.00000  Uiso   1.00
H308   H     0.37145   0.44692   0.39386   0.00000  Uiso   1.00
H309   H     0.35353   0.55404   0.74762   0.00000  Uiso   1.00
H310   H     0.43509   0.62552   0.39364   0.00000  Uiso   1.00
H311   H     0.33671   0.34767   0.24863   0.00000  Uiso   1.00
H312   H     0.29894   0.57357   0.99456   0.00000  Uiso   1.00
H313   H     0.47092   0.72430   0.24813   0.00000  Uiso   1.00
O314   O     0.24985   0.31238   0.10805   0.00000  Uiso   1.00
O315   O     0.20030   0.60875   0.08667   0.00000  Uiso   1.00
O316   O     0.42594   0.80650   0.10737   0.00000  Uiso   1.00
N317   N     0.22065   0.40283   0.16771   0.00000  Uiso   1.00
N318   N     0.18533   0.61402   0.86511   0.00000  Uiso   1.00
N319   N     0.34612   0.75495   0.16729   0.00000  Uiso   1.00
N320   N     0.30332   0.37339   0.23563   0.00000  Uiso   1.00
N321   N     0.26800   0.58457   0.93302   0.00000  Uiso   1.00
N322   N     0.42880   0.72551   0.23520   0.00000  Uiso   1.00
C323   C     0.75657   0.40682   0.39399   0.00000  Uiso   1.00
C324   C     0.74264   0.46647   0.34821   0.00000  Uiso   1.00
C325   C     0.77699   0.50023   0.27190   0.00000  Uiso   1.00
C326   C     0.75663   0.55352   0.24047   0.00000  Uiso   1.00
C327   C     0.74305   0.64330   0.16283   0.00000  Uiso   1.00
C328   C     0.75238   0.40828   0.54042   0.00000  Uiso   1.00
C329   C     0.79491   0.39309   0.62572   0.00000  Uiso   1.00
C330   C     0.78275   0.39740   0.75609   0.00000  Uiso   1.00
C331   C     0.78427   0.39678   0.97687   0.00000  Uiso   1.00
C332   C     0.70807   0.36944   0.34808   0.00000  Uiso   1.00
C333   C     0.71334   0.32160   0.27169   0.00000  Uiso   1.00
C334   C     0.66386   0.29320   0.24015   0.00000  Uiso   1.00
C335   C     0.59658   0.23229   0.16230   0.00000  Uiso   1.00
C336   C     0.65935   0.44144   0.47386   0.00000  Uiso   1.00
C337   C     0.68983   0.48528   0.39160   0.00000  Uiso   1.00
C338   C     0.66942   0.53854   0.36027   0.00000  Uiso   1.00
C339   C     0.70373   0.57237   0.28392   0.00000  Uiso   1.00
C340   C     0.69957   0.42708   0.58381   0.00000  Uiso   1.00
C341   C     0.68734   0.43140   0.71409   0.00000  Uiso   1.00
C342   C     0.72984   0.41624   0.79956   0.00000  Uiso   1.00
C343   C     0.65526   0.38825   0.39146   0.00000  Uiso   1.00
C344   C     0.60577   0.35991   0.36005   0.00000  Uiso   1.00
C345   C     0.61096   0.31204   0.28362   0.00000  Uiso   1.00
H346   H     0.79769   0.39218   0.36022   0.00000  Uiso   1.00
H347   H     0.81785   0.48566   0.23835   0.00000  Uiso   1.00
H348   H     0.83577   0.37854   0.59211   0.00000  Uiso   1.00
H349   H     0.75421   0.30706   0.23813   0.00000  Uiso   1.00
H350   H     0.81694   0.59760   0.12241   0.00000  Uiso   1.00
H351   H     0.85471   0.37171   0.86834   0.00000  Uiso   1.00
H352   H     0.68272   0.22098   0.12191   0.00000  Uiso   1.00
H353   H     0.61823   0.45609   0.50764   0.00000  Uiso   1.00
H354   H     0.62855   0.55308   0.39386   0.00000  Uiso   1.00
H355   H     0.64647   0.44596   0.74762   0.00000  Uiso   1.00
H356   H     0.56491   0.37448   0.39364   0.00000  Uiso   1.00
H357   H     0.66329   0.65233   0.24863   0.00000  Uiso   1.00
H358   H     0.70106   0.42643   0.99456   0.00000  Uiso   1.00
H359   H     0.52908   0.27570   0.24813   0.00000  Uiso   1.00
O360   O     0.75015   0.68762   0.10805   0.00000  Uiso   1.00
O361   O     0.79970   0.39125   0.08667   0.00000  Uiso   1.00
O362   O     0.57406   0.19350   0.10737   0.00000  Uiso   1.00
N363   N     0.77935   0.59717   0.16771   0.00000  Uiso   1.00
N364   N     0.81467   0.38598   0.86511   0.00000  Uiso   1.00
N365   N     0.65388   0.24505   0.16729   0.00000  Uiso   1.00
N366   N     0.69668   0.62661   0.23563   0.00000  Uiso   1.00
N367   N     0.73200   0.41543   0.93302   0.00000  Uiso   1.00
N368   N     0.57120   0.27449   0.23520   0.00000  Uiso   1.00
