data_job_04322
_audit_creation_date              2018-12-19
_audit_creation_method            'Materials Studio'
_symmetry_space_group_name_H-M    'P1'
_symmetry_Int_Tables_number       1
_symmetry_cell_setting            triclinic
loop_
_symmetry_equiv_pos_as_xyz
  x,y,z
_cell_length_a                    12.4100
_cell_length_b                    19.8401
_cell_length_c                    10.2578
_cell_angle_alpha                 90.0000
_cell_angle_beta                  84.6656
_cell_angle_gamma                 90.0000
loop_
_atom_site_label
_atom_site_type_symbol
_atom_site_fract_x
_atom_site_fract_y
_atom_site_fract_z
_atom_site_U_iso_or_equiv
_atom_site_adp_type
_atom_site_occupancy
C1     C     0.58296   0.54369   0.42843   0.00000  Uiso   1.00
C2     C     0.56674   0.60121   0.52690   0.00000  Uiso   1.00
C3     C     0.57641   0.59646   0.66029   0.00000  Uiso   1.00
C4     C     0.55837   0.65484   0.73371   0.00000  Uiso   1.00
C5     C     0.53721   0.73488   0.89544   0.00000  Uiso   1.00
C6     C     0.47849   0.53923   0.36151   0.00000  Uiso   1.00
C7     C     0.41396   0.48237   0.35582   0.00000  Uiso   1.00
C8     C     0.32164   0.48858   0.28999   0.00000  Uiso   1.00
C9     C     0.16350   0.47239   0.19486   0.00000  Uiso   1.00
C10    C     0.66989   0.56746   0.32370   0.00000  Uiso   1.00
C11    C     0.76630   0.53432   0.28619   0.00000  Uiso   1.00
C12    C     0.83512   0.56429   0.18850   0.00000  Uiso   1.00
C13    C     0.97417   0.59193   0.03467   0.00000  Uiso   1.00
C14    C     0.53373   0.65582   0.32163   0.00000  Uiso   1.00
C15    C     0.54000   0.66212   0.46889   0.00000  Uiso   1.00
C16    C     0.52195   0.72052   0.54212   0.00000  Uiso   1.00
C17    C     0.53159   0.71586   0.67559   0.00000  Uiso   1.00
C18    C     0.45175   0.60014   0.30350   0.00000  Uiso   1.00
C19    C     0.35950   0.60643   0.23765   0.00000  Uiso   1.00
C20    C     0.29485   0.54960   0.23187   0.00000  Uiso   1.00
C21    C     0.64316   0.62837   0.26569   0.00000  Uiso   1.00
C22    C     0.71184   0.65839   0.16803   0.00000  Uiso   1.00
C23    C     0.80833   0.62531   0.13038   0.00000  Uiso   1.00
H24    H     0.60377   0.49627   0.47359   0.00000  Uiso   1.00
H25    H     0.59709   0.54931   0.70515   0.00000  Uiso   1.00
H26    H     0.43468   0.43524   0.40071   0.00000  Uiso   1.00
H27    H     0.78696   0.48719   0.33110   0.00000  Uiso   1.00
H28    H     0.57787   0.63497   0.93629   0.00000  Uiso   1.00
H29    H     0.23543   0.39445   0.29433   0.00000  Uiso   1.00
H30    H     0.97828   0.50399   0.14754   0.00000  Uiso   1.00
H31    H     0.51291   0.70324   0.27646   0.00000  Uiso   1.00
H32    H     0.50126   0.76765   0.49720   0.00000  Uiso   1.00
H33    H     0.33884   0.65358   0.19276   0.00000  Uiso   1.00
H34    H     0.69112   0.70552   0.12316   0.00000  Uiso   1.00
H35    H     0.50008   0.81218   0.76751   0.00000  Uiso   1.00
H36    H     0.15764   0.57165   0.12555   0.00000  Uiso   1.00
H37    H     0.90049   0.68120   0.97877   0.00000  Uiso   1.00
O38    O     0.53291   0.76220   0.00068   0.00000  Uiso   1.00
O39    O     0.08366   0.44664   0.15843   0.00000  Uiso   1.00
O40    O     0.05826   0.59035   0.96586   0.00000  Uiso   1.00
N41    N     0.56118   0.66784   0.86627   0.00000  Uiso   1.00
N42    N     0.24101   0.44297   0.26610   0.00000  Uiso   1.00
N43    N     0.93550   0.54537   0.12884   0.00000  Uiso   1.00
N44    N     0.51932   0.76320   0.77545   0.00000  Uiso   1.00
N45    N     0.19915   0.53832   0.17528   0.00000  Uiso   1.00
N46    N     0.89365   0.64072   0.03802   0.00000  Uiso   1.00
C47    C     0.04856   0.44056   0.73078   0.00000  Uiso   1.00
C48    C     0.06418   0.38487   0.62830   0.00000  Uiso   1.00
C49    C     0.05310   0.39203   0.49563   0.00000  Uiso   1.00
C50    C     0.07081   0.33503   0.41806   0.00000  Uiso   1.00
C51    C     0.09090   0.25799   0.25081   0.00000  Uiso   1.00
C52    C     0.15379   0.44389   0.79633   0.00000  Uiso   1.00
C53    C     0.21805   0.50068   0.80496   0.00000  Uiso   1.00
C54    C     0.31119   0.49336   0.86887   0.00000  Uiso   1.00
C55    C     0.47036   0.50796   0.96258   0.00000  Uiso   1.00
C56    C     0.96277   0.41482   0.83498   0.00000  Uiso   1.00
C57    C     0.86641   0.44717   0.87613   0.00000  Uiso   1.00
C58    C     0.79873   0.41538   0.97260   0.00000  Uiso   1.00
C59    C     0.66130   0.38484   0.12632   0.00000  Uiso   1.00
C60    C     0.09971   0.32660   0.82895   0.00000  Uiso   1.00
C61    C     0.09197   0.32298   0.68162   0.00000  Uiso   1.00
C62    C     0.10969   0.26595   0.60424   0.00000  Uiso   1.00
C63    C     0.09864   0.27302   0.47148   0.00000  Uiso   1.00
C64    C     0.18158   0.38200   0.84965   0.00000  Uiso   1.00
C65    C     0.27464   0.37460   0.91357   0.00000  Uiso   1.00
C66    C     0.33903   0.43135   0.92229   0.00000  Uiso   1.00
C67    C     0.99055   0.35292   0.88830   0.00000  Uiso   1.00
C68    C     0.92301   0.32108   0.98474   0.00000  Uiso   1.00
C69    C     0.82657   0.35338   0.02602   0.00000  Uiso   1.00
H70    H     0.02693   0.48875   0.68927   0.00000  Uiso   1.00
H71    H     0.03161   0.43994   0.45440   0.00000  Uiso   1.00
H72    H     0.19652   0.54857   0.76370   0.00000  Uiso   1.00
H73    H     0.84494   0.49506   0.83485   0.00000  Uiso   1.00
H74    H     0.04908   0.35854   0.21751   0.00000  Uiso   1.00
H75    H     0.39679   0.58759   0.86972   0.00000  Uiso   1.00
H76    H     0.65542   0.47477   0.01976   0.00000  Uiso   1.00
H77    H     0.12134   0.27841   0.87047   0.00000  Uiso   1.00
H78    H     0.13120   0.21806   0.64553   0.00000  Uiso   1.00
H79    H     0.29611   0.32669   0.95483   0.00000  Uiso   1.00
H80    H     0.94453   0.27319   0.02598   0.00000  Uiso   1.00
H81    H     0.12992   0.17845   0.37264   0.00000  Uiso   1.00
H82    H     0.47763   0.40751   0.02486   0.00000  Uiso   1.00
H83    H     0.73625   0.29469   0.17489   0.00000  Uiso   1.00
O84    O     0.09432   0.23260   0.14383   0.00000  Uiso   1.00
O85    O     0.55048   0.53311   0.99953   0.00000  Uiso   1.00
O86    O     0.57781   0.38509   0.19636   0.00000  Uiso   1.00
N87    N     0.06674   0.32444   0.28489   0.00000  Uiso   1.00
N88    N     0.39183   0.53859   0.89465   0.00000  Uiso   1.00
N89    N     0.69872   0.43312   0.03495   0.00000  Uiso   1.00
N90    N     0.11023   0.22753   0.36837   0.00000  Uiso   1.00
N91    N     0.43533   0.44168   0.97813   0.00000  Uiso   1.00
N92    N     0.74221   0.33621   0.11842   0.00000  Uiso   1.00
C93    C     0.41704   0.04369   0.57157   0.00000  Uiso   1.00
C94    C     0.43326   0.10121   0.47310   0.00000  Uiso   1.00
C95    C     0.42359   0.09646   0.33971   0.00000  Uiso   1.00
C96    C     0.44163   0.15484   0.26629   0.00000  Uiso   1.00
C97    C     0.46279   0.23488   0.10456   0.00000  Uiso   1.00
C98    C     0.52151   0.03923   0.63849   0.00000  Uiso   1.00
C99    C     0.58604   0.98237   0.64418   0.00000  Uiso   1.00
C100   C     0.67836   0.98858   0.71001   0.00000  Uiso   1.00
C101   C     0.83650   0.97239   0.80514   0.00000  Uiso   1.00
C102   C     0.33011   0.06746   0.67630   0.00000  Uiso   1.00
C103   C     0.23370   0.03432   0.71381   0.00000  Uiso   1.00
C104   C     0.16488   0.06429   0.81150   0.00000  Uiso   1.00
C105   C     0.02583   0.09193   0.96533   0.00000  Uiso   1.00
C106   C     0.46627   0.15582   0.67837   0.00000  Uiso   1.00
C107   C     0.46000   0.16212   0.53111   0.00000  Uiso   1.00
C108   C     0.47805   0.22052   0.45788   0.00000  Uiso   1.00
C109   C     0.46841   0.21586   0.32441   0.00000  Uiso   1.00
C110   C     0.54825   0.10014   0.69650   0.00000  Uiso   1.00
C111   C     0.64050   0.10643   0.76235   0.00000  Uiso   1.00
C112   C     0.70515   0.04960   0.76813   0.00000  Uiso   1.00
C113   C     0.35684   0.12837   0.73431   0.00000  Uiso   1.00
C114   C     0.28816   0.15839   0.83197   0.00000  Uiso   1.00
C115   C     0.19167   0.12531   0.86962   0.00000  Uiso   1.00
H116   H     0.39623   0.99627   0.52641   0.00000  Uiso   1.00
H117   H     0.40291   0.04931   0.29485   0.00000  Uiso   1.00
H118   H     0.56532   0.93524   0.59929   0.00000  Uiso   1.00
H119   H     0.21304   0.98719   0.66890   0.00000  Uiso   1.00
H120   H     0.42213   0.13497   0.06371   0.00000  Uiso   1.00
H121   H     0.76457   0.89445   0.70567   0.00000  Uiso   1.00
H122   H     0.02172   0.00399   0.85246   0.00000  Uiso   1.00
H123   H     0.48709   0.20324   0.72354   0.00000  Uiso   1.00
H124   H     0.49874   0.26765   0.50280   0.00000  Uiso   1.00
H125   H     0.66116   0.15358   0.80724   0.00000  Uiso   1.00
H126   H     0.30888   0.20552   0.87684   0.00000  Uiso   1.00
H127   H     0.49992   0.31218   0.23249   0.00000  Uiso   1.00
H128   H     0.84236   0.07165   0.87445   0.00000  Uiso   1.00
H129   H     0.09951   0.18120   0.02123   0.00000  Uiso   1.00
O130   O     0.46709   0.26220   0.99932   0.00000  Uiso   1.00
O131   O     0.91634   0.94664   0.84157   0.00000  Uiso   1.00
O132   O     0.94174   0.09035   0.03414   0.00000  Uiso   1.00
N133   N     0.43882   0.16784   0.13373   0.00000  Uiso   1.00
N134   N     0.75899   0.94297   0.73390   0.00000  Uiso   1.00
N135   N     0.06450   0.04537   0.87116   0.00000  Uiso   1.00
N136   N     0.48068   0.26320   0.22455   0.00000  Uiso   1.00
N137   N     0.80085   0.03832   0.82472   0.00000  Uiso   1.00
N138   N     0.10635   0.14072   0.96198   0.00000  Uiso   1.00
C139   C     0.95144   0.94056   0.26922   0.00000  Uiso   1.00
C140   C     0.93582   0.88487   0.37170   0.00000  Uiso   1.00
C141   C     0.94690   0.89203   0.50437   0.00000  Uiso   1.00
C142   C     0.92919   0.83503   0.58194   0.00000  Uiso   1.00
C143   C     0.90910   0.75799   0.74919   0.00000  Uiso   1.00
C144   C     0.84621   0.94389   0.20367   0.00000  Uiso   1.00
C145   C     0.78195   0.00068   0.19504   0.00000  Uiso   1.00
C146   C     0.68881   0.99336   0.13113   0.00000  Uiso   1.00
C147   C     0.52964   0.00796   0.03742   0.00000  Uiso   1.00
C148   C     0.03723   0.91482   0.16502   0.00000  Uiso   1.00
C149   C     0.13359   0.94717   0.12387   0.00000  Uiso   1.00
C150   C     0.20127   0.91538   0.02740   0.00000  Uiso   1.00
C151   C     0.33870   0.88484   0.87368   0.00000  Uiso   1.00
C152   C     0.90029   0.82660   0.17105   0.00000  Uiso   1.00
C153   C     0.90803   0.82298   0.31838   0.00000  Uiso   1.00
C154   C     0.89031   0.76595   0.39576   0.00000  Uiso   1.00
C155   C     0.90136   0.77302   0.52852   0.00000  Uiso   1.00
C156   C     0.81842   0.88200   0.15035   0.00000  Uiso   1.00
C157   C     0.72536   0.87460   0.08643   0.00000  Uiso   1.00
C158   C     0.66097   0.93135   0.07771   0.00000  Uiso   1.00
C159   C     0.00945   0.85292   0.11170   0.00000  Uiso   1.00
C160   C     0.07699   0.82108   0.01526   0.00000  Uiso   1.00
C161   C     0.17343   0.85338   0.97398   0.00000  Uiso   1.00
H162   H     0.97307   0.98875   0.31073   0.00000  Uiso   1.00
H163   H     0.96839   0.93994   0.54560   0.00000  Uiso   1.00
H164   H     0.80348   0.04857   0.23630   0.00000  Uiso   1.00
H165   H     0.15506   0.99506   0.16515   0.00000  Uiso   1.00
H166   H     0.95092   0.85854   0.78249   0.00000  Uiso   1.00
H167   H     0.60321   0.08759   0.13028   0.00000  Uiso   1.00
H168   H     0.34458   0.97477   0.98024   0.00000  Uiso   1.00
H169   H     0.87866   0.77841   0.12953   0.00000  Uiso   1.00
H170   H     0.86880   0.71806   0.35447   0.00000  Uiso   1.00
H171   H     0.70389   0.82669   0.04517   0.00000  Uiso   1.00
H172   H     0.05547   0.77319   0.97402   0.00000  Uiso   1.00
H173   H     0.87008   0.67845   0.62736   0.00000  Uiso   1.00
H174   H     0.52237   0.90751   0.97514   0.00000  Uiso   1.00
H175   H     0.26375   0.79469   0.82511   0.00000  Uiso   1.00
O176   O     0.90568   0.73260   0.85617   0.00000  Uiso   1.00
O177   O     0.44952   0.03311   0.00047   0.00000  Uiso   1.00
O178   O     0.42219   0.88509   0.80364   0.00000  Uiso   1.00
N179   N     0.93326   0.82444   0.71511   0.00000  Uiso   1.00
N180   N     0.60817   0.03859   0.10535   0.00000  Uiso   1.00
N181   N     0.30128   0.93312   0.96505   0.00000  Uiso   1.00
N182   N     0.88977   0.72753   0.63163   0.00000  Uiso   1.00
N183   N     0.56467   0.94168   0.02187   0.00000  Uiso   1.00
N184   N     0.25779   0.83621   0.88158   0.00000  Uiso   1.00
