data_job_01307
_audit_creation_date              2018-12-19
_audit_creation_method            'Materials Studio'
_symmetry_space_group_name_H-M    'P1'
_symmetry_Int_Tables_number       1
_symmetry_cell_setting            triclinic
loop_
_symmetry_equiv_pos_as_xyz
  x,y,z
_cell_length_a                    14.8799
_cell_length_b                    16.0246
_cell_length_c                    24.6397
_cell_angle_alpha                 90.0000
_cell_angle_beta                  145.1519
_cell_angle_gamma                 90.0000
loop_
_atom_site_label
_atom_site_type_symbol
_atom_site_fract_x
_atom_site_fract_y
_atom_site_fract_z
_atom_site_U_iso_or_equiv
_atom_site_adp_type
_atom_site_occupancy
C1     C     0.21778   0.12755   0.50235   0.00000  Uiso   1.00
C2     C     0.15901   0.16021   0.52770   0.00000  Uiso   1.00
C3     C     0.20696   0.13214   0.60211   0.00000  Uiso   1.00
C4     C     0.13920   0.17003   0.61349   0.00000  Uiso   1.00
C5     C     0.06487   0.21103   0.66208   0.00000  Uiso   1.00
C6     C     0.07190   0.09956   0.39899   0.00000  Uiso   1.00
C7     C     0.04664   0.02050   0.36519   0.00000  Uiso   1.00
C8     C     0.90556   0.00734   0.26821   0.00000  Uiso   1.00
C9     C     0.69605   0.95420   0.11698   0.00000  Uiso   1.00
C10    C     0.28152   0.20320   0.50352   0.00000  Uiso   1.00
C11    C     0.43250   0.21128   0.55759   0.00000  Uiso   1.00
C12    C     0.46790   0.28537   0.54860   0.00000  Uiso   1.00
C13    C     0.58385   0.39315   0.55966   0.00000  Uiso   1.00
C14    C     0.01218   0.24476   0.39023   0.00000  Uiso   1.00
C15    C     0.04733   0.22387   0.46679   0.00000  Uiso   1.00
C16    C     0.97948   0.26182   0.47806   0.00000  Uiso   1.00
C17    C     0.02733   0.23382   0.55248   0.00000  Uiso   1.00
C18    C     0.96023   0.16322   0.33809   0.00000  Uiso   1.00
C19    C     0.81916   0.15018   0.24114   0.00000  Uiso   1.00
C20    C     0.79368   0.07112   0.20720   0.00000  Uiso   1.00
C21    C     0.16985   0.26687   0.44262   0.00000  Uiso   1.00
C22    C     0.20502   0.34096   0.43354   0.00000  Uiso   1.00
C23    C     0.35602   0.34915   0.48759   0.00000  Uiso   1.00
H24    H     0.30472   0.07798   0.54976   0.00000  Uiso   1.00
H25    H     0.29338   0.08286   0.64922   0.00000  Uiso   1.00
H26    H     0.13309   0.97124   0.41234   0.00000  Uiso   1.00
H27    H     0.51889   0.16200   0.60471   0.00000  Uiso   1.00
H28    H     0.23151   0.11633   0.73262   0.00000  Uiso   1.00
H29    H     0.89355   0.88098   0.23312   0.00000  Uiso   1.00
H30    H     0.70709   0.28322   0.63877   0.00000  Uiso   1.00
H31    H     0.92522   0.29433   0.34281   0.00000  Uiso   1.00
H32    H     0.89306   0.31109   0.43092   0.00000  Uiso   1.00
H33    H     0.73277   0.19947   0.19403   0.00000  Uiso   1.00
H34    H     0.11857   0.39022   0.38640   0.00000  Uiso   1.00
H35    H     0.90659   0.30157   0.55543   0.00000  Uiso   1.00
H36    H     0.56864   0.06622   0.05594   0.00000  Uiso   1.00
H37    H     0.38217   0.46846   0.46159   0.00000  Uiso   1.00
O38    O     0.05470   0.21605   0.70570   0.00000  Uiso   1.00
O39    O     0.61133   0.90729   0.05038   0.00000  Uiso   1.00
O40    O     0.67867   0.43501   0.58259   0.00000  Uiso   1.00
N41    N     0.15948   0.15764   0.67884   0.00000  Uiso   1.00
N42    N     0.84350   0.93760   0.21184   0.00000  Uiso   1.00
N43    N     0.60407   0.31365   0.59107   0.00000  Uiso   1.00
N44    N     0.98465   0.25731   0.58350   0.00000  Uiso   1.00
N45    N     0.66866   0.03727   0.11650   0.00000  Uiso   1.00
N46    N     0.42924   0.41332   0.49573   0.00000  Uiso   1.00
C47    C     0.78222   0.12755   0.99765   0.00000  Uiso   1.00
C48    C     0.84099   0.16021   0.97230   0.00000  Uiso   1.00
C49    C     0.79304   0.13214   0.89789   0.00000  Uiso   1.00
C50    C     0.86080   0.17003   0.88651   0.00000  Uiso   1.00
C51    C     0.93513   0.21103   0.83792   0.00000  Uiso   1.00
C52    C     0.92810   0.09956   0.10101   0.00000  Uiso   1.00
C53    C     0.95336   0.02050   0.13481   0.00000  Uiso   1.00
C54    C     0.09444   0.00734   0.23179   0.00000  Uiso   1.00
C55    C     0.30395   0.95420   0.38302   0.00000  Uiso   1.00
C56    C     0.71848   0.20320   0.99648   0.00000  Uiso   1.00
C57    C     0.56750   0.21128   0.94241   0.00000  Uiso   1.00
C58    C     0.53210   0.28537   0.95140   0.00000  Uiso   1.00
C59    C     0.41615   0.39315   0.94034   0.00000  Uiso   1.00
C60    C     0.98782   0.24476   0.10977   0.00000  Uiso   1.00
C61    C     0.95267   0.22387   0.03321   0.00000  Uiso   1.00
C62    C     0.02052   0.26182   0.02194   0.00000  Uiso   1.00
C63    C     0.97267   0.23382   0.94752   0.00000  Uiso   1.00
C64    C     0.03977   0.16322   0.16191   0.00000  Uiso   1.00
C65    C     0.18084   0.15018   0.25886   0.00000  Uiso   1.00
C66    C     0.20632   0.07112   0.29280   0.00000  Uiso   1.00
C67    C     0.83015   0.26687   0.05738   0.00000  Uiso   1.00
C68    C     0.79498   0.34096   0.06646   0.00000  Uiso   1.00
C69    C     0.64398   0.34915   0.01241   0.00000  Uiso   1.00
H70    H     0.69528   0.07798   0.95024   0.00000  Uiso   1.00
H71    H     0.70662   0.08286   0.85078   0.00000  Uiso   1.00
H72    H     0.86691   0.97124   0.08766   0.00000  Uiso   1.00
H73    H     0.48111   0.16200   0.89529   0.00000  Uiso   1.00
H74    H     0.76849   0.11633   0.76738   0.00000  Uiso   1.00
H75    H     0.10645   0.88098   0.26688   0.00000  Uiso   1.00
H76    H     0.29291   0.28322   0.86123   0.00000  Uiso   1.00
H77    H     0.07478   0.29433   0.15719   0.00000  Uiso   1.00
H78    H     0.10694   0.31109   0.06908   0.00000  Uiso   1.00
H79    H     0.26723   0.19947   0.30597   0.00000  Uiso   1.00
H80    H     0.88143   0.39022   0.11360   0.00000  Uiso   1.00
H81    H     0.09341   0.30157   0.94457   0.00000  Uiso   1.00
H82    H     0.43136   0.06622   0.44406   0.00000  Uiso   1.00
H83    H     0.61783   0.46846   0.03841   0.00000  Uiso   1.00
O84    O     0.94530   0.21605   0.79430   0.00000  Uiso   1.00
O85    O     0.38867   0.90729   0.44962   0.00000  Uiso   1.00
O86    O     0.32133   0.43501   0.91741   0.00000  Uiso   1.00
N87    N     0.84052   0.15764   0.82116   0.00000  Uiso   1.00
N88    N     0.15650   0.93760   0.28816   0.00000  Uiso   1.00
N89    N     0.39593   0.31365   0.90893   0.00000  Uiso   1.00
N90    N     0.01535   0.25731   0.91650   0.00000  Uiso   1.00
N91    N     0.33134   0.03727   0.38350   0.00000  Uiso   1.00
N92    N     0.57076   0.41332   0.00427   0.00000  Uiso   1.00
C93    C     0.78222   0.87245   0.49765   0.00000  Uiso   1.00
C94    C     0.84099   0.83979   0.47230   0.00000  Uiso   1.00
C95    C     0.79304   0.86786   0.39789   0.00000  Uiso   1.00
C96    C     0.86080   0.82997   0.38651   0.00000  Uiso   1.00
C97    C     0.93513   0.78897   0.33792   0.00000  Uiso   1.00
C98    C     0.92810   0.90044   0.60101   0.00000  Uiso   1.00
C99    C     0.95336   0.97950   0.63481   0.00000  Uiso   1.00
C100   C     0.09444   0.99266   0.73179   0.00000  Uiso   1.00
C101   C     0.30395   0.04580   0.88302   0.00000  Uiso   1.00
C102   C     0.71848   0.79680   0.49648   0.00000  Uiso   1.00
C103   C     0.56750   0.78872   0.44241   0.00000  Uiso   1.00
C104   C     0.53210   0.71463   0.45140   0.00000  Uiso   1.00
C105   C     0.41615   0.60685   0.44034   0.00000  Uiso   1.00
C106   C     0.98782   0.75524   0.60977   0.00000  Uiso   1.00
C107   C     0.95267   0.77613   0.53321   0.00000  Uiso   1.00
C108   C     0.02052   0.73818   0.52194   0.00000  Uiso   1.00
C109   C     0.97267   0.76618   0.44752   0.00000  Uiso   1.00
C110   C     0.03977   0.83678   0.66191   0.00000  Uiso   1.00
C111   C     0.18084   0.84982   0.75886   0.00000  Uiso   1.00
C112   C     0.20632   0.92888   0.79280   0.00000  Uiso   1.00
C113   C     0.83015   0.73313   0.55738   0.00000  Uiso   1.00
C114   C     0.79498   0.65904   0.56646   0.00000  Uiso   1.00
C115   C     0.64398   0.65085   0.51241   0.00000  Uiso   1.00
H116   H     0.69528   0.92202   0.45024   0.00000  Uiso   1.00
H117   H     0.70662   0.91714   0.35078   0.00000  Uiso   1.00
H118   H     0.86691   0.02876   0.58766   0.00000  Uiso   1.00
H119   H     0.48111   0.83800   0.39529   0.00000  Uiso   1.00
H120   H     0.76849   0.88367   0.26738   0.00000  Uiso   1.00
H121   H     0.10645   0.11902   0.76688   0.00000  Uiso   1.00
H122   H     0.29291   0.71678   0.36123   0.00000  Uiso   1.00
H123   H     0.07478   0.70567   0.65719   0.00000  Uiso   1.00
H124   H     0.10694   0.68891   0.56908   0.00000  Uiso   1.00
H125   H     0.26723   0.80053   0.80597   0.00000  Uiso   1.00
H126   H     0.88143   0.60978   0.61360   0.00000  Uiso   1.00
H127   H     0.09341   0.69843   0.44457   0.00000  Uiso   1.00
H128   H     0.43136   0.93378   0.94406   0.00000  Uiso   1.00
H129   H     0.61783   0.53154   0.53841   0.00000  Uiso   1.00
O130   O     0.94530   0.78395   0.29430   0.00000  Uiso   1.00
O131   O     0.38867   0.09271   0.94962   0.00000  Uiso   1.00
O132   O     0.32133   0.56499   0.41741   0.00000  Uiso   1.00
N133   N     0.84052   0.84236   0.32116   0.00000  Uiso   1.00
N134   N     0.15650   0.06240   0.78816   0.00000  Uiso   1.00
N135   N     0.39593   0.68635   0.40893   0.00000  Uiso   1.00
N136   N     0.01535   0.74269   0.41650   0.00000  Uiso   1.00
N137   N     0.33134   0.96273   0.88350   0.00000  Uiso   1.00
N138   N     0.57076   0.58668   0.50427   0.00000  Uiso   1.00
C139   C     0.21778   0.87245   0.00235   0.00000  Uiso   1.00
C140   C     0.15901   0.83979   0.02770   0.00000  Uiso   1.00
C141   C     0.20696   0.86786   0.10211   0.00000  Uiso   1.00
C142   C     0.13920   0.82997   0.11349   0.00000  Uiso   1.00
C143   C     0.06487   0.78897   0.16208   0.00000  Uiso   1.00
C144   C     0.07190   0.90044   0.89899   0.00000  Uiso   1.00
C145   C     0.04664   0.97950   0.86519   0.00000  Uiso   1.00
C146   C     0.90556   0.99266   0.76821   0.00000  Uiso   1.00
C147   C     0.69605   0.04580   0.61698   0.00000  Uiso   1.00
C148   C     0.28152   0.79680   0.00352   0.00000  Uiso   1.00
C149   C     0.43250   0.78872   0.05759   0.00000  Uiso   1.00
C150   C     0.46790   0.71463   0.04860   0.00000  Uiso   1.00
C151   C     0.58385   0.60685   0.05966   0.00000  Uiso   1.00
C152   C     0.01218   0.75524   0.89023   0.00000  Uiso   1.00
C153   C     0.04733   0.77613   0.96679   0.00000  Uiso   1.00
C154   C     0.97948   0.73818   0.97806   0.00000  Uiso   1.00
C155   C     0.02733   0.76618   0.05248   0.00000  Uiso   1.00
C156   C     0.96023   0.83678   0.83809   0.00000  Uiso   1.00
C157   C     0.81916   0.84982   0.74114   0.00000  Uiso   1.00
C158   C     0.79368   0.92888   0.70720   0.00000  Uiso   1.00
C159   C     0.16985   0.73313   0.94262   0.00000  Uiso   1.00
C160   C     0.20502   0.65904   0.93354   0.00000  Uiso   1.00
C161   C     0.35602   0.65085   0.98759   0.00000  Uiso   1.00
H162   H     0.30472   0.92202   0.04976   0.00000  Uiso   1.00
H163   H     0.29338   0.91714   0.14922   0.00000  Uiso   1.00
H164   H     0.13309   0.02876   0.91234   0.00000  Uiso   1.00
H165   H     0.51889   0.83800   0.10471   0.00000  Uiso   1.00
H166   H     0.23151   0.88367   0.23262   0.00000  Uiso   1.00
H167   H     0.89355   0.11902   0.73312   0.00000  Uiso   1.00
H168   H     0.70709   0.71678   0.13877   0.00000  Uiso   1.00
H169   H     0.92522   0.70567   0.84281   0.00000  Uiso   1.00
H170   H     0.89306   0.68891   0.93092   0.00000  Uiso   1.00
H171   H     0.73277   0.80053   0.69403   0.00000  Uiso   1.00
H172   H     0.11857   0.60978   0.88640   0.00000  Uiso   1.00
H173   H     0.90659   0.69843   0.05543   0.00000  Uiso   1.00
H174   H     0.56864   0.93378   0.55594   0.00000  Uiso   1.00
H175   H     0.38217   0.53154   0.96159   0.00000  Uiso   1.00
O176   O     0.05470   0.78395   0.20570   0.00000  Uiso   1.00
O177   O     0.61133   0.09271   0.55038   0.00000  Uiso   1.00
O178   O     0.67867   0.56499   0.08259   0.00000  Uiso   1.00
N179   N     0.15948   0.84236   0.17884   0.00000  Uiso   1.00
N180   N     0.84350   0.06240   0.71184   0.00000  Uiso   1.00
N181   N     0.60407   0.68635   0.09107   0.00000  Uiso   1.00
N182   N     0.98465   0.74269   0.08350   0.00000  Uiso   1.00
N183   N     0.66866   0.96273   0.61650   0.00000  Uiso   1.00
N184   N     0.42924   0.58668   0.99573   0.00000  Uiso   1.00
