data_job_06688
_audit_creation_date              2018-12-19
_audit_creation_method            'Materials Studio'
_symmetry_space_group_name_H-M    'P1'
_symmetry_Int_Tables_number       1
_symmetry_cell_setting            triclinic
loop_
_symmetry_equiv_pos_as_xyz
  x,y,z
_cell_length_a                    18.4520
_cell_length_b                    21.9498
_cell_length_c                    22.9221
_cell_angle_alpha                 73.3421
_cell_angle_beta                  97.9628
_cell_angle_gamma                 75.0943
loop_
_atom_site_label
_atom_site_type_symbol
_atom_site_fract_x
_atom_site_fract_y
_atom_site_fract_z
_atom_site_U_iso_or_equiv
_atom_site_adp_type
_atom_site_occupancy
C1     C     0.31339   0.71866   0.93579   0.00000  Uiso   1.00
C2     C     0.29561   0.75055   0.86481   0.00000  Uiso   1.00
C3     C     0.34854   0.74510   0.82759   0.00000  Uiso   1.00
C4     C     0.32085   0.77800   0.76363   0.00000  Uiso   1.00
C5     C     0.30509   0.82191   0.65734   0.00000  Uiso   1.00
C6     C     0.28635   0.77591   0.96079   0.00000  Uiso   1.00
C7     C     0.33150   0.79176   0.00426   0.00000  Uiso   1.00
C8     C     0.29602   0.84601   0.02109   0.00000  Uiso   1.00
C9     C     0.26588   0.92925   0.06384   0.00000  Uiso   1.00
C10    C     0.25999   0.67623   0.94929   0.00000  Uiso   1.00
C11    C     0.28298   0.60828   0.98312   0.00000  Uiso   1.00
C12    C     0.22529   0.57861   0.99029   0.00000  Uiso   1.00
C13    C     0.15422   0.50710   0.01519   0.00000  Uiso   1.00
C14    C     0.17007   0.78680   0.88840   0.00000  Uiso   1.00
C15    C     0.21776   0.78756   0.83908   0.00000  Uiso   1.00
C16    C     0.18998   0.82048   0.77516   0.00000  Uiso   1.00
C17    C     0.24287   0.81508   0.73784   0.00000  Uiso   1.00
C18    C     0.20851   0.81292   0.93505   0.00000  Uiso   1.00
C19    C     0.17295   0.86715   0.95183   0.00000  Uiso   1.00
C20    C     0.21804   0.88309   0.99531   0.00000  Uiso   1.00
C21    C     0.18215   0.71324   0.92355   0.00000  Uiso   1.00
C22    C     0.12442   0.68367   0.93068   0.00000  Uiso   1.00
C23    C     0.14731   0.61569   0.96450   0.00000  Uiso   1.00
H24    H     0.37399   0.68985   0.95583   0.00000  Uiso   1.00
H25    H     0.40878   0.71645   0.84753   0.00000  Uiso   1.00
H26    H     0.39174   0.76311   0.02417   0.00000  Uiso   1.00
H27    H     0.34322   0.57966   0.00303   0.00000  Uiso   1.00
H28    H     0.41303   0.76229   0.71610   0.00000  Uiso   1.00
H29    H     0.37709   0.86065   0.08858   0.00000  Uiso   1.00
H30    H     0.27478   0.47381   0.04400   0.00000  Uiso   1.00
H31    H     0.10947   0.81562   0.86836   0.00000  Uiso   1.00
H32    H     0.12974   0.84912   0.75525   0.00000  Uiso   1.00
H33    H     0.11271   0.89578   0.93190   0.00000  Uiso   1.00
H34    H     0.06419   0.71233   0.91076   0.00000  Uiso   1.00
H35    H     0.18655   0.86997   0.64121   0.00000  Uiso   1.00
H36    H     0.15062   0.96833   0.01370   0.00000  Uiso   1.00
H37    H     0.04830   0.58149   0.96911   0.00000  Uiso   1.00
O38    O     0.31791   0.83592   0.60583   0.00000  Uiso   1.00
O39    O     0.27076   0.96495   0.09452   0.00000  Uiso   1.00
O40    O     0.13653   0.45743   0.03603   0.00000  Uiso   1.00
N41    N     0.35694   0.78302   0.71400   0.00000  Uiso   1.00
N42    N     0.32335   0.87499   0.06224   0.00000  Uiso   1.00
N43    N     0.22769   0.51333   0.02057   0.00000  Uiso   1.00
N44    N     0.23508   0.84096   0.67370   0.00000  Uiso   1.00
N45    N     0.20149   0.93293   0.02194   0.00000  Uiso   1.00
N46    N     0.10583   0.57127   0.98027   0.00000  Uiso   1.00
C47    C     0.98891   0.35388   0.76824   0.00000  Uiso   1.00
C48    C     0.96491   0.40111   0.80457   0.00000  Uiso   1.00
C49    C     0.00843   0.43745   0.82447   0.00000  Uiso   1.00
C50    C     0.97629   0.47784   0.85706   0.00000  Uiso   1.00
C51    C     0.95015   0.55057   0.91164   0.00000  Uiso   1.00
C52    C     0.98409   0.28635   0.80682   0.00000  Uiso   1.00
C53    C     0.04374   0.22619   0.82861   0.00000  Uiso   1.00
C54    C     0.02774   0.16997   0.86310   0.00000  Uiso   1.00
C55    C     0.03136   0.06451   0.92114   0.00000  Uiso   1.00
C56    C     0.92559   0.37904   0.70874   0.00000  Uiso   1.00
C57    C     0.93604   0.39681   0.64805   0.00000  Uiso   1.00
C58    C     0.87078   0.41862   0.59995   0.00000  Uiso   1.00
C59    C     0.78356   0.45709   0.50570   0.00000  Uiso   1.00
C60    C     0.85444   0.36099   0.79072   0.00000  Uiso   1.00
C61    C     0.89187   0.40497   0.81678   0.00000  Uiso   1.00
C62    C     0.85966   0.44532   0.84934   0.00000  Uiso   1.00
C63    C     0.90312   0.48171   0.86929   0.00000  Uiso   1.00
C64    C     0.91106   0.29020   0.81903   0.00000  Uiso   1.00
C65    C     0.89496   0.23406   0.85349   0.00000  Uiso   1.00
C66    C     0.95457   0.17383   0.87533   0.00000  Uiso   1.00
C67    C     0.85255   0.38291   0.72094   0.00000  Uiso   1.00
C68    C     0.78726   0.40468   0.67293   0.00000  Uiso   1.00
C69    C     0.79761   0.42248   0.61219   0.00000  Uiso   1.00
H70    H     0.04578   0.35087   0.75873   0.00000  Uiso   1.00
H71    H     0.06496   0.43445   0.81502   0.00000  Uiso   1.00
H72    H     0.10025   0.22322   0.81915   0.00000  Uiso   1.00
H73    H     0.99257   0.39382   0.63862   0.00000  Uiso   1.00
H74    H     0.05402   0.52879   0.88283   0.00000  Uiso   1.00
H75    H     0.12844   0.08340   0.89153   0.00000  Uiso   1.00
H76    H     0.90137   0.44314   0.51084   0.00000  Uiso   1.00
H77    H     0.79758   0.36399   0.80022   0.00000  Uiso   1.00
H78    H     0.80313   0.44829   0.85879   0.00000  Uiso   1.00
H79    H     0.83843   0.23706   0.86292   0.00000  Uiso   1.00
H80    H     0.73075   0.40766   0.68239   0.00000  Uiso   1.00
H81    H     0.84152   0.54003   0.91835   0.00000  Uiso   1.00
H82    H     0.91594   0.09464   0.92705   0.00000  Uiso   1.00
H83    H     0.68886   0.45438   0.54637   0.00000  Uiso   1.00
O84    O     0.95591   0.58961   0.93838   0.00000  Uiso   1.00
O85    O     0.05354   0.00528   0.94978   0.00000  Uiso   1.00
O86    O     0.75563   0.47725   0.45034   0.00000  Uiso   1.00
N87    N     0.00324   0.51988   0.88314   0.00000  Uiso   1.00
N88    N     0.07282   0.10347   0.89128   0.00000  Uiso   1.00
N89    N     0.86053   0.43977   0.53538   0.00000  Uiso   1.00
N90    N     0.88889   0.52592   0.90225   0.00000  Uiso   1.00
N91    N     0.95847   0.10951   0.91040   0.00000  Uiso   1.00
N92    N     0.74618   0.44582   0.55449   0.00000  Uiso   1.00
C93    C     0.21640   0.85296   0.43873   0.00000  Uiso   1.00
C94    C     0.25644   0.77820   0.45512   0.00000  Uiso   1.00
C95    C     0.30925   0.73656   0.51039   0.00000  Uiso   1.00
C96    C     0.33938   0.66965   0.51641   0.00000  Uiso   1.00
C97    C     0.40492   0.55728   0.54908   0.00000  Uiso   1.00
C98    C     0.23490   0.88722   0.37725   0.00000  Uiso   1.00
C99    C     0.26959   0.93725   0.36706   0.00000  Uiso   1.00
C100   C     0.28158   0.96212   0.30752   0.00000  Uiso   1.00
C101   C     0.31362   0.01904   0.21930   0.00000  Uiso   1.00
C102   C     0.13018   0.86276   0.42377   0.00000  Uiso   1.00
C103   C     0.07682   0.89224   0.45268   0.00000  Uiso   1.00
C104   C     0.00064   0.89653   0.43230   0.00000  Uiso   1.00
C105   C     0.87009   0.91547   0.41631   0.00000  Uiso   1.00
C106   C     0.17600   0.80818   0.35113   0.00000  Uiso   1.00
C107   C     0.23450   0.75388   0.40753   0.00000  Uiso   1.00
C108   C     0.26455   0.68701   0.41347   0.00000  Uiso   1.00
C109   C     0.31739   0.64528   0.46874   0.00000  Uiso   1.00
C110   C     0.21296   0.86290   0.32967   0.00000  Uiso   1.00
C111   C     0.22489   0.88771   0.27014   0.00000  Uiso   1.00
C112   C     0.25959   0.93776   0.25986   0.00000  Uiso   1.00
C113   C     0.10824   0.83844   0.37619   0.00000  Uiso   1.00
C114   C     0.03212   0.84269   0.35576   0.00000  Uiso   1.00
C115   C     0.97865   0.87216   0.38463   0.00000  Uiso   1.00
H116   H     0.23349   0.87190   0.47577   0.00000  Uiso   1.00
H117   H     0.32622   0.75540   0.54720   0.00000  Uiso   1.00
H118   H     0.28656   0.95607   0.40389   0.00000  Uiso   1.00
H119   H     0.09382   0.91106   0.48949   0.00000  Uiso   1.00
H120   H     0.41938   0.61553   0.60540   0.00000  Uiso   1.00
H121   H     0.33572   0.03865   0.30321   0.00000  Uiso   1.00
H122   H     0.92930   0.94375   0.48374   0.00000  Uiso   1.00
H123   H     0.15891   0.78924   0.31408   0.00000  Uiso   1.00
H124   H     0.24756   0.66821   0.37664   0.00000  Uiso   1.00
H125   H     0.20790   0.86887   0.23333   0.00000  Uiso   1.00
H126   H     0.01516   0.82386   0.31894   0.00000  Uiso   1.00
H127   H     0.35554   0.54476   0.46697   0.00000  Uiso   1.00
H128   H     0.27188   0.96789   0.16478   0.00000  Uiso   1.00
H129   H     0.86545   0.87297   0.34531   0.00000  Uiso   1.00
O130   O     0.44714   0.50202   0.58025   0.00000  Uiso   1.00
O131   O     0.33737   0.05716   0.18379   0.00000  Uiso   1.00
O132   O     0.80415   0.93263   0.42063   0.00000  Uiso   1.00
N133   N     0.39218   0.61548   0.56424   0.00000  Uiso   1.00
N134   N     0.31397   0.01107   0.28172   0.00000  Uiso   1.00
N135   N     0.93400   0.92235   0.45048   0.00000  Uiso   1.00
N136   N     0.35782   0.57740   0.48975   0.00000  Uiso   1.00
N137   N     0.27962   0.97299   0.20723   0.00000  Uiso   1.00
N138   N     0.89964   0.88427   0.37599   0.00000  Uiso   1.00
C139   C     0.64129   0.10434   0.28052   0.00000  Uiso   1.00
C140   C     0.57923   0.16253   0.22967   0.00000  Uiso   1.00
C141   C     0.55864   0.22892   0.22682   0.00000  Uiso   1.00
C142   C     0.50049   0.27464   0.17652   0.00000  Uiso   1.00
C143   C     0.40967   0.36805   0.10451   0.00000  Uiso   1.00
C144   C     0.69732   0.07205   0.24683   0.00000  Uiso   1.00
C145   C     0.77602   0.06235   0.25843   0.00000  Uiso   1.00
C146   C     0.81727   0.03189   0.22259   0.00000  Uiso   1.00
C147   C     0.90980   0.98477   0.17726   0.00000  Uiso   1.00
C148   C     0.60163   0.05318   0.30730   0.00000  Uiso   1.00
C149   C     0.59989   0.02760   0.36974   0.00000  Uiso   1.00
C150   C     0.56059   0.98125   0.38481   0.00000  Uiso   1.00
C151   C     0.50454   0.90484   0.43336   0.00000  Uiso   1.00
C152   C     0.57463   0.06748   0.19625   0.00000  Uiso   1.00
C153   C     0.54303   0.14251   0.18390   0.00000  Uiso   1.00
C154   C     0.48489   0.18814   0.13359   0.00000  Uiso   1.00
C155   C     0.46422   0.25459   0.13068   0.00000  Uiso   1.00
C156   C     0.66112   0.05203   0.20107   0.00000  Uiso   1.00
C157   C     0.70227   0.02157   0.16520   0.00000  Uiso   1.00
C158   C     0.78100   0.01183   0.17674   0.00000  Uiso   1.00
C159   C     0.56542   0.03316   0.26153   0.00000  Uiso   1.00
C160   C     0.52613   0.98683   0.27651   0.00000  Uiso   1.00
C161   C     0.52432   0.96119   0.33896   0.00000  Uiso   1.00
H162   H     0.66948   0.11992   0.31615   0.00000  Uiso   1.00
H163   H     0.58668   0.24440   0.26225   0.00000  Uiso   1.00
H164   H     0.80402   0.07784   0.29385   0.00000  Uiso   1.00
H165   H     0.62791   0.04311   0.40514   0.00000  Uiso   1.00
H166   H     0.47894   0.37357   0.18229   0.00000  Uiso   1.00
H167   H     0.93721   0.02236   0.24895   0.00000  Uiso   1.00
H168   H     0.56586   0.94911   0.48363   0.00000  Uiso   1.00
H169   H     0.54644   0.05189   0.16062   0.00000  Uiso   1.00
H170   H     0.45688   0.17264   0.09818   0.00000  Uiso   1.00
H171   H     0.67423   0.00608   0.12979   0.00000  Uiso   1.00
H172   H     0.49812   0.97135   0.24108   0.00000  Uiso   1.00
H173   H     0.37359   0.31533   0.04913   0.00000  Uiso   1.00
H174   H     0.83187   0.96411   0.11580   0.00000  Uiso   1.00
H175   H     0.46051   0.89087   0.35046   0.00000  Uiso   1.00
O176   O     0.36959   0.42511   0.07743   0.00000  Uiso   1.00
O177   O     0.97083   0.96432   0.16490   0.00000  Uiso   1.00
O178   O     0.48362   0.86823   0.47278   0.00000  Uiso   1.00
N179   N     0.46642   0.34329   0.15953   0.00000  Uiso   1.00
N180   N     0.89488   0.01494   0.22185   0.00000  Uiso   1.00
N181   N     0.54771   0.94645   0.44125   0.00000  Uiso   1.00
N182   N     0.40974   0.31195   0.08788   0.00000  Uiso   1.00
N183   N     0.83820   0.98360   0.15019   0.00000  Uiso   1.00
N184   N     0.49103   0.91511   0.36959   0.00000  Uiso   1.00
C185   C     0.63521   0.17054   0.67016   0.00000  Uiso   1.00
C186   C     0.67472   0.13170   0.63168   0.00000  Uiso   1.00
C187   C     0.74869   0.12583   0.62261   0.00000  Uiso   1.00
C188   C     0.77432   0.08810   0.58587   0.00000  Uiso   1.00
C189   C     0.84279   0.03244   0.53022   0.00000  Uiso   1.00
C190   C     0.61149   0.12056   0.71895   0.00000  Uiso   1.00
C191   C     0.63228   0.10532   0.78325   0.00000  Uiso   1.00
C192   C     0.60467   0.05822   0.81996   0.00000  Uiso   1.00
C193   C     0.57492   0.98529   0.89979   0.00000  Uiso   1.00
C194   C     0.56049   0.22060   0.62618   0.00000  Uiso   1.00
C195   C     0.53838   0.28948   0.61249   0.00000  Uiso   1.00
C196   C     0.46782   0.32661   0.57110   0.00000  Uiso   1.00
C197   C     0.35889   0.40902   0.50688   0.00000  Uiso   1.00
C198   C     0.54920   0.11399   0.62103   0.00000  Uiso   1.00
C199   C     0.62801   0.10098   0.60500   0.00000  Uiso   1.00
C200   C     0.65353   0.06326   0.56826   0.00000  Uiso   1.00
C201   C     0.72752   0.05733   0.55914   0.00000  Uiso   1.00
C202   C     0.56477   0.08984   0.69227   0.00000  Uiso   1.00
C203   C     0.53712   0.04275   0.72889   0.00000  Uiso   1.00
C204   C     0.55787   0.02744   0.79323   0.00000  Uiso   1.00
C205   C     0.51377   0.18989   0.59949   0.00000  Uiso   1.00
C206   C     0.44323   0.22691   0.55813   0.00000  Uiso   1.00
C207   C     0.42102   0.29584   0.54437   0.00000  Uiso   1.00
H208   H     0.67158   0.19445   0.69094   0.00000  Uiso   1.00
H209   H     0.78483   0.14960   0.64328   0.00000  Uiso   1.00
H210   H     0.66842   0.12910   0.80389   0.00000  Uiso   1.00
H211   H     0.57455   0.31324   0.63314   0.00000  Uiso   1.00
H212   H     0.88979   0.08631   0.57869   0.00000  Uiso   1.00
H213   H     0.64433   0.04310   0.91734   0.00000  Uiso   1.00
H214   H     0.44637   0.43139   0.55730   0.00000  Uiso   1.00
H215   H     0.51283   0.09007   0.60025   0.00000  Uiso   1.00
H216   H     0.61737   0.03949   0.54761   0.00000  Uiso   1.00
H217   H     0.50097   0.01899   0.70823   0.00000  Uiso   1.00
H218   H     0.40709   0.20312   0.53748   0.00000  Uiso   1.00
H219   H     0.75387   0.99693   0.50105   0.00000  Uiso   1.00
H220   H     0.50841   0.95373   0.83970   0.00000  Uiso   1.00
H221   H     0.31045   0.34201   0.47966   0.00000  Uiso   1.00
O222   O     0.89347   0.01021   0.50690   0.00000  Uiso   1.00
O223   O     0.57142   0.95354   0.95119   0.00000  Uiso   1.00
O224   O     0.31171   0.46296   0.47883   0.00000  Uiso   1.00
N225   N     0.84345   0.07223   0.56763   0.00000  Uiso   1.00
N226   N     0.61397   0.03182   0.88425   0.00000  Uiso   1.00
N227   N     0.42888   0.39483   0.54766   0.00000  Uiso   1.00
N228   N     0.77031   0.02414   0.52585   0.00000  Uiso   1.00
N229   N     0.54083   0.98374   0.84247   0.00000  Uiso   1.00
N230   N     0.35575   0.34674   0.50588   0.00000  Uiso   1.00
C231   C     0.88560   0.56053   0.12104   0.00000  Uiso   1.00
C232   C     0.88083   0.53960   0.18947   0.00000  Uiso   1.00
C233   C     0.94287   0.50570   0.24055   0.00000  Uiso   1.00
C234   C     0.92647   0.49115   0.29937   0.00000  Uiso   1.00
C235   C     0.93059   0.45583   0.40451   0.00000  Uiso   1.00
C236   C     0.84615   0.63602   0.09404   0.00000  Uiso   1.00
C237   C     0.87904   0.68320   0.06487   0.00000  Uiso   1.00
C238   C     0.83344   0.74981   0.04335   0.00000  Uiso   1.00
C239   C     0.78371   0.86419   0.00028   0.00000  Uiso   1.00
C240   C     0.83426   0.52957   0.08895   0.00000  Uiso   1.00
C241   C     0.85713   0.48724   0.05549   0.00000  Uiso   1.00
C242   C     0.80152   0.46424   0.02967   0.00000  Uiso   1.00
C243   C     0.73331   0.41333   0.97870   0.00000  Uiso   1.00
C244   C     0.74615   0.59495   0.13468   0.00000  Uiso   1.00
C245   C     0.80509   0.55830   0.19688   0.00000  Uiso   1.00
C246   C     0.78859   0.54379   0.25564   0.00000  Uiso   1.00
C247   C     0.85059   0.50987   0.30680   0.00000  Uiso   1.00
C248   C     0.77041   0.65472   0.10145   0.00000  Uiso   1.00
C249   C     0.72476   0.72128   0.07996   0.00000  Uiso   1.00
C250   C     0.75756   0.76854   0.05077   0.00000  Uiso   1.00
C251   C     0.75852   0.54826   0.09636   0.00000  Uiso   1.00
C252   C     0.70285   0.52533   0.07058   0.00000  Uiso   1.00
C253   C     0.72564   0.48297   0.03709   0.00000  Uiso   1.00
H254   H     0.94457   0.54598   0.11526   0.00000  Uiso   1.00
H255   H     0.00148   0.49125   0.23479   0.00000  Uiso   1.00
H256   H     0.93765   0.66871   0.05914   0.00000  Uiso   1.00
H257   H     0.91575   0.47278   0.04976   0.00000  Uiso   1.00
H258   H     0.03117   0.43883   0.37058   0.00000  Uiso   1.00
H259   H     0.89658   0.81303   0.00018   0.00000  Uiso   1.00
H260   H     0.85040   0.39988   0.98041   0.00000  Uiso   1.00
H261   H     0.68718   0.60951   0.14044   0.00000  Uiso   1.00
H262   H     0.72997   0.55826   0.26136   0.00000  Uiso   1.00
H263   H     0.66614   0.73573   0.08570   0.00000  Uiso   1.00
H264   H     0.64424   0.53981   0.07633   0.00000  Uiso   1.00
H265   H     0.81081   0.49323   0.39215   0.00000  Uiso   1.00
H266   H     0.67622   0.86743   0.02174   0.00000  Uiso   1.00
H267   H     0.63004   0.45428   0.00197   0.00000  Uiso   1.00
O268   O     0.95378   0.43119   0.46045   0.00000  Uiso   1.00
O269   O     0.77720   0.92212   0.97449   0.00000  Uiso   1.00
O270   O     0.71662   0.38007   0.94855   0.00000  Uiso   1.00
N271   N     0.97344   0.45866   0.35906   0.00000  Uiso   1.00
N272   N     0.84761   0.80851   0.01277   0.00000  Uiso   1.00
N273   N     0.80443   0.42226   0.99427   0.00000  Uiso   1.00
N274   N     0.85486   0.48793   0.37067   0.00000  Uiso   1.00
N275   N     0.72903   0.83778   0.02437   0.00000  Uiso   1.00
N276   N     0.68585   0.45153   0.00587   0.00000  Uiso   1.00
C277   C     0.93159   0.22876   0.11309   0.00000  Uiso   1.00
C278   C     0.97470   0.17785   0.17735   0.00000  Uiso   1.00
C279   C     0.96625   0.18526   0.23439   0.00000  Uiso   1.00
C280   C     0.01090   0.13298   0.28793   0.00000  Uiso   1.00
C281   C     0.07001   0.06268   0.38823   0.00000  Uiso   1.00
C282   C     0.89146   0.19187   0.07900   0.00000  Uiso   1.00
C283   C     0.81303   0.21107   0.05335   0.00000  Uiso   1.00
C284   C     0.78762   0.17060   0.02409   0.00000  Uiso   1.00
C285   C     0.71751   0.12209   0.97167   0.00000  Uiso   1.00
C286   C     0.99326   0.24390   0.07855   0.00000  Uiso   1.00
C287   C     0.00041   0.30685   0.05250   0.00000  Uiso   1.00
C288   C     0.06070   0.31019   0.02285   0.00000  Uiso   1.00
C289   C     0.14865   0.34246   0.96973   0.00000  Uiso   1.00
C290   C     0.02592   0.12274   0.10672   0.00000  Uiso   1.00
C291   C     0.02593   0.12026   0.17389   0.00000  Uiso   1.00
C292   C     0.07061   0.06796   0.22735   0.00000  Uiso   1.00
C293   C     0.06223   0.07529   0.28446   0.00000  Uiso   1.00
C294   C     0.94269   0.13428   0.07554   0.00000  Uiso   1.00
C295   C     0.91739   0.09377   0.04631   0.00000  Uiso   1.00
C296   C     0.83895   0.11291   0.02062   0.00000  Uiso   1.00
C297   C     0.04450   0.18631   0.07509   0.00000  Uiso   1.00
C298   C     0.10478   0.18955   0.04547   0.00000  Uiso   1.00
C299   C     0.11203   0.25250   0.01938   0.00000  Uiso   1.00
H300   H     0.89170   0.27359   0.11578   0.00000  Uiso   1.00
H301   H     0.92658   0.22983   0.23705   0.00000  Uiso   1.00
H302   H     0.77339   0.25564   0.05603   0.00000  Uiso   1.00
H303   H     0.96075   0.35140   0.05519   0.00000  Uiso   1.00
H304   H     0.98784   0.15591   0.36997   0.00000  Uiso   1.00
H305   H     0.66483   0.21035   0.98827   0.00000  Uiso   1.00
H306   H     0.05991   0.41228   0.98649   0.00000  Uiso   1.00
H307   H     0.06581   0.07790   0.10403   0.00000  Uiso   1.00
H308   H     0.11026   0.02340   0.22466   0.00000  Uiso   1.00
H309   H     0.95706   0.04922   0.04364   0.00000  Uiso   1.00
H310   H     0.14442   0.14498   0.04280   0.00000  Uiso   1.00
H311   H     0.13691   0.98836   0.35992   0.00000  Uiso   1.00
H312   H     0.81390   0.04281   0.97821   0.00000  Uiso   1.00
H313   H     0.20898   0.24474   0.97644   0.00000  Uiso   1.00
O314   O     0.08845   0.03981   0.44451   0.00000  Uiso   1.00
O315   O     0.66467   0.11124   0.94372   0.00000  Uiso   1.00
O316   O     0.18301   0.37617   0.94139   0.00000  Uiso   1.00
N317   N     0.01683   0.12396   0.35105   0.00000  Uiso   1.00
N318   N     0.71484   0.17485   0.99419   0.00000  Uiso   1.00
N319   N     0.08419   0.36365   0.99251   0.00000  Uiso   1.00
N320   N     0.09705   0.03381   0.34564   0.00000  Uiso   1.00
N321   N     0.79505   0.08470   0.98878   0.00000  Uiso   1.00
N322   N     0.16441   0.27349   0.98710   0.00000  Uiso   1.00
C323   C     0.21528   0.70899   0.21837   0.00000  Uiso   1.00
C324   C     0.20001   0.64177   0.23300   0.00000  Uiso   1.00
C325   C     0.18623   0.60668   0.28892   0.00000  Uiso   1.00
C326   C     0.17353   0.54608   0.29306   0.00000  Uiso   1.00
C327   C     0.14960   0.44546   0.32337   0.00000  Uiso   1.00
C328   C     0.15474   0.75602   0.15949   0.00000  Uiso   1.00
C329   C     0.10291   0.81699   0.15360   0.00000  Uiso   1.00
C330   C     0.05211   0.85257   0.09585   0.00000  Uiso   1.00
C331   C     0.95795   0.92934   0.01203   0.00000  Uiso   1.00
C332   C     0.29243   0.69819   0.19950   0.00000  Uiso   1.00
C333   C     0.35637   0.71056   0.22725   0.00000  Uiso   1.00
C334   C     0.42149   0.69746   0.20317   0.00000  Uiso   1.00
C335   C     0.54111   0.68445   0.18148   0.00000  Uiso   1.00
C336   C     0.21722   0.66376   0.12627   0.00000  Uiso   1.00
C337   C     0.20106   0.61721   0.18297   0.00000  Uiso   1.00
C338   C     0.18837   0.55664   0.18703   0.00000  Uiso   1.00
C339   C     0.17458   0.52147   0.24294   0.00000  Uiso   1.00
C340   C     0.15579   0.73145   0.10947   0.00000  Uiso   1.00
C341   C     0.10506   0.76695   0.05171   0.00000  Uiso   1.00
C342   C     0.05317   0.82796   0.04574   0.00000  Uiso   1.00
C343   C     0.29348   0.67362   0.14948   0.00000  Uiso   1.00
C344   C     0.35851   0.66051   0.12535   0.00000  Uiso   1.00
C345   C     0.42254   0.67285   0.15306   0.00000  Uiso   1.00
H346   H     0.21446   0.72812   0.25731   0.00000  Uiso   1.00
H347   H     0.18541   0.62571   0.32762   0.00000  Uiso   1.00
H348   H     0.10212   0.83599   0.19232   0.00000  Uiso   1.00
H349   H     0.35553   0.72957   0.26596   0.00000  Uiso   1.00
H350   H     0.15364   0.50135   0.38350   0.00000  Uiso   1.00
H351   H     0.97803   0.94475   0.09821   0.00000  Uiso   1.00
H352   H     0.51241   0.72034   0.25348   0.00000  Uiso   1.00
H353   H     0.21804   0.64464   0.08732   0.00000  Uiso   1.00
H354   H     0.18919   0.53764   0.14831   0.00000  Uiso   1.00
H355   H     0.10589   0.74793   0.01301   0.00000  Uiso   1.00
H356   H     0.35931   0.64150   0.08664   0.00000  Uiso   1.00
H357   H     0.15671   0.42988   0.23796   0.00000  Uiso   1.00
H358   H     0.98109   0.87327   0.95267   0.00000  Uiso   1.00
H359   H     0.51547   0.64886   0.10794   0.00000  Uiso   1.00
O360   O     0.13610   0.39675   0.35391   0.00000  Uiso   1.00
O361   O     0.90572   0.97847   0.97962   0.00000  Uiso   1.00
O362   O     0.60681   0.68405   0.18333   0.00000  Uiso   1.00
N363   N     0.15834   0.49921   0.34088   0.00000  Uiso   1.00
N364   N     0.99414   0.91375   0.07416   0.00000  Uiso   1.00
N365   N     0.49373   0.70396   0.21931   0.00000  Uiso   1.00
N366   N     0.15999   0.46075   0.26257   0.00000  Uiso   1.00
N367   N     0.99579   0.87529   0.99585   0.00000  Uiso   1.00
N368   N     0.49538   0.66550   0.14100   0.00000  Uiso   1.00
C369   C     0.06229   0.03894   0.58113   0.00000  Uiso   1.00
C370   C     0.01167   0.11146   0.54838   0.00000  Uiso   1.00
C371   C     0.95747   0.13560   0.49204   0.00000  Uiso   1.00
C372   C     0.91702   0.20355   0.46987   0.00000  Uiso   1.00
C373   C     0.83636   0.30972   0.41400   0.00000  Uiso   1.00
C374   C     0.04680   0.01828   0.64646   0.00000  Uiso   1.00
C375   C     0.02217   0.96408   0.67258   0.00000  Uiso   1.00
C376   C     0.01131   0.95359   0.73298   0.00000  Uiso   1.00
C377   C     0.98526   0.91508   0.82941   0.00000  Uiso   1.00
C378   C     0.14520   0.04036   0.59024   0.00000  Uiso   1.00
C379   C     0.20331   0.00471   0.56911   0.00000  Uiso   1.00
C380   C     0.27531   0.01280   0.58219   0.00000  Uiso   1.00
C381   C     0.40204   0.00857   0.59132   0.00000  Uiso   1.00
C382   C     0.08683   0.11669   0.64195   0.00000  Uiso   1.00
C383   C     0.02500   0.15369   0.58142   0.00000  Uiso   1.00
C384   C     0.98462   0.22162   0.55932   0.00000  Uiso   1.00
C385   C     0.93038   0.24586   0.50296   0.00000  Uiso   1.00
C386   C     0.06013   0.06051   0.67949   0.00000  Uiso   1.00
C387   C     0.04932   0.05010   0.73987   0.00000  Uiso   1.00
C388   C     0.02467   0.99590   0.76608   0.00000  Uiso   1.00
C389   C     0.15854   0.08259   0.62327   0.00000  Uiso   1.00
C390   C     0.23046   0.09073   0.63639   0.00000  Uiso   1.00
C391   C     0.28866   0.05510   0.61528   0.00000  Uiso   1.00
H392   H     0.05191   0.00606   0.55542   0.00000  Uiso   1.00
H393   H     0.94716   0.10290   0.46649   0.00000  Uiso   1.00
H394   H     0.01186   0.93140   0.64701   0.00000  Uiso   1.00
H395   H     0.19297   0.97203   0.54355   0.00000  Uiso   1.00
H396   H     0.83690   0.22889   0.38248   0.00000  Uiso   1.00
H397   H     0.97333   0.86726   0.76312   0.00000  Uiso   1.00
H398   H     0.35525   0.95293   0.54495   0.00000  Uiso   1.00
H399   H     0.09721   0.14957   0.66767   0.00000  Uiso   1.00
H400   H     0.99495   0.25429   0.58490   0.00000  Uiso   1.00
H401   H     0.05965   0.08279   0.76542   0.00000  Uiso   1.00
H402   H     0.24076   0.12342   0.66196   0.00000  Uiso   1.00
H403   H     0.87568   0.35176   0.47858   0.00000  Uiso   1.00
H404   H     0.01212   0.99013   0.85923   0.00000  Uiso   1.00
H405   H     0.39403   0.07580   0.64106   0.00000  Uiso   1.00
O406   O     0.78819   0.35662   0.37407   0.00000  Uiso   1.00
O407   O     0.96720   0.88217   0.87346   0.00000  Uiso   1.00
O408   O     0.46825   0.99457   0.58722   0.00000  Uiso   1.00
N409   N     0.86007   0.24344   0.41645   0.00000  Uiso   1.00
N410   N     0.98762   0.90534   0.77233   0.00000  Uiso   1.00
N411   N     0.34468   0.98543   0.56837   0.00000  Uiso   1.00
N412   N     0.88094   0.30955   0.46816   0.00000  Uiso   1.00
N413   N     0.00849   0.97146   0.82404   0.00000  Uiso   1.00
N414   N     0.36555   0.05154   0.62008   0.00000  Uiso   1.00
C415   C     0.51718   0.84224   0.74738   0.00000  Uiso   1.00
C416   C     0.54373   0.76632   0.77821   0.00000  Uiso   1.00
C417   C     0.53765   0.72059   0.74819   0.00000  Uiso   1.00
C418   C     0.56531   0.65328   0.78464   0.00000  Uiso   1.00
C419   C     0.60154   0.53856   0.82276   0.00000  Uiso   1.00
C420   C     0.46120   0.86995   0.78351   0.00000  Uiso   1.00
C421   C     0.38573   0.91136   0.75794   0.00000  Uiso   1.00
C422   C     0.34392   0.93129   0.79884   0.00000  Uiso   1.00
C423   C     0.25204   0.97749   0.84518   0.00000  Uiso   1.00
C424   C     0.58768   0.86425   0.76136   0.00000  Uiso   1.00
C425   C     0.61856   0.90089   0.71717   0.00000  Uiso   1.00
C426   C     0.68323   0.91604   0.73943   0.00000  Uiso   1.00
C427   C     0.78774   0.95340   0.75138   0.00000  Uiso   1.00
C428   C     0.57712   0.80401   0.86549   0.00000  Uiso   1.00
C429   C     0.57628   0.74555   0.84237   0.00000  Uiso   1.00
C430   C     0.60396   0.67829   0.87887   0.00000  Uiso   1.00
C431   C     0.59793   0.63248   0.84891   0.00000  Uiso   1.00
C432   C     0.49375   0.84918   0.84766   0.00000  Uiso   1.00
C433   C     0.45204   0.86906   0.88861   0.00000  Uiso   1.00
C434   C     0.37653   0.91049   0.86311   0.00000  Uiso   1.00
C435   C     0.62024   0.84348   0.82551   0.00000  Uiso   1.00
C436   C     0.68487   0.85859   0.84785   0.00000  Uiso   1.00
C437   C     0.71584   0.89524   0.80370   0.00000  Uiso   1.00
H438   H     0.49183   0.85841   0.69743   0.00000  Uiso   1.00
H439   H     0.51244   0.73668   0.69854   0.00000  Uiso   1.00
H440   H     0.36055   0.92743   0.70829   0.00000  Uiso   1.00
H441   H     0.59335   0.91695   0.66753   0.00000  Uiso   1.00
H442   H     0.54963   0.59257   0.72807   0.00000  Uiso   1.00
H443   H     0.22937   0.99478   0.74861   0.00000  Uiso   1.00
H444   H     0.72026   0.97271   0.66266   0.00000  Uiso   1.00
H445   H     0.60246   0.78784   0.91544   0.00000  Uiso   1.00
H446   H     0.62915   0.66224   0.92851   0.00000  Uiso   1.00
H447   H     0.47726   0.85298   0.93826   0.00000  Uiso   1.00
H448   H     0.71005   0.84251   0.89750   0.00000  Uiso   1.00
H449   H     0.64435   0.53215   0.91472   0.00000  Uiso   1.00
H450   H     0.32409   0.93437   0.93526   0.00000  Uiso   1.00
H451   H     0.81498   0.91228   0.84931   0.00000  Uiso   1.00
O452   O     0.61253   0.48101   0.82607   0.00000  Uiso   1.00
O453   O     0.19236   0.00871   0.85301   0.00000  Uiso   1.00
O454   O     0.83640   0.97974   0.74025   0.00000  Uiso   1.00
N455   N     0.56827   0.59559   0.77020   0.00000  Uiso   1.00
N456   N     0.26884   0.97162   0.78941   0.00000  Uiso   1.00
N457   N     0.72777   0.95100   0.70905   0.00000  Uiso   1.00
N458   N     0.61924   0.56308   0.87064   0.00000  Uiso   1.00
N459   N     0.31981   0.93911   0.88985   0.00000  Uiso   1.00
N460   N     0.77874   0.91849   0.80949   0.00000  Uiso   1.00
C461   C     0.77622   0.65556   0.43561   0.00000  Uiso   1.00
C462   C     0.72062   0.67011   0.47693   0.00000  Uiso   1.00
C463   C     0.68101   0.62817   0.50469   0.00000  Uiso   1.00
C464   C     0.63285   0.65058   0.54077   0.00000  Uiso   1.00
C465   C     0.54774   0.66374   0.60368   0.00000  Uiso   1.00
C466   C     0.74560   0.71391   0.37397   0.00000  Uiso   1.00
C467   C     0.72700   0.70879   0.31516   0.00000  Uiso   1.00
C468   C     0.69988   0.76808   0.26456   0.00000  Uiso   1.00
C469   C     0.65360   0.84924   0.16762   0.00000  Uiso   1.00
C470   C     0.85210   0.66104   0.46603   0.00000  Uiso   1.00
C471   C     0.92305   0.61148   0.48460   0.00000  Uiso   1.00
C472   C     0.98560   0.62627   0.51150   0.00000  Uiso   1.00
C473   C     0.10468   0.62534   0.55749   0.00000  Uiso   1.00
C474   C     0.76114   0.76995   0.45033   0.00000  Uiso   1.00
C475   C     0.71243   0.73224   0.48492   0.00000  Uiso   1.00
C476   C     0.66433   0.75472   0.52097   0.00000  Uiso   1.00
C477   C     0.62465   0.71282   0.54878   0.00000  Uiso   1.00
C478   C     0.73741   0.77604   0.38196   0.00000  Uiso   1.00
C479   C     0.71032   0.83535   0.33144   0.00000  Uiso   1.00
C480   C     0.69168   0.83032   0.27257   0.00000  Uiso   1.00
C481   C     0.84391   0.72318   0.47402   0.00000  Uiso   1.00
C482   C     0.90637   0.73804   0.50089   0.00000  Uiso   1.00
C483   C     0.97740   0.68851   0.51951   0.00000  Uiso   1.00
H484   H     0.78260   0.60719   0.42939   0.00000  Uiso   1.00
H485   H     0.68736   0.58009   0.49849   0.00000  Uiso   1.00
H486   H     0.73335   0.66070   0.30899   0.00000  Uiso   1.00
H487   H     0.92937   0.56341   0.47841   0.00000  Uiso   1.00
H488   H     0.57814   0.57746   0.57860   0.00000  Uiso   1.00
H489   H     0.67514   0.74743   0.17903   0.00000  Uiso   1.00
H490   H     0.08848   0.54227   0.53629   0.00000  Uiso   1.00
H491   H     0.75477   0.81832   0.45655   0.00000  Uiso   1.00
H492   H     0.65800   0.80281   0.52715   0.00000  Uiso   1.00
H493   H     0.70399   0.88342   0.33765   0.00000  Uiso   1.00
H494   H     0.90001   0.78613   0.50707   0.00000  Uiso   1.00
H495   H     0.55430   0.75823   0.60187   0.00000  Uiso   1.00
H496   H     0.65131   0.92820   0.20229   0.00000  Uiso   1.00
H497   H     0.06465   0.72303   0.55955   0.00000  Uiso   1.00
O498   O     0.50305   0.65384   0.63617   0.00000  Uiso   1.00
O499   O     0.63033   0.87684   0.11194   0.00000  Uiso   1.00
O500   O     0.17262   0.60766   0.58066   0.00000  Uiso   1.00
N501   N     0.58582   0.62213   0.57440   0.00000  Uiso   1.00
N502   N     0.67650   0.78104   0.20082   0.00000  Uiso   1.00
N503   N     0.06294   0.58924   0.53482   0.00000  Uiso   1.00
N504   N     0.57300   0.71939   0.58692   0.00000  Uiso   1.00
N505   N     0.66368   0.87831   0.21334   0.00000  Uiso   1.00
N506   N     0.05012   0.68650   0.54733   0.00000  Uiso   1.00
C507   C     0.34234   0.25156   0.90868   0.00000  Uiso   1.00
C508   C     0.33786   0.24917   0.84248   0.00000  Uiso   1.00
C509   C     0.27100   0.27098   0.79601   0.00000  Uiso   1.00
C510   C     0.27905   0.26449   0.73856   0.00000  Uiso   1.00
C511   C     0.26109   0.26489   0.63738   0.00000  Uiso   1.00
C512   C     0.38312   0.17990   0.95252   0.00000  Uiso   1.00
C513   C     0.35431   0.14349   0.99857   0.00000  Uiso   1.00
C514   C     0.40047   0.07869   0.03375   0.00000  Uiso   1.00
C515   C     0.45280   0.97158   0.10344   0.00000  Uiso   1.00
C516   C     0.39734   0.29112   0.91776   0.00000  Uiso   1.00
C517   C     0.38048   0.34821   0.93460   0.00000  Uiso   1.00
C518   C     0.43862   0.37703   0.94053   0.00000  Uiso   1.00
C519   C     0.51301   0.44261   0.95624   0.00000  Uiso   1.00
C520   C     0.47556   0.20123   0.88929   0.00000  Uiso   1.00
C521   C     0.41023   0.22183   0.83195   0.00000  Uiso   1.00
C522   C     0.41839   0.21530   0.77455   0.00000  Uiso   1.00
C523   C     0.35154   0.23710   0.72800   0.00000  Uiso   1.00
C524   C     0.45548   0.15256   0.94199   0.00000  Uiso   1.00
C525   C     0.50170   0.08781   0.97711   0.00000  Uiso   1.00
C526   C     0.47296   0.05130   0.02320   0.00000  Uiso   1.00
C527   C     0.46970   0.26378   0.90722   0.00000  Uiso   1.00
C528   C     0.52787   0.29252   0.91314   0.00000  Uiso   1.00
C529   C     0.51111   0.34965   0.92998   0.00000  Uiso   1.00
H530   H     0.28601   0.27284   0.91688   0.00000  Uiso   1.00
H531   H     0.21501   0.29213   0.80418   0.00000  Uiso   1.00
H532   H     0.29832   0.16466   0.00671   0.00000  Uiso   1.00
H533   H     0.32448   0.36935   0.94274   0.00000  Uiso   1.00
H534   H     0.16820   0.30144   0.67459   0.00000  Uiso   1.00
H535   H     0.34386   0.03267   0.10165   0.00000  Uiso   1.00
H536   H     0.39904   0.46429   0.96677   0.00000  Uiso   1.00
H537   H     0.53190   0.17995   0.88109   0.00000  Uiso   1.00
H538   H     0.47439   0.19414   0.76642   0.00000  Uiso   1.00
H539   H     0.55770   0.06667   0.96895   0.00000  Uiso   1.00
H540   H     0.58386   0.27136   0.90498   0.00000  Uiso   1.00
H541   H     0.37872   0.22190   0.64394   0.00000  Uiso   1.00
H542   H     0.55439   0.95313   0.07101   0.00000  Uiso   1.00
H543   H     0.60957   0.38476   0.93612   0.00000  Uiso   1.00
O544   O     0.23119   0.27266   0.58448   0.00000  Uiso   1.00
O545   O     0.46166   0.92005   0.14478   0.00000  Uiso   1.00
O546   O     0.53405   0.48633   0.96781   0.00000  Uiso   1.00
N547   N     0.22564   0.28078   0.68311   0.00000  Uiso   1.00
N548   N     0.38987   0.02949   0.08238   0.00000  Uiso   1.00
N549   N     0.44146   0.43302   0.95629   0.00000  Uiso   1.00
N550   N     0.33892   0.23799   0.66662   0.00000  Uiso   1.00
N551   N     0.50315   0.98670   0.06589   0.00000  Uiso   1.00
N552   N     0.55474   0.39022   0.93980   0.00000  Uiso   1.00
