data_job_04369
_audit_creation_date              2018-12-19
_audit_creation_method            'Materials Studio'
_symmetry_space_group_name_H-M    'P1'
_symmetry_Int_Tables_number       1
_symmetry_cell_setting            triclinic
loop_
_symmetry_equiv_pos_as_xyz
  x,y,z
_cell_length_a                    41.7421
_cell_length_b                    7.0483
_cell_length_c                    23.8340
_cell_angle_alpha                 89.7309
_cell_angle_beta                  92.3978
_cell_angle_gamma                 90.9359
loop_
_atom_site_label
_atom_site_type_symbol
_atom_site_fract_x
_atom_site_fract_y
_atom_site_fract_z
_atom_site_U_iso_or_equiv
_atom_site_adp_type
_atom_site_occupancy
C1     C     0.60104   0.48308   0.36522   0.00000  Uiso   1.00
C2     C     0.58496   0.57185   0.31303   0.00000  Uiso   1.00
C3     C     0.56835   0.47394   0.27030   0.00000  Uiso   1.00
C4     C     0.55540   0.58102   0.22615   0.00000  Uiso   1.00
C5     C     0.52991   0.68875   0.14531   0.00000  Uiso   1.00
C6     C     0.63606   0.54833   0.36565   0.00000  Uiso   1.00
C7     C     0.66241   0.43063   0.36717   0.00000  Uiso   1.00
C8     C     0.69248   0.51792   0.36732   0.00000  Uiso   1.00
C9     C     0.74632   0.58913   0.36821   0.00000  Uiso   1.00
C10    C     0.58657   0.57870   0.41531   0.00000  Uiso   1.00
C11    C     0.57132   0.48653   0.45858   0.00000  Uiso   1.00
C12    C     0.55973   0.59939   0.50055   0.00000  Uiso   1.00
C13    C     0.53673   0.71776   0.57853   0.00000  Uiso   1.00
C14    C     0.60756   0.84737   0.36280   0.00000  Uiso   1.00
C15    C     0.58851   0.76972   0.31172   0.00000  Uiso   1.00
C16    C     0.57557   0.87699   0.26762   0.00000  Uiso   1.00
C17    C     0.55895   0.77924   0.22483   0.00000  Uiso   1.00
C18    C     0.63960   0.74619   0.36434   0.00000  Uiso   1.00
C19    C     0.66963   0.83368   0.36449   0.00000  Uiso   1.00
C20    C     0.69603   0.71614   0.36600   0.00000  Uiso   1.00
C21    C     0.59011   0.77657   0.41399   0.00000  Uiso   1.00
C22    C     0.57854   0.88959   0.45590   0.00000  Uiso   1.00
C23    C     0.56328   0.79762   0.49923   0.00000  Uiso   1.00
H24    H     0.59828   0.32903   0.36625   0.00000  Uiso   1.00
H25    H     0.56562   0.32080   0.27134   0.00000  Uiso   1.00
H26    H     0.65966   0.27751   0.36819   0.00000  Uiso   1.00
H27    H     0.56858   0.33341   0.45959   0.00000  Uiso   1.00
H28    H     0.53098   0.39894   0.16552   0.00000  Uiso   1.00
H29    H     0.72928   0.30765   0.36977   0.00000  Uiso   1.00
H30    H     0.53722   0.42552   0.56250   0.00000  Uiso   1.00
H31    H     0.61032   0.00143   0.36177   0.00000  Uiso   1.00
H32    H     0.57832   0.03011   0.26661   0.00000  Uiso   1.00
H33    H     0.67237   0.98681   0.36347   0.00000  Uiso   1.00
H34    H     0.58129   0.04271   0.45487   0.00000  Uiso   1.00
H35    H     0.54129   0.97464   0.16168   0.00000  Uiso   1.00
H36    H     0.73959   0.88334   0.36594   0.00000  Uiso   1.00
H37    H     0.54753   0.00122   0.55866   0.00000  Uiso   1.00
O38    O     0.51488   0.69351   0.10108   0.00000  Uiso   1.00
O39    O     0.77504   0.57374   0.36905   0.00000  Uiso   1.00
O40    O     0.52306   0.72839   0.62190   0.00000  Uiso   1.00
N41    N     0.53780   0.53050   0.17768   0.00000  Uiso   1.00
N42    N     0.72319   0.44515   0.36863   0.00000  Uiso   1.00
N43    N     0.54364   0.55534   0.54883   0.00000  Uiso   1.00
N44    N     0.54334   0.84028   0.17562   0.00000  Uiso   1.00
N45    N     0.72874   0.75493   0.36657   0.00000  Uiso   1.00
N46    N     0.54919   0.86512   0.54676   0.00000  Uiso   1.00
C47    C     0.10360   0.64902   0.11190   0.00000  Uiso   1.00
C48    C     0.08810   0.73586   0.05891   0.00000  Uiso   1.00
C49    C     0.07058   0.63754   0.01735   0.00000  Uiso   1.00
C50    C     0.05837   0.74275   0.97217   0.00000  Uiso   1.00
C51    C     0.03354   0.84769   0.89040   0.00000  Uiso   1.00
C52    C     0.13908   0.70386   0.11142   0.00000  Uiso   1.00
C53    C     0.16441   0.57862   0.11402   0.00000  Uiso   1.00
C54    C     0.19513   0.65691   0.11305   0.00000  Uiso   1.00
C55    C     0.24943   0.71216   0.11285   0.00000  Uiso   1.00
C56    C     0.09012   0.75523   0.16104   0.00000  Uiso   1.00
C57    C     0.07431   0.67319   0.20536   0.00000  Uiso   1.00
C58    C     0.06381   0.79473   0.24617   0.00000  Uiso   1.00
C59    C     0.04211   0.92974   0.32300   0.00000  Uiso   1.00
C60    C     0.11309   0.01073   0.10559   0.00000  Uiso   1.00
C61    C     0.09325   0.93232   0.05548   0.00000  Uiso   1.00
C62    C     0.08108   0.03772   0.01036   0.00000  Uiso   1.00
C63    C     0.06354   0.93957   0.96874   0.00000  Uiso   1.00
C64    C     0.14423   0.90031   0.10799   0.00000  Uiso   1.00
C65    C     0.17491   0.97881   0.10703   0.00000  Uiso   1.00
C66    C     0.20029   0.85373   0.10962   0.00000  Uiso   1.00
C67    C     0.09528   0.95170   0.15761   0.00000  Uiso   1.00
C68    C     0.08481   0.07338   0.19837   0.00000  Uiso   1.00
C69    C     0.06898   0.99154   0.24274   0.00000  Uiso   1.00
H70    H     0.09959   0.49607   0.11457   0.00000  Uiso   1.00
H71    H     0.06659   0.48549   0.02001   0.00000  Uiso   1.00
H72    H     0.16042   0.42659   0.11668   0.00000  Uiso   1.00
H73    H     0.07032   0.52115   0.20800   0.00000  Uiso   1.00
H74    H     0.03230   0.56040   0.91366   0.00000  Uiso   1.00
H75    H     0.23013   0.43621   0.11749   0.00000  Uiso   1.00
H76    H     0.04015   0.63559   0.31006   0.00000  Uiso   1.00
H77    H     0.11710   0.16369   0.10292   0.00000  Uiso   1.00
H78    H     0.08507   0.18976   0.00772   0.00000  Uiso   1.00
H79    H     0.17889   0.13085   0.10438   0.00000  Uiso   1.00
H80    H     0.08880   0.22541   0.19570   0.00000  Uiso   1.00
H81    H     0.04730   0.13200   0.90368   0.00000  Uiso   1.00
H82    H     0.24513   0.00781   0.10752   0.00000  Uiso   1.00
H83    H     0.05515   0.20720   0.30008   0.00000  Uiso   1.00
O84    O     0.01842   0.85129   0.84624   0.00000  Uiso   1.00
O85    O     0.27796   0.68835   0.11368   0.00000  Uiso   1.00
O86    O     0.02872   0.94994   0.36632   0.00000  Uiso   1.00
N87    N     0.04022   0.69135   0.92438   0.00000  Uiso   1.00
N88    N     0.22518   0.57524   0.11494   0.00000  Uiso   1.00
N89    N     0.04757   0.76164   0.29499   0.00000  Uiso   1.00
N90    N     0.04829   0.99893   0.91901   0.00000  Uiso   1.00
N91    N     0.23325   0.88282   0.10957   0.00000  Uiso   1.00
N92    N     0.05564   0.06922   0.28962   0.00000  Uiso   1.00
C93    C     0.43777   0.30127   0.11278   0.00000  Uiso   1.00
C94    C     0.45222   0.20553   0.06270   0.00000  Uiso   1.00
C95    C     0.46747   0.29758   0.01941   0.00000  Uiso   1.00
C96    C     0.47906   0.18464   0.97746   0.00000  Uiso   1.00
C97    C     0.50203   0.06608   0.89948   0.00000  Uiso   1.00
C98    C     0.40274   0.23612   0.11237   0.00000  Uiso   1.00
C99    C     0.37639   0.35390   0.11086   0.00000  Uiso   1.00
C100   C     0.34632   0.26670   0.11073   0.00000  Uiso   1.00
C101   C     0.29248   0.19565   0.10990   0.00000  Uiso   1.00
C102   C     0.45384   0.21252   0.16497   0.00000  Uiso   1.00
C103   C     0.47045   0.31046   0.20769   0.00000  Uiso   1.00
C104   C     0.48340   0.20339   0.25186   0.00000  Uiso   1.00
C105   C     0.50890   0.09569   0.33270   0.00000  Uiso   1.00
C106   C     0.43121   0.93699   0.11526   0.00000  Uiso   1.00
C107   C     0.44866   0.00767   0.06404   0.00000  Uiso   1.00
C108   C     0.46022   0.89455   0.02215   0.00000  Uiso   1.00
C109   C     0.47549   0.98642   0.97881   0.00000  Uiso   1.00
C110   C     0.39918   0.03827   0.11371   0.00000  Uiso   1.00
C111   C     0.36914   0.95087   0.11359   0.00000  Uiso   1.00
C112   C     0.34276   0.06849   0.11208   0.00000  Uiso   1.00
C113   C     0.45028   0.01466   0.16631   0.00000  Uiso   1.00
C114   C     0.46320   0.90742   0.21042   0.00000  Uiso   1.00
C115   C     0.47983   0.00517   0.25320   0.00000  Uiso   1.00
H116   H     0.44054   0.45531   0.11174   0.00000  Uiso   1.00
H117   H     0.47022   0.45071   0.01839   0.00000  Uiso   1.00
H118   H     0.37916   0.50701   0.10982   0.00000  Uiso   1.00
H119   H     0.47321   0.46357   0.20664   0.00000  Uiso   1.00
H120   H     0.50155   0.35835   0.91547   0.00000  Uiso   1.00
H121   H     0.30954   0.47708   0.10829   0.00000  Uiso   1.00
H122   H     0.50786   0.38548   0.31245   0.00000  Uiso   1.00
H123   H     0.42844   0.78294   0.11630   0.00000  Uiso   1.00
H124   H     0.45746   0.74144   0.02320   0.00000  Uiso   1.00
H125   H     0.36639   0.79775   0.11464   0.00000  Uiso   1.00
H126   H     0.46044   0.75431   0.21145   0.00000  Uiso   1.00
H127   H     0.49119   0.78269   0.91938   0.00000  Uiso   1.00
H128   H     0.29918   0.90142   0.11220   0.00000  Uiso   1.00
H129   H     0.49750   0.80981   0.31635   0.00000  Uiso   1.00
O130   O     0.51568   0.05535   0.85608   0.00000  Uiso   1.00
O131   O     0.26376   0.21112   0.10907   0.00000  Uiso   1.00
O132   O     0.52395   0.09094   0.37691   0.00000  Uiso   1.00
N133   N     0.49514   0.22856   0.92917   0.00000  Uiso   1.00
N134   N     0.31562   0.33956   0.10944   0.00000  Uiso   1.00
N135   N     0.50102   0.25393   0.30031   0.00000  Uiso   1.00
N136   N     0.48956   0.91880   0.93127   0.00000  Uiso   1.00
N137   N     0.31004   0.02980   0.11154   0.00000  Uiso   1.00
N138   N     0.49544   0.94417   0.30242   0.00000  Uiso   1.00
C139   C     0.93517   0.13598   0.36609   0.00000  Uiso   1.00
C140   C     0.94865   0.02969   0.31696   0.00000  Uiso   1.00
C141   C     0.96446   0.11166   0.27263   0.00000  Uiso   1.00
C142   C     0.97495   0.99006   0.23184   0.00000  Uiso   1.00
C143   C     0.99664   0.85491   0.15502   0.00000  Uiso   1.00
C144   C     0.89970   0.08111   0.36659   0.00000  Uiso   1.00
C145   C     0.87436   0.20632   0.36399   0.00000  Uiso   1.00
C146   C     0.84365   0.12800   0.36497   0.00000  Uiso   1.00
C147   C     0.78934   0.07269   0.36524   0.00000  Uiso   1.00
C148   C     0.95068   0.04927   0.41908   0.00000  Uiso   1.00
C149   C     0.96820   0.14770   0.46063   0.00000  Uiso   1.00
C150   C     0.98041   0.04258   0.50583   0.00000  Uiso   1.00
C151   C     0.00526   0.93783   0.58760   0.00000  Uiso   1.00
C152   C     0.92570   0.77428   0.37247   0.00000  Uiso   1.00
C153   C     0.94350   0.83323   0.32043   0.00000  Uiso   1.00
C154   C     0.95397   0.71147   0.27969   0.00000  Uiso   1.00
C155   C     0.96980   0.79324   0.23531   0.00000  Uiso   1.00
C156   C     0.89455   0.88466   0.37005   0.00000  Uiso   1.00
C157   C     0.86387   0.80613   0.37105   0.00000  Uiso   1.00
C158   C     0.83849   0.93118   0.36845   0.00000  Uiso   1.00
C159   C     0.94553   0.85280   0.42255   0.00000  Uiso   1.00
C160   C     0.95772   0.74751   0.46769   0.00000  Uiso   1.00
C161   C     0.97525   0.84576   0.50930   0.00000  Uiso   1.00
H162   H     0.93918   0.28894   0.36339   0.00000  Uiso   1.00
H163   H     0.96843   0.26371   0.26996   0.00000  Uiso   1.00
H164   H     0.87835   0.35835   0.36131   0.00000  Uiso   1.00
H165   H     0.97218   0.29973   0.45794   0.00000  Uiso   1.00
H166   H     0.99859   0.14910   0.16790   0.00000  Uiso   1.00
H167   H     0.80863   0.34866   0.36053   0.00000  Uiso   1.00
H168   H     0.00649   0.22507   0.56429   0.00000  Uiso   1.00
H169   H     0.92169   0.62132   0.37517   0.00000  Uiso   1.00
H170   H     0.94999   0.55944   0.28239   0.00000  Uiso   1.00
H171   H     0.85990   0.65409   0.37374   0.00000  Uiso   1.00
H172   H     0.95373   0.59548   0.47036   0.00000  Uiso   1.00
H173   H     0.98361   0.57749   0.17798   0.00000  Uiso   1.00
H174   H     0.79366   0.77706   0.37062   0.00000  Uiso   1.00
H175   H     0.99152   0.65347   0.57437   0.00000  Uiso   1.00
O176   O     0.01002   0.83465   0.11168   0.00000  Uiso   1.00
O177   O     0.76081   0.09647   0.36442   0.00000  Uiso   1.00
O178   O     0.02040   0.93432   0.63174   0.00000  Uiso   1.00
N179   N     0.99119   0.02306   0.18301   0.00000  Uiso   1.00
N180   N     0.81359   0.20964   0.36310   0.00000  Uiso   1.00
N181   N     0.99857   0.09410   0.55361   0.00000  Uiso   1.00
N182   N     0.98313   0.71548   0.18844   0.00000  Uiso   1.00
N183   N     0.80553   0.90206   0.36853   0.00000  Uiso   1.00
N184   N     0.99051   0.78652   0.55903   0.00000  Uiso   1.00
C185   C     0.43592   0.27400   0.60892   0.00000  Uiso   1.00
C186   C     0.44881   0.38330   0.55909   0.00000  Uiso   1.00
C187   C     0.46687   0.30798   0.51724   0.00000  Uiso   1.00
C188   C     0.47637   0.43134   0.47526   0.00000  Uiso   1.00
C189   C     0.49763   0.57187   0.39787   0.00000  Uiso   1.00
C190   C     0.39975   0.30231   0.60630   0.00000  Uiso   1.00
C191   C     0.37655   0.15890   0.60416   0.00000  Uiso   1.00
C192   C     0.34475   0.21409   0.60194   0.00000  Uiso   1.00
C193   C     0.28984   0.22888   0.59789   0.00000  Uiso   1.00
C194   C     0.44875   0.37830   0.66130   0.00000  Uiso   1.00
C195   C     0.46675   0.29876   0.70541   0.00000  Uiso   1.00
C196   C     0.47619   0.41792   0.74950   0.00000  Uiso   1.00
C197   C     0.49736   0.55068   0.83085   0.00000  Uiso   1.00
C198   C     0.42067   0.62702   0.60880   0.00000  Uiso   1.00
C199   C     0.44053   0.57504   0.55902   0.00000  Uiso   1.00
C200   C     0.45000   0.69855   0.51710   0.00000  Uiso   1.00
C201   C     0.46807   0.62343   0.47520   0.00000  Uiso   1.00
C202   C     0.39147   0.49405   0.60624   0.00000  Uiso   1.00
C203   C     0.35969   0.54947   0.60402   0.00000  Uiso   1.00
C204   C     0.33645   0.40617   0.60187   0.00000  Uiso   1.00
C205   C     0.44047   0.57004   0.66123   0.00000  Uiso   1.00
C206   C     0.44988   0.68934   0.70527   0.00000  Uiso   1.00
C207   C     0.46789   0.61001   0.74943   0.00000  Uiso   1.00
H208   H     0.44237   0.12472   0.60898   0.00000  Uiso   1.00
H209   H     0.47327   0.15958   0.51730   0.00000  Uiso   1.00
H210   H     0.38297   0.01053   0.60421   0.00000  Uiso   1.00
H211   H     0.47315   0.15038   0.70544   0.00000  Uiso   1.00
H212   H     0.50388   0.28278   0.41562   0.00000  Uiso   1.00
H213   H     0.31347   0.96848   0.59890   0.00000  Uiso   1.00
H214   H     0.50363   0.26338   0.81237   0.00000  Uiso   1.00
H215   H     0.41422   0.77630   0.60875   0.00000  Uiso   1.00
H216   H     0.44359   0.84693   0.51706   0.00000  Uiso   1.00
H217   H     0.35329   0.69786   0.60398   0.00000  Uiso   1.00
H218   H     0.44347   0.83771   0.70521   0.00000  Uiso   1.00
H219   H     0.47978   0.84065   0.41542   0.00000  Uiso   1.00
H220   H     0.28937   0.52635   0.59871   0.00000  Uiso   1.00
H221   H     0.47954   0.82125   0.81217   0.00000  Uiso   1.00
O222   O     0.51164   0.59641   0.35520   0.00000  Uiso   1.00
O223   O     0.26184   0.18405   0.59567   0.00000  Uiso   1.00
O224   O     0.51133   0.57096   0.87573   0.00000  Uiso   1.00
N225   N     0.49418   0.40439   0.42816   0.00000  Uiso   1.00
N226   N     0.31616   0.11054   0.59951   0.00000  Uiso   1.00
N227   N     0.49394   0.38623   0.79909   0.00000  Uiso   1.00
N228   N     0.48122   0.70458   0.42806   0.00000  Uiso   1.00
N229   N     0.30320   0.41073   0.59941   0.00000  Uiso   1.00
N230   N     0.48098   0.68642   0.79899   0.00000  Uiso   1.00
C231   C     0.94232   0.11030   0.87196   0.00000  Uiso   1.00
C232   C     0.95374   0.22201   0.82141   0.00000  Uiso   1.00
C233   C     0.96918   0.14705   0.77627   0.00000  Uiso   1.00
C234   C     0.97769   0.27274   0.73421   0.00000  Uiso   1.00
C235   C     0.99643   0.41671   0.65524   0.00000  Uiso   1.00
C236   C     0.90655   0.14799   0.87471   0.00000  Uiso   1.00
C237   C     0.88232   0.01079   0.87440   0.00000  Uiso   1.00
C238   C     0.85111   0.07418   0.87721   0.00000  Uiso   1.00
C239   C     0.79659   0.10323   0.88104   0.00000  Uiso   1.00
C240   C     0.95822   0.20523   0.92355   0.00000  Uiso   1.00
C241   C     0.97742   0.11616   0.96432   0.00000  Uiso   1.00
C242   C     0.98970   0.22773   0.00826   0.00000  Uiso   1.00
C243   C     0.01540   0.34565   0.08793   0.00000  Uiso   1.00
C244   C     0.92999   0.46681   0.87751   0.00000  Uiso   1.00
C245   C     0.94704   0.41565   0.82442   0.00000  Uiso   1.00
C246   C     0.95554   0.54149   0.78241   0.00000  Uiso   1.00
C247   C     0.97098   0.46673   0.73723   0.00000  Uiso   1.00
C248   C     0.89986   0.34162   0.87772   0.00000  Uiso   1.00
C249   C     0.86868   0.40523   0.88054   0.00000  Uiso   1.00
C250   C     0.84440   0.26817   0.88023   0.00000  Uiso   1.00
C251   C     0.95152   0.39887   0.92657   0.00000  Uiso   1.00
C252   C     0.96378   0.51060   0.97046   0.00000  Uiso   1.00
C253   C     0.98300   0.42172   0.01128   0.00000  Uiso   1.00
H254   H     0.94753   0.95954   0.86961   0.00000  Uiso   1.00
H255   H     0.97435   0.99718   0.77395   0.00000  Uiso   1.00
H256   H     0.88751   0.86095   0.87207   0.00000  Uiso   1.00
H257   H     0.98260   0.96631   0.96197   0.00000  Uiso   1.00
H258   H     0.00112   0.12430   0.66922   0.00000  Uiso   1.00
H259   H     0.81800   0.83704   0.87613   0.00000  Uiso   1.00
H260   H     0.01852   0.05919   0.06571   0.00000  Uiso   1.00
H261   H     0.92478   0.61758   0.87985   0.00000  Uiso   1.00
H262   H     0.95035   0.69133   0.78476   0.00000  Uiso   1.00
H263   H     0.86350   0.55509   0.88288   0.00000  Uiso   1.00
H264   H     0.95859   0.66045   0.97278   0.00000  Uiso   1.00
H265   H     0.98164   0.68769   0.67799   0.00000  Uiso   1.00
H266   H     0.79852   0.40043   0.88490   0.00000  Uiso   1.00
H267   H     0.99903   0.62259   0.07447   0.00000  Uiso   1.00
O268   O     0.00860   0.44263   0.61085   0.00000  Uiso   1.00
O269   O     0.76836   0.06575   0.88232   0.00000  Uiso   1.00
O270   O     0.03143   0.35721   0.13104   0.00000  Uiso   1.00
N271   N     0.99303   0.24678   0.68434   0.00000  Uiso   1.00
N272   N     0.82183   0.97821   0.87778   0.00000  Uiso   1.00
N273   N     0.00928   0.18589   0.05502   0.00000  Uiso   1.00
N274   N     0.98255   0.54994   0.68906   0.00000  Uiso   1.00
N275   N     0.81135   0.28137   0.88249   0.00000  Uiso   1.00
N276   N     0.99880   0.48905   0.05974   0.00000  Uiso   1.00
C277   C     0.60284   0.51017   0.86900   0.00000  Uiso   1.00
C278   C     0.59000   0.40581   0.81665   0.00000  Uiso   1.00
C279   C     0.57199   0.48528   0.77255   0.00000  Uiso   1.00
C280   C     0.56254   0.36608   0.72848   0.00000  Uiso   1.00
C281   C     0.54135   0.23321   0.64716   0.00000  Uiso   1.00
C282   C     0.63902   0.48186   0.87160   0.00000  Uiso   1.00
C283   C     0.66221   0.62529   0.87372   0.00000  Uiso   1.00
C284   C     0.69402   0.57010   0.87592   0.00000  Uiso   1.00
C285   C     0.74893   0.55531   0.87996   0.00000  Uiso   1.00
C286   C     0.58997   0.40094   0.91886   0.00000  Uiso   1.00
C287   C     0.57192   0.47632   0.96073   0.00000  Uiso   1.00
C288   C     0.56244   0.35300   0.00272   0.00000  Uiso   1.00
C289   C     0.54119   0.21256   0.08014   0.00000  Uiso   1.00
C290   C     0.61809   0.15716   0.86915   0.00000  Uiso   1.00
C291   C     0.59829   0.21407   0.81673   0.00000  Uiso   1.00
C292   C     0.58886   0.09471   0.77271   0.00000  Uiso   1.00
C293   C     0.57083   0.17399   0.72856   0.00000  Uiso   1.00
C294   C     0.64730   0.29013   0.87168   0.00000  Uiso   1.00
C295   C     0.67908   0.23472   0.87389   0.00000  Uiso   1.00
C296   C     0.70232   0.37801   0.87600   0.00000  Uiso   1.00
C297   C     0.59825   0.20919   0.91894   0.00000  Uiso   1.00
C298   C     0.58879   0.08574   0.96089   0.00000  Uiso   1.00
C299   C     0.57074   0.16091   0.00281   0.00000  Uiso   1.00
H300   H     0.59640   0.65946   0.86894   0.00000  Uiso   1.00
H301   H     0.56559   0.63368   0.77250   0.00000  Uiso   1.00
H302   H     0.65579   0.77365   0.87366   0.00000  Uiso   1.00
H303   H     0.56552   0.62470   0.96065   0.00000  Uiso   1.00
H304   H     0.53509   0.52055   0.66560   0.00000  Uiso   1.00
H305   H     0.72529   0.81570   0.87893   0.00000  Uiso   1.00
H306   H     0.53493   0.50161   0.06236   0.00000  Uiso   1.00
H307   H     0.62454   0.00787   0.86922   0.00000  Uiso   1.00
H308   H     0.59527   0.94633   0.77279   0.00000  Uiso   1.00
H309   H     0.68548   0.08632   0.87395   0.00000  Uiso   1.00
H310   H     0.59521   0.93737   0.96094   0.00000  Uiso   1.00
H311   H     0.55918   0.96268   0.66584   0.00000  Uiso   1.00
H312   H     0.74939   0.25784   0.87917   0.00000  Uiso   1.00
H313   H     0.55903   0.94374   0.06259   0.00000  Uiso   1.00
O314   O     0.52738   0.21291   0.60227   0.00000  Uiso   1.00
O315   O     0.77693   0.60014   0.88216   0.00000  Uiso   1.00
O316   O     0.52718   0.18806   0.12281   0.00000  Uiso   1.00
N317   N     0.54477   0.39769   0.67890   0.00000  Uiso   1.00
N318   N     0.72260   0.67365   0.87834   0.00000  Uiso   1.00
N319   N     0.54464   0.38001   0.04984   0.00000  Uiso   1.00
N320   N     0.55773   0.09751   0.67902   0.00000  Uiso   1.00
N321   N     0.73557   0.37346   0.87846   0.00000  Uiso   1.00
N322   N     0.55760   0.07982   0.04996   0.00000  Uiso   1.00
C323   C     0.09648   0.67455   0.60595   0.00000  Uiso   1.00
C324   C     0.08056   0.57956   0.55437   0.00000  Uiso   1.00
C325   C     0.06136   0.66860   0.51361   0.00000  Uiso   1.00
C326   C     0.04905   0.55698   0.46970   0.00000  Uiso   1.00
C327   C     0.02333   0.43897   0.39006   0.00000  Uiso   1.00
C328   C     0.13224   0.63675   0.60318   0.00000  Uiso   1.00
C329   C     0.15649   0.77387   0.60345   0.00000  Uiso   1.00
C330   C     0.18769   0.71037   0.60063   0.00000  Uiso   1.00
C331   C     0.24221   0.68113   0.59681   0.00000  Uiso   1.00
C332   C     0.08506   0.56300   0.65652   0.00000  Uiso   1.00
C333   C     0.06965   0.63811   0.70166   0.00000  Uiso   1.00
C334   C     0.06113   0.51252   0.74376   0.00000  Uiso   1.00
C335   C     0.04240   0.36877   0.82275   0.00000  Uiso   1.00
C336   C     0.10878   0.31799   0.60045   0.00000  Uiso   1.00
C337   C     0.08724   0.38589   0.55139   0.00000  Uiso   1.00
C338   C     0.07496   0.27410   0.50753   0.00000  Uiso   1.00
C339   C     0.05574   0.36296   0.46671   0.00000  Uiso   1.00
C340   C     0.13892   0.44308   0.60019   0.00000  Uiso   1.00
C341   C     0.17010   0.37937   0.59738   0.00000  Uiso   1.00
C342   C     0.19439   0.51635   0.59765   0.00000  Uiso   1.00
C343   C     0.09174   0.36932   0.65354   0.00000  Uiso   1.00
C344   C     0.08325   0.24360   0.69558   0.00000  Uiso   1.00
C345   C     0.06783   0.31850   0.74077   0.00000  Uiso   1.00
H346   H     0.09128   0.82533   0.60827   0.00000  Uiso   1.00
H347   H     0.05620   0.81849   0.51593   0.00000  Uiso   1.00
H348   H     0.15132   0.92373   0.60577   0.00000  Uiso   1.00
H349   H     0.06448   0.78798   0.70395   0.00000  Uiso   1.00
H350   H     0.02025   0.72550   0.41223   0.00000  Uiso   1.00
H351   H     0.22082   0.94741   0.60168   0.00000  Uiso   1.00
H352   H     0.03772   0.66117   0.80872   0.00000  Uiso   1.00
H353   H     0.11398   0.16720   0.59813   0.00000  Uiso   1.00
H354   H     0.08014   0.12423   0.50524   0.00000  Uiso   1.00
H355   H     0.17526   0.22948   0.59507   0.00000  Uiso   1.00
H356   H     0.08842   0.09374   0.69326   0.00000  Uiso   1.00
H357   H     0.03968   0.16202   0.40355   0.00000  Uiso   1.00
H358   H     0.24025   0.38393   0.59300   0.00000  Uiso   1.00
H359   H     0.05715   0.09769   0.80004   0.00000  Uiso   1.00
O360   O     0.00731   0.42739   0.34695   0.00000  Uiso   1.00
O361   O     0.27044   0.71852   0.59551   0.00000  Uiso   1.00
O362   O     0.03021   0.34298   0.86714   0.00000  Uiso   1.00
N363   N     0.02947   0.59877   0.42294   0.00000  Uiso   1.00
N364   N     0.21698   0.80625   0.60005   0.00000  Uiso   1.00
N365   N     0.04581   0.53865   0.79363   0.00000  Uiso   1.00
N366   N     0.03992   0.29557   0.41827   0.00000  Uiso   1.00
N367   N     0.22744   0.50304   0.59538   0.00000  Uiso   1.00
N368   N     0.05626   0.23544   0.78896   0.00000  Uiso   1.00
