data_job_02331
_audit_creation_date              2018-12-19
_audit_creation_method            'Materials Studio'
_symmetry_space_group_name_H-M    'P1'
_symmetry_Int_Tables_number       1
_symmetry_cell_setting            triclinic
loop_
_symmetry_equiv_pos_as_xyz
  x,y,z
_cell_length_a                    12.2771
_cell_length_b                    12.2771
_cell_length_c                    28.6585
_cell_angle_alpha                 90.0000
_cell_angle_beta                  90.0000
_cell_angle_gamma                 120.0000
loop_
_atom_site_label
_atom_site_type_symbol
_atom_site_fract_x
_atom_site_fract_y
_atom_site_fract_z
_atom_site_U_iso_or_equiv
_atom_site_adp_type
_atom_site_occupancy
C1     C     0.80616   0.40632   0.52785   0.00000  Uiso   1.00
C2     C     0.83773   0.54082   0.53822   0.00000  Uiso   1.00
C3     C     0.94782   0.64899   0.52563   0.00000  Uiso   1.00
C4     C     0.95874   0.76315   0.53837   0.00000  Uiso   1.00
C5     C     0.02235   0.97113   0.55078   0.00000  Uiso   1.00
C6     C     0.77800   0.33956   0.57489   0.00000  Uiso   1.00
C7     C     0.83786   0.27849   0.59311   0.00000  Uiso   1.00
C8     C     0.79848   0.22320   0.63671   0.00000  Uiso   1.00
C9     C     0.76930   0.11864   0.70603   0.00000  Uiso   1.00
C10    C     0.68189   0.34571   0.50129   0.00000  Uiso   1.00
C11    C     0.66094   0.28977   0.45764   0.00000  Uiso   1.00
C12    C     0.54064   0.23963   0.43929   0.00000  Uiso   1.00
C13    C     0.36224   0.14461   0.39434   0.00000  Uiso   1.00
C14    C     0.62977   0.41671   0.57288   0.00000  Uiso   1.00
C15    C     0.74191   0.54646   0.56268   0.00000  Uiso   1.00
C16    C     0.75266   0.66048   0.57545   0.00000  Uiso   1.00
C17    C     0.86276   0.76880   0.56287   0.00000  Uiso   1.00
C18    C     0.68219   0.34520   0.59935   0.00000  Uiso   1.00
C19    C     0.64270   0.28998   0.64293   0.00000  Uiso   1.00
C20    C     0.70250   0.22885   0.66122   0.00000  Uiso   1.00
C21    C     0.58608   0.35135   0.52575   0.00000  Uiso   1.00
C22    C     0.46579   0.30127   0.50746   0.00000  Uiso   1.00
C23    C     0.44466   0.24528   0.46379   0.00000  Uiso   1.00
H24    H     0.88076   0.40193   0.50881   0.00000  Uiso   1.00
H25    H     0.02195   0.64458   0.50670   0.00000  Uiso   1.00
H26    H     0.91199   0.27413   0.57417   0.00000  Uiso   1.00
H27    H     0.73511   0.28542   0.43873   0.00000  Uiso   1.00
H28    H     0.13627   0.91610   0.51517   0.00000  Uiso   1.00
H29    H     0.90438   0.13494   0.65743   0.00000  Uiso   1.00
H30    H     0.53138   0.15875   0.37181   0.00000  Uiso   1.00
H31    H     0.55517   0.42110   0.59192   0.00000  Uiso   1.00
H32    H     0.67851   0.66482   0.59437   0.00000  Uiso   1.00
H33    H     0.56855   0.29436   0.66185   0.00000  Uiso   1.00
H34    H     0.39166   0.30565   0.52640   0.00000  Uiso   1.00
H35    H     0.85751   0.93253   0.58633   0.00000  Uiso   1.00
H36    H     0.62563   0.15136   0.72859   0.00000  Uiso   1.00
H37    H     0.25263   0.17517   0.44297   0.00000  Uiso   1.00
O38    O     0.08391   0.08429   0.55088   0.00000  Uiso   1.00
O39    O     0.77968   0.05942   0.73751   0.00000  Uiso   1.00
O40    O     0.29031   0.09066   0.36279   0.00000  Uiso   1.00
N41    N     0.05372   0.88652   0.53157   0.00000  Uiso   1.00
N42    N     0.83694   0.15620   0.66458   0.00000  Uiso   1.00
N43    N     0.48821   0.17843   0.39756   0.00000  Uiso   1.00
N44    N     0.90373   0.89536   0.56986   0.00000  Uiso   1.00
N45    N     0.68695   0.16504   0.70287   0.00000  Uiso   1.00
N46    N     0.33821   0.18726   0.43585   0.00000  Uiso   1.00
C47    C     0.59368   0.39984   0.19451   0.00000  Uiso   1.00
C48    C     0.45918   0.29690   0.20489   0.00000  Uiso   1.00
C49    C     0.35101   0.29883   0.19229   0.00000  Uiso   1.00
C50    C     0.23685   0.19560   0.20503   0.00000  Uiso   1.00
C51    C     0.02887   0.05122   0.21745   0.00000  Uiso   1.00
C52    C     0.66044   0.43844   0.24156   0.00000  Uiso   1.00
C53    C     0.72151   0.55937   0.25978   0.00000  Uiso   1.00
C54    C     0.77680   0.57528   0.30338   0.00000  Uiso   1.00
C55    C     0.88136   0.65066   0.37270   0.00000  Uiso   1.00
C56    C     0.65429   0.33619   0.16796   0.00000  Uiso   1.00
C57    C     0.71023   0.37117   0.12431   0.00000  Uiso   1.00
C58    C     0.76037   0.30101   0.10595   0.00000  Uiso   1.00
C59    C     0.85539   0.21763   0.06101   0.00000  Uiso   1.00
C60    C     0.58329   0.21306   0.23954   0.00000  Uiso   1.00
C61    C     0.45354   0.19545   0.22935   0.00000  Uiso   1.00
C62    C     0.33952   0.09218   0.24211   0.00000  Uiso   1.00
C63    C     0.23120   0.09396   0.22953   0.00000  Uiso   1.00
C64    C     0.65480   0.33699   0.26601   0.00000  Uiso   1.00
C65    C     0.71002   0.35272   0.30960   0.00000  Uiso   1.00
C66    C     0.77115   0.47365   0.32788   0.00000  Uiso   1.00
C67    C     0.64865   0.23473   0.19242   0.00000  Uiso   1.00
C68    C     0.69873   0.16451   0.17413   0.00000  Uiso   1.00
C69    C     0.75472   0.19937   0.13046   0.00000  Uiso   1.00
H70    H     0.59807   0.47883   0.17548   0.00000  Uiso   1.00
H71    H     0.35542   0.37737   0.17337   0.00000  Uiso   1.00
H72    H     0.72587   0.63787   0.24084   0.00000  Uiso   1.00
H73    H     0.71458   0.44968   0.10539   0.00000  Uiso   1.00
H74    H     0.08390   0.22016   0.18183   0.00000  Uiso   1.00
H75    H     0.86506   0.76944   0.32410   0.00000  Uiso   1.00
H76    H     0.84125   0.37263   0.03848   0.00000  Uiso   1.00
H77    H     0.57890   0.13407   0.25859   0.00000  Uiso   1.00
H78    H     0.33518   0.01369   0.26104   0.00000  Uiso   1.00
H79    H     0.70564   0.27419   0.32851   0.00000  Uiso   1.00
H80    H     0.69435   0.08601   0.19307   0.00000  Uiso   1.00
H81    H     0.06747   0.92499   0.25299   0.00000  Uiso   1.00
H82    H     0.84864   0.47427   0.39526   0.00000  Uiso   1.00
H83    H     0.82483   0.07746   0.10964   0.00000  Uiso   1.00
O84    O     0.91571   0.99962   0.21754   0.00000  Uiso   1.00
O85    O     0.94058   0.72026   0.40418   0.00000  Uiso   1.00
O86    O     0.90934   0.19965   0.02945   0.00000  Uiso   1.00
N87    N     0.11348   0.16720   0.19824   0.00000  Uiso   1.00
N88    N     0.84380   0.68074   0.33125   0.00000  Uiso   1.00
N89    N     0.82157   0.30978   0.06422   0.00000  Uiso   1.00
N90    N     0.10464   0.00837   0.23653   0.00000  Uiso   1.00
N91    N     0.83496   0.52191   0.36954   0.00000  Uiso   1.00
N92    N     0.81274   0.15095   0.10251   0.00000  Uiso   1.00
C93    C     0.60016   0.19384   0.86118   0.00000  Uiso   1.00
C94    C     0.70310   0.16227   0.87156   0.00000  Uiso   1.00
C95    C     0.70117   0.05218   0.85896   0.00000  Uiso   1.00
C96    C     0.80440   0.04126   0.87170   0.00000  Uiso   1.00
C97    C     0.94878   0.97765   0.88411   0.00000  Uiso   1.00
C98    C     0.56156   0.22200   0.90822   0.00000  Uiso   1.00
C99    C     0.44063   0.16214   0.92645   0.00000  Uiso   1.00
C100   C     0.42472   0.20152   0.97005   0.00000  Uiso   1.00
C101   C     0.34934   0.23070   0.03937   0.00000  Uiso   1.00
C102   C     0.66381   0.31811   0.83463   0.00000  Uiso   1.00
C103   C     0.62883   0.33906   0.79098   0.00000  Uiso   1.00
C104   C     0.69899   0.45936   0.77262   0.00000  Uiso   1.00
C105   C     0.78237   0.63776   0.72767   0.00000  Uiso   1.00
C106   C     0.78694   0.37023   0.90621   0.00000  Uiso   1.00
C107   C     0.80455   0.25809   0.89602   0.00000  Uiso   1.00
C108   C     0.90782   0.24734   0.90878   0.00000  Uiso   1.00
C109   C     0.90604   0.13724   0.89620   0.00000  Uiso   1.00
C110   C     0.66301   0.31781   0.93268   0.00000  Uiso   1.00
C111   C     0.64728   0.35730   0.97627   0.00000  Uiso   1.00
C112   C     0.52635   0.29750   0.99455   0.00000  Uiso   1.00
C113   C     0.76527   0.41392   0.85908   0.00000  Uiso   1.00
C114   C     0.83549   0.53421   0.84080   0.00000  Uiso   1.00
C115   C     0.80063   0.55534   0.79712   0.00000  Uiso   1.00
H116   H     0.52117   0.11924   0.84214   0.00000  Uiso   1.00
H117   H     0.62263   0.97805   0.84004   0.00000  Uiso   1.00
H118   H     0.36213   0.08801   0.90751   0.00000  Uiso   1.00
H119   H     0.55032   0.26489   0.77206   0.00000  Uiso   1.00
H120   H     0.77984   0.86373   0.84850   0.00000  Uiso   1.00
H121   H     0.23056   0.09562   0.99076   0.00000  Uiso   1.00
H122   H     0.62737   0.46862   0.70514   0.00000  Uiso   1.00
H123   H     0.86593   0.44483   0.92526   0.00000  Uiso   1.00
H124   H     0.98631   0.32149   0.92771   0.00000  Uiso   1.00
H125   H     0.72581   0.43145   0.99518   0.00000  Uiso   1.00
H126   H     0.91399   0.60834   0.85973   0.00000  Uiso   1.00
H127   H     0.07501   0.14249   0.91966   0.00000  Uiso   1.00
H128   H     0.52573   0.37437   0.06192   0.00000  Uiso   1.00
H129   H     0.92254   0.74737   0.77630   0.00000  Uiso   1.00
O130   O     0.00038   0.91609   0.88421   0.00000  Uiso   1.00
O131   O     0.27974   0.22032   0.07085   0.00000  Uiso   1.00
O132   O     0.80035   0.70969   0.69612   0.00000  Uiso   1.00
N133   N     0.83280   0.94628   0.86490   0.00000  Uiso   1.00
N134   N     0.31926   0.16306   0.99791   0.00000  Uiso   1.00
N135   N     0.69022   0.51179   0.73089   0.00000  Uiso   1.00
N136   N     0.99163   0.09627   0.90319   0.00000  Uiso   1.00
N137   N     0.47809   0.31305   0.03620   0.00000  Uiso   1.00
N138   N     0.84905   0.66179   0.76918   0.00000  Uiso   1.00
C139   C     0.40632   0.80616   0.47215   0.00000  Uiso   1.00
C140   C     0.54082   0.83773   0.46178   0.00000  Uiso   1.00
C141   C     0.64899   0.94782   0.47437   0.00000  Uiso   1.00
C142   C     0.76315   0.95874   0.46163   0.00000  Uiso   1.00
C143   C     0.97113   0.02235   0.44922   0.00000  Uiso   1.00
C144   C     0.33956   0.77800   0.42511   0.00000  Uiso   1.00
C145   C     0.27849   0.83786   0.40689   0.00000  Uiso   1.00
C146   C     0.22320   0.79848   0.36329   0.00000  Uiso   1.00
C147   C     0.11864   0.76930   0.29397   0.00000  Uiso   1.00
C148   C     0.34571   0.68189   0.49871   0.00000  Uiso   1.00
C149   C     0.28977   0.66094   0.54236   0.00000  Uiso   1.00
C150   C     0.23963   0.54064   0.56071   0.00000  Uiso   1.00
C151   C     0.14461   0.36224   0.60566   0.00000  Uiso   1.00
C152   C     0.41671   0.62977   0.42712   0.00000  Uiso   1.00
C153   C     0.54646   0.74191   0.43732   0.00000  Uiso   1.00
C154   C     0.66048   0.75266   0.42455   0.00000  Uiso   1.00
C155   C     0.76880   0.86276   0.43713   0.00000  Uiso   1.00
C156   C     0.34520   0.68219   0.40065   0.00000  Uiso   1.00
C157   C     0.28998   0.64270   0.35707   0.00000  Uiso   1.00
C158   C     0.22885   0.70250   0.33878   0.00000  Uiso   1.00
C159   C     0.35135   0.58608   0.47425   0.00000  Uiso   1.00
C160   C     0.30127   0.46579   0.49254   0.00000  Uiso   1.00
C161   C     0.24528   0.44466   0.53621   0.00000  Uiso   1.00
H162   H     0.40193   0.88076   0.49119   0.00000  Uiso   1.00
H163   H     0.64458   0.02195   0.49330   0.00000  Uiso   1.00
H164   H     0.27413   0.91199   0.42583   0.00000  Uiso   1.00
H165   H     0.28542   0.73511   0.56127   0.00000  Uiso   1.00
H166   H     0.91610   0.13627   0.48483   0.00000  Uiso   1.00
H167   H     0.13494   0.90438   0.34257   0.00000  Uiso   1.00
H168   H     0.15875   0.53138   0.62819   0.00000  Uiso   1.00
H169   H     0.42110   0.55517   0.40808   0.00000  Uiso   1.00
H170   H     0.66482   0.67851   0.40563   0.00000  Uiso   1.00
H171   H     0.29436   0.56855   0.33815   0.00000  Uiso   1.00
H172   H     0.30565   0.39166   0.47360   0.00000  Uiso   1.00
H173   H     0.93253   0.85751   0.41367   0.00000  Uiso   1.00
H174   H     0.15136   0.62563   0.27141   0.00000  Uiso   1.00
H175   H     0.17517   0.25263   0.55703   0.00000  Uiso   1.00
O176   O     0.08429   0.08391   0.44912   0.00000  Uiso   1.00
O177   O     0.05942   0.77968   0.26249   0.00000  Uiso   1.00
O178   O     0.09066   0.29031   0.63721   0.00000  Uiso   1.00
N179   N     0.88652   0.05372   0.46843   0.00000  Uiso   1.00
N180   N     0.15620   0.83694   0.33542   0.00000  Uiso   1.00
N181   N     0.17843   0.48821   0.60244   0.00000  Uiso   1.00
N182   N     0.89536   0.90373   0.43014   0.00000  Uiso   1.00
N183   N     0.16504   0.68695   0.29713   0.00000  Uiso   1.00
N184   N     0.18726   0.33821   0.56415   0.00000  Uiso   1.00
C185   C     0.39984   0.59368   0.80549   0.00000  Uiso   1.00
C186   C     0.29690   0.45918   0.79511   0.00000  Uiso   1.00
C187   C     0.29883   0.35101   0.80771   0.00000  Uiso   1.00
C188   C     0.19560   0.23685   0.79497   0.00000  Uiso   1.00
C189   C     0.05122   0.02887   0.78255   0.00000  Uiso   1.00
C190   C     0.43844   0.66044   0.75844   0.00000  Uiso   1.00
C191   C     0.55937   0.72151   0.74022   0.00000  Uiso   1.00
C192   C     0.57528   0.77680   0.69662   0.00000  Uiso   1.00
C193   C     0.65066   0.88136   0.62730   0.00000  Uiso   1.00
C194   C     0.33619   0.65429   0.83204   0.00000  Uiso   1.00
C195   C     0.37117   0.71023   0.87569   0.00000  Uiso   1.00
C196   C     0.30101   0.76037   0.89405   0.00000  Uiso   1.00
C197   C     0.21763   0.85539   0.93899   0.00000  Uiso   1.00
C198   C     0.21306   0.58329   0.76046   0.00000  Uiso   1.00
C199   C     0.19545   0.45354   0.77065   0.00000  Uiso   1.00
C200   C     0.09218   0.33952   0.75789   0.00000  Uiso   1.00
C201   C     0.09396   0.23120   0.77047   0.00000  Uiso   1.00
C202   C     0.33699   0.65480   0.73399   0.00000  Uiso   1.00
C203   C     0.35272   0.71002   0.69040   0.00000  Uiso   1.00
C204   C     0.47365   0.77115   0.67212   0.00000  Uiso   1.00
C205   C     0.23473   0.64865   0.80758   0.00000  Uiso   1.00
C206   C     0.16451   0.69873   0.82587   0.00000  Uiso   1.00
C207   C     0.19937   0.75472   0.86954   0.00000  Uiso   1.00
H208   H     0.47883   0.59807   0.82452   0.00000  Uiso   1.00
H209   H     0.37737   0.35542   0.82663   0.00000  Uiso   1.00
H210   H     0.63787   0.72587   0.75916   0.00000  Uiso   1.00
H211   H     0.44968   0.71458   0.89461   0.00000  Uiso   1.00
H212   H     0.22016   0.08390   0.81817   0.00000  Uiso   1.00
H213   H     0.76944   0.86506   0.67590   0.00000  Uiso   1.00
H214   H     0.37263   0.84125   0.96152   0.00000  Uiso   1.00
H215   H     0.13407   0.57890   0.74141   0.00000  Uiso   1.00
H216   H     0.01369   0.33518   0.73896   0.00000  Uiso   1.00
H217   H     0.27419   0.70564   0.67149   0.00000  Uiso   1.00
H218   H     0.08601   0.69435   0.80693   0.00000  Uiso   1.00
H219   H     0.92499   0.06747   0.74701   0.00000  Uiso   1.00
H220   H     0.47427   0.84864   0.60474   0.00000  Uiso   1.00
H221   H     0.07746   0.82483   0.89036   0.00000  Uiso   1.00
O222   O     0.99962   0.91571   0.78246   0.00000  Uiso   1.00
O223   O     0.72026   0.94058   0.59582   0.00000  Uiso   1.00
O224   O     0.19965   0.90934   0.97055   0.00000  Uiso   1.00
N225   N     0.16720   0.11348   0.80176   0.00000  Uiso   1.00
N226   N     0.68074   0.84380   0.66875   0.00000  Uiso   1.00
N227   N     0.30978   0.82157   0.93578   0.00000  Uiso   1.00
N228   N     0.00837   0.10464   0.76347   0.00000  Uiso   1.00
N229   N     0.52191   0.83496   0.63046   0.00000  Uiso   1.00
N230   N     0.15095   0.81274   0.89749   0.00000  Uiso   1.00
C231   C     0.19384   0.60016   0.13882   0.00000  Uiso   1.00
C232   C     0.16227   0.70310   0.12844   0.00000  Uiso   1.00
C233   C     0.05218   0.70117   0.14104   0.00000  Uiso   1.00
C234   C     0.04126   0.80440   0.12830   0.00000  Uiso   1.00
C235   C     0.97765   0.94878   0.11589   0.00000  Uiso   1.00
C236   C     0.22200   0.56156   0.09178   0.00000  Uiso   1.00
C237   C     0.16214   0.44063   0.07355   0.00000  Uiso   1.00
C238   C     0.20152   0.42472   0.02995   0.00000  Uiso   1.00
C239   C     0.23070   0.34934   0.96063   0.00000  Uiso   1.00
C240   C     0.31811   0.66381   0.16537   0.00000  Uiso   1.00
C241   C     0.33906   0.62883   0.20902   0.00000  Uiso   1.00
C242   C     0.45936   0.69899   0.22738   0.00000  Uiso   1.00
C243   C     0.63776   0.78237   0.27233   0.00000  Uiso   1.00
C244   C     0.37023   0.78694   0.09379   0.00000  Uiso   1.00
C245   C     0.25809   0.80455   0.10398   0.00000  Uiso   1.00
C246   C     0.24734   0.90782   0.09122   0.00000  Uiso   1.00
C247   C     0.13724   0.90604   0.10380   0.00000  Uiso   1.00
C248   C     0.31781   0.66301   0.06732   0.00000  Uiso   1.00
C249   C     0.35730   0.64728   0.02373   0.00000  Uiso   1.00
C250   C     0.29750   0.52635   0.00545   0.00000  Uiso   1.00
C251   C     0.41392   0.76527   0.14092   0.00000  Uiso   1.00
C252   C     0.53421   0.83549   0.15920   0.00000  Uiso   1.00
C253   C     0.55534   0.80063   0.20288   0.00000  Uiso   1.00
H254   H     0.11924   0.52117   0.15786   0.00000  Uiso   1.00
H255   H     0.97805   0.62263   0.15996   0.00000  Uiso   1.00
H256   H     0.08801   0.36213   0.09249   0.00000  Uiso   1.00
H257   H     0.26489   0.55032   0.22794   0.00000  Uiso   1.00
H258   H     0.86373   0.77984   0.15150   0.00000  Uiso   1.00
H259   H     0.09562   0.23056   0.00924   0.00000  Uiso   1.00
H260   H     0.46862   0.62737   0.29486   0.00000  Uiso   1.00
H261   H     0.44483   0.86593   0.07474   0.00000  Uiso   1.00
H262   H     0.32149   0.98631   0.07229   0.00000  Uiso   1.00
H263   H     0.43145   0.72581   0.00482   0.00000  Uiso   1.00
H264   H     0.60834   0.91399   0.14027   0.00000  Uiso   1.00
H265   H     0.14249   0.07501   0.08034   0.00000  Uiso   1.00
H266   H     0.37437   0.52573   0.93808   0.00000  Uiso   1.00
H267   H     0.74737   0.92254   0.22370   0.00000  Uiso   1.00
O268   O     0.91609   0.00038   0.11579   0.00000  Uiso   1.00
O269   O     0.22032   0.27974   0.92915   0.00000  Uiso   1.00
O270   O     0.70969   0.80035   0.30388   0.00000  Uiso   1.00
N271   N     0.94628   0.83280   0.13510   0.00000  Uiso   1.00
N272   N     0.16306   0.31926   0.00209   0.00000  Uiso   1.00
N273   N     0.51179   0.69022   0.26911   0.00000  Uiso   1.00
N274   N     0.09627   0.99163   0.09681   0.00000  Uiso   1.00
N275   N     0.31305   0.47809   0.96380   0.00000  Uiso   1.00
N276   N     0.66179   0.84905   0.23082   0.00000  Uiso   1.00
