data_job_01464
_audit_creation_date              2018-12-19
_audit_creation_method            'Materials Studio'
_symmetry_space_group_name_H-M    'P1'
_symmetry_Int_Tables_number       1
_symmetry_cell_setting            triclinic
loop_
_symmetry_equiv_pos_as_xyz
  x,y,z
_cell_length_a                    9.4099
_cell_length_b                    11.2670
_cell_length_c                    15.0438
_cell_angle_alpha                 100.4108
_cell_angle_beta                  92.9469
_cell_angle_gamma                 111.4982
loop_
_atom_site_label
_atom_site_type_symbol
_atom_site_fract_x
_atom_site_fract_y
_atom_site_fract_z
_atom_site_U_iso_or_equiv
_atom_site_adp_type
_atom_site_occupancy
C1     C     0.78381   0.04753   0.20038   0.00000  Uiso   1.00
C2     C     0.82555   0.93389   0.15604   0.00000  Uiso   1.00
C3     C     0.81583   0.88759   0.06304   0.00000  Uiso   1.00
C4     C     0.85933   0.78267   0.03616   0.00000  Uiso   1.00
C5     C     0.91625   0.61476   0.95759   0.00000  Uiso   1.00
C6     C     0.66350   0.99333   0.26217   0.00000  Uiso   1.00
C7     C     0.51754   0.99703   0.25842   0.00000  Uiso   1.00
C8     C     0.42465   0.94217   0.32089   0.00000  Uiso   1.00
C9     C     0.23002   0.86664   0.40713   0.00000  Uiso   1.00
C10    C     0.92718   0.14409   0.26354   0.00000  Uiso   1.00
C11    C     0.00290   0.27457   0.26095   0.00000  Uiso   1.00
C12    C     0.13199   0.34664   0.32459   0.00000  Uiso   1.00
C13    C     0.34676   0.50519   0.41295   0.00000  Uiso   1.00
C14    C     0.87837   0.94354   0.31801   0.00000  Uiso   1.00
C15    C     0.87690   0.87740   0.21994   0.00000  Uiso   1.00
C16    C     0.92045   0.77253   0.19318   0.00000  Uiso   1.00
C17    C     0.91079   0.72608   0.10016   0.00000  Uiso   1.00
C18    C     0.71485   0.93685   0.32606   0.00000  Uiso   1.00
C19    C     0.62216   0.88197   0.38856   0.00000  Uiso   1.00
C20    C     0.47610   0.88558   0.38489   0.00000  Uiso   1.00
C21    C     0.97854   0.08761   0.32743   0.00000  Uiso   1.00
C22    C     0.10753   0.15950   0.39109   0.00000  Uiso   1.00
C23    C     0.18344   0.29005   0.38859   0.00000  Uiso   1.00
H24    H     0.74382   0.09151   0.15064   0.00000  Uiso   1.00
H25    H     0.77606   0.93132   0.01362   0.00000  Uiso   1.00
H26    H     0.47783   0.04076   0.20897   0.00000  Uiso   1.00
H27    H     0.96312   0.31824   0.21150   0.00000  Uiso   1.00
H28    H     0.83440   0.72878   0.88988   0.00000  Uiso   1.00
H29    H     0.20559   0.95959   0.30181   0.00000  Uiso   1.00
H30    H     0.22892   0.54472   0.30714   0.00000  Uiso   1.00
H31    H     0.91836   0.89956   0.36776   0.00000  Uiso   1.00
H32    H     0.96019   0.72883   0.24264   0.00000  Uiso   1.00
H33    H     0.66195   0.83827   0.43799   0.00000  Uiso   1.00
H34    H     0.14724   0.11576   0.44052   0.00000  Uiso   1.00
H35    H     0.98384   0.56443   0.07576   0.00000  Uiso   1.00
H36    H     0.35502   0.79524   0.48769   0.00000  Uiso   1.00
H37    H     0.37835   0.38037   0.49303   0.00000  Uiso   1.00
O38    O     0.93343   0.53774   0.89660   0.00000  Uiso   1.00
O39    O     0.10847   0.84057   0.43705   0.00000  Uiso   1.00
O40    O     0.45105   0.60824   0.44404   0.00000  Uiso   1.00
N41    N     0.86386   0.71355   0.95080   0.00000  Uiso   1.00
N42    N     0.27595   0.92932   0.33592   0.00000  Uiso   1.00
N43    N     0.23265   0.47638   0.34092   0.00000  Uiso   1.00
N44    N     0.94427   0.62512   0.05082   0.00000  Uiso   1.00
N45    N     0.35636   0.84088   0.43594   0.00000  Uiso   1.00
N46    N     0.31306   0.38794   0.44094   0.00000  Uiso   1.00
C47    C     0.21619   0.95247   0.79962   0.00000  Uiso   1.00
C48    C     0.17445   0.06611   0.84396   0.00000  Uiso   1.00
C49    C     0.18417   0.11241   0.93696   0.00000  Uiso   1.00
C50    C     0.14067   0.21733   0.96384   0.00000  Uiso   1.00
C51    C     0.08375   0.38524   0.04241   0.00000  Uiso   1.00
C52    C     0.33650   0.00667   0.73783   0.00000  Uiso   1.00
C53    C     0.48246   0.00297   0.74158   0.00000  Uiso   1.00
C54    C     0.57535   0.05783   0.67911   0.00000  Uiso   1.00
C55    C     0.76998   0.13336   0.59287   0.00000  Uiso   1.00
C56    C     0.07282   0.85591   0.73646   0.00000  Uiso   1.00
C57    C     0.99710   0.72543   0.73905   0.00000  Uiso   1.00
C58    C     0.86801   0.65336   0.67541   0.00000  Uiso   1.00
C59    C     0.65324   0.49481   0.58705   0.00000  Uiso   1.00
C60    C     0.12163   0.05646   0.68199   0.00000  Uiso   1.00
C61    C     0.12310   0.12260   0.78006   0.00000  Uiso   1.00
C62    C     0.07955   0.22747   0.80682   0.00000  Uiso   1.00
C63    C     0.08921   0.27392   0.89984   0.00000  Uiso   1.00
C64    C     0.28515   0.06315   0.67394   0.00000  Uiso   1.00
C65    C     0.37784   0.11803   0.61144   0.00000  Uiso   1.00
C66    C     0.52390   0.11442   0.61511   0.00000  Uiso   1.00
C67    C     0.02146   0.91239   0.67257   0.00000  Uiso   1.00
C68    C     0.89247   0.84050   0.60891   0.00000  Uiso   1.00
C69    C     0.81656   0.70995   0.61141   0.00000  Uiso   1.00
H70    H     0.25618   0.90849   0.84936   0.00000  Uiso   1.00
H71    H     0.22394   0.06868   0.98638   0.00000  Uiso   1.00
H72    H     0.52217   0.95924   0.79103   0.00000  Uiso   1.00
H73    H     0.03688   0.68176   0.78850   0.00000  Uiso   1.00
H74    H     0.16560   0.27122   0.11012   0.00000  Uiso   1.00
H75    H     0.79441   0.04041   0.69819   0.00000  Uiso   1.00
H76    H     0.77108   0.45528   0.69286   0.00000  Uiso   1.00
H77    H     0.08164   0.10044   0.63224   0.00000  Uiso   1.00
H78    H     0.03981   0.27117   0.75736   0.00000  Uiso   1.00
H79    H     0.33805   0.16173   0.56201   0.00000  Uiso   1.00
H80    H     0.85276   0.88424   0.55948   0.00000  Uiso   1.00
H81    H     0.01616   0.43557   0.92424   0.00000  Uiso   1.00
H82    H     0.64498   0.20476   0.51231   0.00000  Uiso   1.00
H83    H     0.62165   0.61963   0.50697   0.00000  Uiso   1.00
O84    O     0.06657   0.46226   0.10340   0.00000  Uiso   1.00
O85    O     0.89153   0.15943   0.56295   0.00000  Uiso   1.00
O86    O     0.54895   0.39176   0.55596   0.00000  Uiso   1.00
N87    N     0.13614   0.28645   0.04920   0.00000  Uiso   1.00
N88    N     0.72405   0.07068   0.66408   0.00000  Uiso   1.00
N89    N     0.76735   0.52362   0.65908   0.00000  Uiso   1.00
N90    N     0.05573   0.37488   0.94918   0.00000  Uiso   1.00
N91    N     0.64364   0.15912   0.56406   0.00000  Uiso   1.00
N92    N     0.68694   0.61206   0.55906   0.00000  Uiso   1.00
