data_job_00658
_audit_creation_date              2018-12-19
_audit_creation_method            'Materials Studio'
_symmetry_space_group_name_H-M    'P1'
_symmetry_Int_Tables_number       1
_symmetry_cell_setting            triclinic
loop_
_symmetry_equiv_pos_as_xyz
  x,y,z
_cell_length_a                    22.4536
_cell_length_b                    21.5537
_cell_length_c                    10.5382
_cell_angle_alpha                 90.0000
_cell_angle_beta                  86.7247
_cell_angle_gamma                 90.0000
loop_
_atom_site_label
_atom_site_type_symbol
_atom_site_fract_x
_atom_site_fract_y
_atom_site_fract_z
_atom_site_U_iso_or_equiv
_atom_site_adp_type
_atom_site_occupancy
C1     C     0.94767   0.50016   0.75930   0.00000  Uiso   1.00
C2     C     0.96451   0.43205   0.77299   0.00000  Uiso   1.00
C3     C     0.93582   0.38219   0.71976   0.00000  Uiso   1.00
C4     C     0.95802   0.32345   0.74344   0.00000  Uiso   1.00
C5     C     0.97667   0.21898   0.75345   0.00000  Uiso   1.00
C6     C     0.93684   0.52494   0.89419   0.00000  Uiso   1.00
C7     C     0.88489   0.55319   0.94285   0.00000  Uiso   1.00
C8     C     0.88380   0.57266   0.06855   0.00000  Uiso   1.00
C9     C     0.85951   0.61245   0.26670   0.00000  Uiso   1.00
C10    C     0.00365   0.53278   0.70442   0.00000  Uiso   1.00
C11    C     0.00787   0.56764   0.59354   0.00000  Uiso   1.00
C12    C     0.06302   0.59372   0.55948   0.00000  Uiso   1.00
C13    C     0.14246   0.64568   0.46299   0.00000  Uiso   1.00
C14    C     0.03812   0.48452   0.89600   0.00000  Uiso   1.00
C15    C     0.01364   0.42355   0.84724   0.00000  Uiso   1.00
C16    C     0.03589   0.36488   0.87101   0.00000  Uiso   1.00
C17    C     0.00724   0.31494   0.81782   0.00000  Uiso   1.00
C18    C     0.98596   0.51645   0.96844   0.00000  Uiso   1.00
C19    C     0.98496   0.53588   0.09410   0.00000  Uiso   1.00
C20    C     0.93302   0.56415   0.14294   0.00000  Uiso   1.00
C21    C     0.05278   0.52429   0.77867   0.00000  Uiso   1.00
C22    C     0.10793   0.55033   0.74479   0.00000  Uiso   1.00
C23    C     0.11224   0.58521   0.63387   0.00000  Uiso   1.00
H24    H     0.90943   0.50678   0.70150   0.00000  Uiso   1.00
H25    H     0.89780   0.38878   0.66231   0.00000  Uiso   1.00
H26    H     0.84688   0.55977   0.88536   0.00000  Uiso   1.00
H27    H     0.96984   0.57420   0.53610   0.00000  Uiso   1.00
H28    H     0.90656   0.25421   0.65165   0.00000  Uiso   1.00
H29    H     0.79920   0.61476   0.12195   0.00000  Uiso   1.00
H30    H     0.05848   0.64521   0.38547   0.00000  Uiso   1.00
H31    H     0.07637   0.47791   0.95382   0.00000  Uiso   1.00
H32    H     0.07391   0.35832   0.92847   0.00000  Uiso   1.00
H33    H     0.02298   0.52930   0.15153   0.00000  Uiso   1.00
H34    H     0.14594   0.54374   0.80227   0.00000  Uiso   1.00
H35    H     0.04949   0.22948   0.86768   0.00000  Uiso   1.00
H36    H     0.94213   0.59004   0.33798   0.00000  Uiso   1.00
H37    H     0.20141   0.62048   0.60150   0.00000  Uiso   1.00
O38    O     0.97338   0.16369   0.73848   0.00000  Uiso   1.00
O39    O     0.83254   0.63673   0.35548   0.00000  Uiso   1.00
O40    O     0.17270   0.67668   0.38924   0.00000  Uiso   1.00
N41    N     0.94055   0.26480   0.70595   0.00000  Uiso   1.00
N42    N     0.84017   0.60189   0.14566   0.00000  Uiso   1.00
N43    N     0.08257   0.63037   0.45713   0.00000  Uiso   1.00
N44    N     0.01746   0.25150   0.82219   0.00000  Uiso   1.00
N45    N     0.91708   0.58858   0.26190   0.00000  Uiso   1.00
N46    N     0.15948   0.61706   0.57337   0.00000  Uiso   1.00
C47    C     0.10712   0.34214   0.21520   0.00000  Uiso   1.00
C48    C     0.13738   0.40015   0.15941   0.00000  Uiso   1.00
C49    C     0.17749   0.40185   0.05427   0.00000  Uiso   1.00
C50    C     0.20023   0.45952   0.01823   0.00000  Uiso   1.00
C51    C     0.24981   0.54139   0.92149   0.00000  Uiso   1.00
C52    C     0.12255   0.33984   0.35417   0.00000  Uiso   1.00
C53    C     0.15017   0.29082   0.41278   0.00000  Uiso   1.00
C54    C     0.16042   0.29771   0.54071   0.00000  Uiso   1.00
C55    C     0.18692   0.28592   0.74636   0.00000  Uiso   1.00
C56    C     0.04023   0.35453   0.21629   0.00000  Uiso   1.00
C57    C     0.99863   0.31786   0.15900   0.00000  Uiso   1.00
C58    C     0.93956   0.33712   0.17087   0.00000  Uiso   1.00
C59    C     0.83825   0.34814   0.16243   0.00000  Uiso   1.00
C60    C     0.07619   0.44152   0.33817   0.00000  Uiso   1.00
C61    C     0.12059   0.45414   0.22621   0.00000  Uiso   1.00
C62    C     0.14327   0.51181   0.19032   0.00000  Uiso   1.00
C63    C     0.18340   0.51360   0.08514   0.00000  Uiso   1.00
C64    C     0.10575   0.39382   0.42097   0.00000  Uiso   1.00
C65    C     0.11596   0.40078   0.54884   0.00000  Uiso   1.00
C66    C     0.14359   0.35179   0.60763   0.00000  Uiso   1.00
C67    C     0.02343   0.40852   0.28309   0.00000  Uiso   1.00
C68    C     0.96441   0.42783   0.29505   0.00000  Uiso   1.00
C69    C     0.92273   0.39120   0.23778   0.00000  Uiso   1.00
H70    H     0.12020   0.30011   0.16320   0.00000  Uiso   1.00
H71    H     0.19048   0.36007   0.00261   0.00000  Uiso   1.00
H72    H     0.16316   0.24905   0.36107   0.00000  Uiso   1.00
H73    H     0.01164   0.27609   0.10732   0.00000  Uiso   1.00
H74    H     0.26101   0.45034   0.85404   0.00000  Uiso   1.00
H75    H     0.20339   0.21625   0.60989   0.00000  Uiso   1.00
H76    H     0.88389   0.27327   0.07481   0.00000  Uiso   1.00
H77    H     0.06311   0.48355   0.39018   0.00000  Uiso   1.00
H78    H     0.13026   0.55358   0.24203   0.00000  Uiso   1.00
H79    H     0.10295   0.44256   0.60050   0.00000  Uiso   1.00
H80    H     0.95143   0.46960   0.34675   0.00000  Uiso   1.00
H81    H     0.21214   0.60741   0.04837   0.00000  Uiso   1.00
H82    H     0.15452   0.37331   0.80423   0.00000  Uiso   1.00
H83    H     0.83501   0.43033   0.26914   0.00000  Uiso   1.00
O84    O     0.28180   0.57163   0.84968   0.00000  Uiso   1.00
O85    O     0.20619   0.26450   0.84133   0.00000  Uiso   1.00
O86    O     0.78701   0.33931   0.13931   0.00000  Uiso   1.00
N87    N     0.24029   0.47770   0.92009   0.00000  Uiso   1.00
N88    N     0.18642   0.25884   0.62677   0.00000  Uiso   1.00
N89    N     0.88771   0.31214   0.12654   0.00000  Uiso   1.00
N90    N     0.21399   0.56222   0.02466   0.00000  Uiso   1.00
N91    N     0.16013   0.34335   0.73133   0.00000  Uiso   1.00
N92    N     0.86141   0.39665   0.23110   0.00000  Uiso   1.00
C93    C     0.56792   0.77009   0.79786   0.00000  Uiso   1.00
C94    C     0.54036   0.83477   0.79933   0.00000  Uiso   1.00
C95    C     0.56231   0.88556   0.73056   0.00000  Uiso   1.00
C96    C     0.53065   0.94068   0.74493   0.00000  Uiso   1.00
C97    C     0.49575   0.04049   0.73504   0.00000  Uiso   1.00
C98    C     0.57909   0.75484   0.93579   0.00000  Uiso   1.00
C99    C     0.63362   0.73842   0.98175   0.00000  Uiso   1.00
C100   C     0.63456   0.72625   0.11100   0.00000  Uiso   1.00
C101   C     0.65979   0.70192   0.31295   0.00000  Uiso   1.00
C102   C     0.51903   0.72586   0.75979   0.00000  Uiso   1.00
C103   C     0.52305   0.68506   0.65777   0.00000  Uiso   1.00
C104   C     0.47343   0.64849   0.63886   0.00000  Uiso   1.00
C105   C     0.40539   0.57917   0.56754   0.00000  Uiso   1.00
C106   C     0.47266   0.77767   0.94570   0.00000  Uiso   1.00
C107   C     0.48862   0.83888   0.87963   0.00000  Uiso   1.00
C108   C     0.45692   0.89394   0.89411   0.00000  Uiso   1.00
C109   C     0.47882   0.94481   0.82537   0.00000  Uiso   1.00
C110   C     0.52736   0.75895   0.01609   0.00000  Uiso   1.00
C111   C     0.52822   0.74680   0.14530   0.00000  Uiso   1.00
C112   C     0.58273   0.73037   0.19144   0.00000  Uiso   1.00
C113   C     0.46729   0.72998   0.84008   0.00000  Uiso   1.00
C114   C     0.41765   0.69345   0.82133   0.00000  Uiso   1.00
C115   C     0.42160   0.65261   0.71930   0.00000  Uiso   1.00
H116   H     0.60820   0.76688   0.73536   0.00000  Uiso   1.00
H117   H     0.60236   0.88235   0.66843   0.00000  Uiso   1.00
H118   H     0.67365   0.73523   0.91958   0.00000  Uiso   1.00
H119   H     0.56309   0.68189   0.59566   0.00000  Uiso   1.00
H120   H     0.57307   0.01220   0.62968   0.00000  Uiso   1.00
H121   H     0.72339   0.70196   0.15924   0.00000  Uiso   1.00
H122   H     0.49026   0.58947   0.47618   0.00000  Uiso   1.00
H123   H     0.43238   0.78087   0.00821   0.00000  Uiso   1.00
H124   H     0.41688   0.89712   0.95626   0.00000  Uiso   1.00
H125   H     0.48818   0.74999   0.20741   0.00000  Uiso   1.00
H126   H     0.37762   0.69665   0.88348   0.00000  Uiso   1.00
H127   H     0.42253   0.02418   0.86330   0.00000  Uiso   1.00
H128   H     0.57285   0.71393   0.39285   0.00000  Uiso   1.00
H129   H     0.33973   0.60145   0.70979   0.00000  Uiso   1.00
O130   O     0.49079   0.09441   0.70742   0.00000  Uiso   1.00
O131   O     0.68800   0.68737   0.40216   0.00000  Uiso   1.00
O132   O     0.38215   0.53980   0.50601   0.00000  Uiso   1.00
N133   N     0.53976   0.99906   0.69177   0.00000  Uiso   1.00
N134   N     0.68030   0.70901   0.18688   0.00000  Uiso   1.00
N135   N     0.46236   0.60384   0.54829   0.00000  Uiso   1.00
N136   N     0.45876   0.00551   0.81748   0.00000  Uiso   1.00
N137   N     0.59930   0.71546   0.31258   0.00000  Uiso   1.00
N138   N     0.38135   0.61029   0.67400   0.00000  Uiso   1.00
C139   C     0.38975   0.93332   0.31287   0.00000  Uiso   1.00
C140   C     0.35699   0.87406   0.27954   0.00000  Uiso   1.00
C141   C     0.32198   0.86627   0.17636   0.00000  Uiso   1.00
C142   C     0.29580   0.80850   0.16240   0.00000  Uiso   1.00
C143   C     0.24361   0.72383   0.09756   0.00000  Uiso   1.00
C144   C     0.36786   0.94974   0.44837   0.00000  Uiso   1.00
C145   C     0.34200   0.00559   0.48715   0.00000  Uiso   1.00
C146   C     0.32497   0.01152   0.61532   0.00000  Uiso   1.00
C147   C     0.28970   0.04436   0.81262   0.00000  Uiso   1.00
C148   C     0.45518   0.91535   0.31945   0.00000  Uiso   1.00
C149   C     0.50275   0.94230   0.24986   0.00000  Uiso   1.00
C150   C     0.55924   0.91929   0.26951   0.00000  Uiso   1.00
C151   C     0.65955   0.89873   0.26663   0.00000  Uiso   1.00
C152   C     0.40551   0.84457   0.47154   0.00000  Uiso   1.00
C153   C     0.36555   0.82585   0.36572   0.00000  Uiso   1.00
C154   C     0.33942   0.76808   0.35190   0.00000  Uiso   1.00
C155   C     0.30438   0.76021   0.24873   0.00000  Uiso   1.00
C156   C     0.37642   0.90154   0.53455   0.00000  Uiso   1.00
C157   C     0.35943   0.90739   0.66269   0.00000  Uiso   1.00
C158   C     0.33354   0.96323   0.70166   0.00000  Uiso   1.00
C159   C     0.46375   0.86714   0.40563   0.00000  Uiso   1.00
C160   C     0.52018   0.84410   0.42539   0.00000  Uiso   1.00
C161   C     0.56782   0.87100   0.35584   0.00000  Uiso   1.00
H162   H     0.38308   0.97086   0.24579   0.00000  Uiso   1.00
H163   H     0.31537   0.90359   0.10970   0.00000  Uiso   1.00
H164   H     0.33538   0.04288   0.42044   0.00000  Uiso   1.00
H165   H     0.49611   0.97960   0.18318   0.00000  Uiso   1.00
H166   H     0.24404   0.80777   0.99685   0.00000  Uiso   1.00
H167   H     0.28627   0.10148   0.65208   0.00000  Uiso   1.00
H168   H     0.62519   0.96803   0.15176   0.00000  Uiso   1.00
H169   H     0.41217   0.80704   0.53863   0.00000  Uiso   1.00
H170   H     0.34605   0.73078   0.41861   0.00000  Uiso   1.00
H171   H     0.36607   0.87008   0.72935   0.00000  Uiso   1.00
H172   H     0.52679   0.80679   0.49209   0.00000  Uiso   1.00
H173   H     0.26895   0.66751   0.24758   0.00000  Uiso   1.00
H174   H     0.31117   0.96123   0.90281   0.00000  Uiso   1.00
H175   H     0.65009   0.82778   0.40249   0.00000  Uiso   1.00
O176   O     0.21246   0.69044   0.03800   0.00000  Uiso   1.00
O177   O     0.26787   0.07578   0.89763   0.00000  Uiso   1.00
O178   O     0.71251   0.90070   0.24123   0.00000  Uiso   1.00
N179   N     0.25899   0.78522   0.07232   0.00000  Uiso   1.00
N180   N     0.29846   0.05982   0.68491   0.00000  Uiso   1.00
N181   N     0.61532   0.93507   0.21718   0.00000  Uiso   1.00
N182   N     0.27239   0.70975   0.20723   0.00000  Uiso   1.00
N183   N     0.31186   0.98435   0.81982   0.00000  Uiso   1.00
N184   N     0.62872   0.85960   0.35210   0.00000  Uiso   1.00
C185   C     0.05233   0.00016   0.24070   0.00000  Uiso   1.00
C186   C     0.03549   0.93205   0.22701   0.00000  Uiso   1.00
C187   C     0.06418   0.88219   0.28024   0.00000  Uiso   1.00
C188   C     0.04198   0.82345   0.25656   0.00000  Uiso   1.00
C189   C     0.02333   0.71898   0.24655   0.00000  Uiso   1.00
C190   C     0.06316   0.02494   0.10581   0.00000  Uiso   1.00
C191   C     0.11511   0.05319   0.05715   0.00000  Uiso   1.00
C192   C     0.11620   0.07266   0.93145   0.00000  Uiso   1.00
C193   C     0.14049   0.11245   0.73330   0.00000  Uiso   1.00
C194   C     0.99635   0.03278   0.29558   0.00000  Uiso   1.00
C195   C     0.99213   0.06764   0.40646   0.00000  Uiso   1.00
C196   C     0.93698   0.09372   0.44052   0.00000  Uiso   1.00
C197   C     0.85754   0.14568   0.53701   0.00000  Uiso   1.00
C198   C     0.96188   0.98452   0.10400   0.00000  Uiso   1.00
C199   C     0.98636   0.92355   0.15276   0.00000  Uiso   1.00
C200   C     0.96411   0.86488   0.12899   0.00000  Uiso   1.00
C201   C     0.99276   0.81494   0.18218   0.00000  Uiso   1.00
C202   C     0.01404   0.01645   0.03156   0.00000  Uiso   1.00
C203   C     0.01504   0.03588   0.90590   0.00000  Uiso   1.00
C204   C     0.06698   0.06415   0.85706   0.00000  Uiso   1.00
C205   C     0.94722   0.02429   0.22133   0.00000  Uiso   1.00
C206   C     0.89207   0.05033   0.25521   0.00000  Uiso   1.00
C207   C     0.88776   0.08521   0.36613   0.00000  Uiso   1.00
H208   H     0.09057   0.00678   0.29850   0.00000  Uiso   1.00
H209   H     0.10220   0.88878   0.33769   0.00000  Uiso   1.00
H210   H     0.15312   0.05977   0.11464   0.00000  Uiso   1.00
H211   H     0.03016   0.07420   0.46390   0.00000  Uiso   1.00
H212   H     0.09344   0.75421   0.34835   0.00000  Uiso   1.00
H213   H     0.20080   0.11476   0.87805   0.00000  Uiso   1.00
H214   H     0.94152   0.14521   0.61453   0.00000  Uiso   1.00
H215   H     0.92363   0.97791   0.04618   0.00000  Uiso   1.00
H216   H     0.92609   0.85832   0.07153   0.00000  Uiso   1.00
H217   H     0.97702   0.02930   0.84847   0.00000  Uiso   1.00
H218   H     0.85406   0.04374   0.19773   0.00000  Uiso   1.00
H219   H     0.95051   0.72948   0.13232   0.00000  Uiso   1.00
H220   H     0.05787   0.09004   0.66202   0.00000  Uiso   1.00
H221   H     0.79859   0.12048   0.39850   0.00000  Uiso   1.00
O222   O     0.02662   0.66369   0.26152   0.00000  Uiso   1.00
O223   O     0.16746   0.13673   0.64452   0.00000  Uiso   1.00
O224   O     0.82730   0.17668   0.61076   0.00000  Uiso   1.00
N225   N     0.05945   0.76480   0.29405   0.00000  Uiso   1.00
N226   N     0.15983   0.10189   0.85434   0.00000  Uiso   1.00
N227   N     0.91743   0.13037   0.54287   0.00000  Uiso   1.00
N228   N     0.98254   0.75150   0.17781   0.00000  Uiso   1.00
N229   N     0.08292   0.08858   0.73810   0.00000  Uiso   1.00
N230   N     0.84052   0.11706   0.42663   0.00000  Uiso   1.00
C231   C     0.89288   0.84214   0.78480   0.00000  Uiso   1.00
C232   C     0.86262   0.90015   0.84059   0.00000  Uiso   1.00
C233   C     0.82251   0.90185   0.94573   0.00000  Uiso   1.00
C234   C     0.79977   0.95952   0.98177   0.00000  Uiso   1.00
C235   C     0.75019   0.04139   0.07851   0.00000  Uiso   1.00
C236   C     0.87745   0.83984   0.64583   0.00000  Uiso   1.00
C237   C     0.84983   0.79082   0.58722   0.00000  Uiso   1.00
C238   C     0.83958   0.79771   0.45929   0.00000  Uiso   1.00
C239   C     0.81308   0.78592   0.25364   0.00000  Uiso   1.00
C240   C     0.95977   0.85453   0.78371   0.00000  Uiso   1.00
C241   C     0.00137   0.81786   0.84100   0.00000  Uiso   1.00
C242   C     0.06044   0.83712   0.82913   0.00000  Uiso   1.00
C243   C     0.16175   0.84814   0.83757   0.00000  Uiso   1.00
C244   C     0.92381   0.94152   0.66183   0.00000  Uiso   1.00
C245   C     0.87941   0.95414   0.77379   0.00000  Uiso   1.00
C246   C     0.85673   0.01181   0.80968   0.00000  Uiso   1.00
C247   C     0.81660   0.01360   0.91486   0.00000  Uiso   1.00
C248   C     0.89425   0.89382   0.57903   0.00000  Uiso   1.00
C249   C     0.88404   0.90078   0.45116   0.00000  Uiso   1.00
C250   C     0.85641   0.85179   0.39237   0.00000  Uiso   1.00
C251   C     0.97657   0.90852   0.71691   0.00000  Uiso   1.00
C252   C     0.03559   0.92783   0.70495   0.00000  Uiso   1.00
C253   C     0.07727   0.89120   0.76222   0.00000  Uiso   1.00
H254   H     0.87980   0.80011   0.83680   0.00000  Uiso   1.00
H255   H     0.80952   0.86007   0.99739   0.00000  Uiso   1.00
H256   H     0.83684   0.74905   0.63893   0.00000  Uiso   1.00
H257   H     0.98836   0.77609   0.89268   0.00000  Uiso   1.00
H258   H     0.73899   0.95034   0.14596   0.00000  Uiso   1.00
H259   H     0.79661   0.71625   0.39011   0.00000  Uiso   1.00
H260   H     0.11611   0.77327   0.92519   0.00000  Uiso   1.00
H261   H     0.93689   0.98355   0.60982   0.00000  Uiso   1.00
H262   H     0.86974   0.05358   0.75797   0.00000  Uiso   1.00
H263   H     0.89705   0.94256   0.39950   0.00000  Uiso   1.00
H264   H     0.04857   0.96960   0.65325   0.00000  Uiso   1.00
H265   H     0.78786   0.10741   0.95163   0.00000  Uiso   1.00
H266   H     0.84548   0.87331   0.19577   0.00000  Uiso   1.00
H267   H     0.16499   0.93033   0.73086   0.00000  Uiso   1.00
O268   O     0.71820   0.07163   0.15032   0.00000  Uiso   1.00
O269   O     0.79381   0.76450   0.15867   0.00000  Uiso   1.00
O270   O     0.21299   0.83931   0.86069   0.00000  Uiso   1.00
N271   N     0.75971   0.97770   0.07991   0.00000  Uiso   1.00
N272   N     0.81358   0.75884   0.37323   0.00000  Uiso   1.00
N273   N     0.11229   0.81214   0.87346   0.00000  Uiso   1.00
N274   N     0.78601   0.06222   0.97534   0.00000  Uiso   1.00
N275   N     0.83987   0.84335   0.26867   0.00000  Uiso   1.00
N276   N     0.13859   0.89665   0.76890   0.00000  Uiso   1.00
C277   C     0.43208   0.27009   0.20214   0.00000  Uiso   1.00
C278   C     0.45964   0.33477   0.20067   0.00000  Uiso   1.00
C279   C     0.43769   0.38556   0.26944   0.00000  Uiso   1.00
C280   C     0.46935   0.44068   0.25507   0.00000  Uiso   1.00
C281   C     0.50425   0.54049   0.26496   0.00000  Uiso   1.00
C282   C     0.42091   0.25484   0.06421   0.00000  Uiso   1.00
C283   C     0.36638   0.23842   0.01825   0.00000  Uiso   1.00
C284   C     0.36544   0.22625   0.88900   0.00000  Uiso   1.00
C285   C     0.34021   0.20192   0.68705   0.00000  Uiso   1.00
C286   C     0.48097   0.22586   0.24021   0.00000  Uiso   1.00
C287   C     0.47695   0.18506   0.34223   0.00000  Uiso   1.00
C288   C     0.52657   0.14849   0.36114   0.00000  Uiso   1.00
C289   C     0.59461   0.07917   0.43246   0.00000  Uiso   1.00
C290   C     0.52734   0.27767   0.05430   0.00000  Uiso   1.00
C291   C     0.51138   0.33888   0.12037   0.00000  Uiso   1.00
C292   C     0.54308   0.39394   0.10589   0.00000  Uiso   1.00
C293   C     0.52118   0.44481   0.17463   0.00000  Uiso   1.00
C294   C     0.47264   0.25895   0.98391   0.00000  Uiso   1.00
C295   C     0.47178   0.24680   0.85470   0.00000  Uiso   1.00
C296   C     0.41727   0.23037   0.80856   0.00000  Uiso   1.00
C297   C     0.53271   0.22998   0.15992   0.00000  Uiso   1.00
C298   C     0.58235   0.19345   0.17867   0.00000  Uiso   1.00
C299   C     0.57840   0.15261   0.28070   0.00000  Uiso   1.00
H300   H     0.39180   0.26688   0.26464   0.00000  Uiso   1.00
H301   H     0.39764   0.38235   0.33157   0.00000  Uiso   1.00
H302   H     0.32635   0.23523   0.08042   0.00000  Uiso   1.00
H303   H     0.43691   0.18189   0.40434   0.00000  Uiso   1.00
H304   H     0.42693   0.51220   0.37032   0.00000  Uiso   1.00
H305   H     0.27661   0.20196   0.84076   0.00000  Uiso   1.00
H306   H     0.50974   0.08947   0.52382   0.00000  Uiso   1.00
H307   H     0.56762   0.28087   0.99179   0.00000  Uiso   1.00
H308   H     0.58312   0.39712   0.04374   0.00000  Uiso   1.00
H309   H     0.51182   0.24999   0.79259   0.00000  Uiso   1.00
H310   H     0.62238   0.19665   0.11652   0.00000  Uiso   1.00
H311   H     0.57747   0.52418   0.13670   0.00000  Uiso   1.00
H312   H     0.42715   0.21393   0.60715   0.00000  Uiso   1.00
H313   H     0.66027   0.10145   0.29021   0.00000  Uiso   1.00
O314   O     0.50921   0.59441   0.29258   0.00000  Uiso   1.00
O315   O     0.31200   0.18737   0.59784   0.00000  Uiso   1.00
O316   O     0.61785   0.03980   0.49399   0.00000  Uiso   1.00
N317   N     0.46024   0.49906   0.30823   0.00000  Uiso   1.00
N318   N     0.31970   0.20901   0.81312   0.00000  Uiso   1.00
N319   N     0.53764   0.10384   0.45171   0.00000  Uiso   1.00
N320   N     0.54124   0.50551   0.18252   0.00000  Uiso   1.00
N321   N     0.40070   0.21546   0.68742   0.00000  Uiso   1.00
N322   N     0.61865   0.11029   0.32600   0.00000  Uiso   1.00
C323   C     0.61025   0.43332   0.68713   0.00000  Uiso   1.00
C324   C     0.64301   0.37406   0.72046   0.00000  Uiso   1.00
C325   C     0.67802   0.36627   0.82364   0.00000  Uiso   1.00
C326   C     0.70420   0.30850   0.83760   0.00000  Uiso   1.00
C327   C     0.75639   0.22383   0.90244   0.00000  Uiso   1.00
C328   C     0.63214   0.44974   0.55163   0.00000  Uiso   1.00
C329   C     0.65800   0.50559   0.51285   0.00000  Uiso   1.00
C330   C     0.67503   0.51152   0.38468   0.00000  Uiso   1.00
C331   C     0.71030   0.54436   0.18738   0.00000  Uiso   1.00
C332   C     0.54482   0.41535   0.68055   0.00000  Uiso   1.00
C333   C     0.49725   0.44230   0.75014   0.00000  Uiso   1.00
C334   C     0.44076   0.41929   0.73049   0.00000  Uiso   1.00
C335   C     0.34045   0.39873   0.73337   0.00000  Uiso   1.00
C336   C     0.59449   0.34457   0.52846   0.00000  Uiso   1.00
C337   C     0.63445   0.32585   0.63428   0.00000  Uiso   1.00
C338   C     0.66058   0.26808   0.64810   0.00000  Uiso   1.00
C339   C     0.69562   0.26021   0.75127   0.00000  Uiso   1.00
C340   C     0.62358   0.40154   0.46545   0.00000  Uiso   1.00
C341   C     0.64057   0.40739   0.33731   0.00000  Uiso   1.00
C342   C     0.66646   0.46323   0.29834   0.00000  Uiso   1.00
C343   C     0.53625   0.36714   0.59437   0.00000  Uiso   1.00
C344   C     0.47982   0.34410   0.57461   0.00000  Uiso   1.00
C345   C     0.43218   0.37100   0.64416   0.00000  Uiso   1.00
H346   H     0.61692   0.47086   0.75421   0.00000  Uiso   1.00
H347   H     0.68463   0.40359   0.89030   0.00000  Uiso   1.00
H348   H     0.66462   0.54288   0.57956   0.00000  Uiso   1.00
H349   H     0.50389   0.47960   0.81682   0.00000  Uiso   1.00
H350   H     0.75596   0.30777   0.00315   0.00000  Uiso   1.00
H351   H     0.71373   0.60148   0.34792   0.00000  Uiso   1.00
H352   H     0.37481   0.46803   0.84824   0.00000  Uiso   1.00
H353   H     0.58783   0.30704   0.46137   0.00000  Uiso   1.00
H354   H     0.65395   0.23078   0.58139   0.00000  Uiso   1.00
H355   H     0.63393   0.37008   0.27065   0.00000  Uiso   1.00
H356   H     0.47321   0.30679   0.50791   0.00000  Uiso   1.00
H357   H     0.73105   0.16751   0.75242   0.00000  Uiso   1.00
H358   H     0.68883   0.46123   0.09719   0.00000  Uiso   1.00
H359   H     0.34991   0.32778   0.59751   0.00000  Uiso   1.00
O360   O     0.78754   0.19044   0.96200   0.00000  Uiso   1.00
O361   O     0.73213   0.57578   0.10237   0.00000  Uiso   1.00
O362   O     0.28749   0.40070   0.75877   0.00000  Uiso   1.00
N363   N     0.74101   0.28522   0.92768   0.00000  Uiso   1.00
N364   N     0.70154   0.55982   0.31509   0.00000  Uiso   1.00
N365   N     0.38468   0.43507   0.78282   0.00000  Uiso   1.00
N366   N     0.72761   0.20975   0.79277   0.00000  Uiso   1.00
N367   N     0.68814   0.48435   0.18018   0.00000  Uiso   1.00
N368   N     0.37128   0.35960   0.64790   0.00000  Uiso   1.00
