data_job_06976
_audit_creation_date              2018-12-19
_audit_creation_method            'Materials Studio'
_symmetry_space_group_name_H-M    'P1'
_symmetry_Int_Tables_number       1
_symmetry_cell_setting            triclinic
loop_
_symmetry_equiv_pos_as_xyz
  x,y,z
_cell_length_a                    21.1165
_cell_length_b                    21.7099
_cell_length_c                    23.9871
_cell_angle_alpha                 66.2725
_cell_angle_beta                  67.0764
_cell_angle_gamma                 64.4990
loop_
_atom_site_label
_atom_site_type_symbol
_atom_site_fract_x
_atom_site_fract_y
_atom_site_fract_z
_atom_site_U_iso_or_equiv
_atom_site_adp_type
_atom_site_occupancy
C1     C     0.13072   0.85104   0.48652   0.00000  Uiso   1.00
C2     C     0.18355   0.78726   0.46190   0.00000  Uiso   1.00
C3     C     0.21919   0.78951   0.39912   0.00000  Uiso   1.00
C4     C     0.26530   0.72534   0.38628   0.00000  Uiso   1.00
C5     C     0.34578   0.63605   0.34071   0.00000  Uiso   1.00
C6     C     0.06028   0.83383   0.52383   0.00000  Uiso   1.00
C7     C     0.99228   0.87525   0.51313   0.00000  Uiso   1.00
C8     C     0.93462   0.85029   0.55244   0.00000  Uiso   1.00
C9     C     0.82370   0.83334   0.60304   0.00000  Uiso   1.00
C10    C     0.16102   0.85117   0.53470   0.00000  Uiso   1.00
C11    C     0.17769   0.90718   0.53316   0.00000  Uiso   1.00
C12    C     0.20483   0.89682   0.58162   0.00000  Uiso   1.00
C13    C     0.25032   0.90679   0.64910   0.00000  Uiso   1.00
C14    C     0.14924   0.73306   0.57535   0.00000  Uiso   1.00
C15    C     0.19361   0.72318   0.51015   0.00000  Uiso   1.00
C16    C     0.23968   0.65898   0.49740   0.00000  Uiso   1.00
C17    C     0.27538   0.66114   0.43461   0.00000  Uiso   1.00
C18    C     0.07033   0.76975   0.57208   0.00000  Uiso   1.00
C19    C     0.01276   0.74473   0.61141   0.00000  Uiso   1.00
C20    C     0.94469   0.78610   0.60077   0.00000  Uiso   1.00
C21    C     0.17107   0.78709   0.58295   0.00000  Uiso   1.00
C22    C     0.19818   0.77665   0.63143   0.00000  Uiso   1.00
C23    C     0.21490   0.83263   0.62995   0.00000  Uiso   1.00
H24    H     0.12289   0.90093   0.44896   0.00000  Uiso   1.00
H25    H     0.21139   0.83911   0.36180   0.00000  Uiso   1.00
H26    H     0.98451   0.92484   0.47580   0.00000  Uiso   1.00
H27    H     0.16990   0.95676   0.49581   0.00000  Uiso   1.00
H28    H     0.31393   0.74232   0.28644   0.00000  Uiso   1.00
H29    H     0.83553   0.92310   0.52682   0.00000  Uiso   1.00
H30    H     0.22646   0.99041   0.56903   0.00000  Uiso   1.00
H31    H     0.15706   0.68317   0.61291   0.00000  Uiso   1.00
H32    H     0.24745   0.60940   0.53475   0.00000  Uiso   1.00
H33    H     0.02056   0.69514   0.64874   0.00000  Uiso   1.00
H34    H     0.20596   0.72705   0.66876   0.00000  Uiso   1.00
H35    H     0.34319   0.55588   0.42681   0.00000  Uiso   1.00
H36    H     0.86479   0.73666   0.66719   0.00000  Uiso   1.00
H37    H     0.25573   0.80397   0.70940   0.00000  Uiso   1.00
O38    O     0.38738   0.60450   0.30224   0.00000  Uiso   1.00
O39    O     0.75974   0.84168   0.61762   0.00000  Uiso   1.00
O40    O     0.27264   0.92999   0.67299   0.00000  Uiso   1.00
N41    N     0.30842   0.70856   0.33020   0.00000  Uiso   1.00
N42    N     0.86115   0.87758   0.55494   0.00000  Uiso   1.00
N43    N     0.22662   0.94051   0.59441   0.00000  Uiso   1.00
N44    N     0.32417   0.60824   0.40573   0.00000  Uiso   1.00
N45    N     0.87690   0.77726   0.63047   0.00000  Uiso   1.00
N46    N     0.24237   0.84019   0.66994   0.00000  Uiso   1.00
C47    C     0.84614   0.50194   0.43245   0.00000  Uiso   1.00
C48    C     0.78600   0.53464   0.39888   0.00000  Uiso   1.00
C49    C     0.79371   0.53088   0.34007   0.00000  Uiso   1.00
C50    C     0.73215   0.56428   0.31754   0.00000  Uiso   1.00
C51    C     0.64894   0.60963   0.26007   0.00000  Uiso   1.00
C52    C     0.84944   0.56293   0.44643   0.00000  Uiso   1.00
C53    C     0.91050   0.58295   0.42760   0.00000  Uiso   1.00
C54    C     0.90235   0.64016   0.44510   0.00000  Uiso   1.00
C55    C     0.91766   0.72939   0.46149   0.00000  Uiso   1.00
C56    C     0.81867   0.45348   0.49629   0.00000  Uiso   1.00
C57    C     0.85387   0.38149   0.51939   0.00000  Uiso   1.00
C58    C     0.81982   0.34655   0.57888   0.00000  Uiso   1.00
C59    C     0.78735   0.26585   0.67269   0.00000  Uiso   1.00
C60    C     0.72311   0.56793   0.49704   0.00000  Uiso   1.00
C61    C     0.71917   0.57048   0.43397   0.00000  Uiso   1.00
C62    C     0.65759   0.60389   0.41152   0.00000  Uiso   1.00
C63    C     0.66521   0.60018   0.35268   0.00000  Uiso   1.00
C64    C     0.78262   0.59877   0.48151   0.00000  Uiso   1.00
C65    C     0.77438   0.65595   0.49905   0.00000  Uiso   1.00
C66    C     0.83541   0.67606   0.48025   0.00000  Uiso   1.00
C67    C     0.75185   0.48932   0.53137   0.00000  Uiso   1.00
C68    C     0.71775   0.45449   0.59085   0.00000  Uiso   1.00
C69    C     0.75288   0.38245   0.61403   0.00000  Uiso   1.00
H70    H     0.89817   0.47404   0.40514   0.00000  Uiso   1.00
H71    H     0.84543   0.50315   0.31293   0.00000  Uiso   1.00
H72    H     0.96221   0.55520   0.40045   0.00000  Uiso   1.00
H73    H     0.90558   0.35377   0.49223   0.00000  Uiso   1.00
H74    H     0.75750   0.55124   0.22616   0.00000  Uiso   1.00
H75    H     0.00373   0.66099   0.41073   0.00000  Uiso   1.00
H76    H     0.88433   0.23623   0.60426   0.00000  Uiso   1.00
H77    H     0.67109   0.59583   0.52435   0.00000  Uiso   1.00
H78    H     0.60589   0.63162   0.43868   0.00000  Uiso   1.00
H79    H     0.72266   0.68367   0.52620   0.00000  Uiso   1.00
H80    H     0.66604   0.48224   0.61798   0.00000  Uiso   1.00
H81    H     0.56308   0.65552   0.32822   0.00000  Uiso   1.00
H82    H     0.80932   0.76526   0.51279   0.00000  Uiso   1.00
H83    H     0.68990   0.34050   0.70632   0.00000  Uiso   1.00
O84    O     0.62150   0.62475   0.21868   0.00000  Uiso   1.00
O85    O     0.94456   0.76872   0.46083   0.00000  Uiso   1.00
O86    O     0.78789   0.21144   0.71473   0.00000  Uiso   1.00
N87    N     0.72069   0.57086   0.26194   0.00000  Uiso   1.00
N88    N     0.95090   0.67347   0.43449   0.00000  Uiso   1.00
N89    N     0.83927   0.27636   0.61543   0.00000  Uiso   1.00
N90    N     0.61607   0.62697   0.31686   0.00000  Uiso   1.00
N91    N     0.84628   0.72958   0.48941   0.00000  Uiso   1.00
N92    N     0.73466   0.33247   0.67035   0.00000  Uiso   1.00
C93    C     0.45124   0.17653   0.48620   0.00000  Uiso   1.00
C94    C     0.49361   0.22845   0.45991   0.00000  Uiso   1.00
C95    C     0.49949   0.27744   0.40067   0.00000  Uiso   1.00
C96    C     0.54075   0.32014   0.38549   0.00000  Uiso   1.00
C97    C     0.60139   0.40166   0.33817   0.00000  Uiso   1.00
C98    C     0.50558   0.10262   0.50460   0.00000  Uiso   1.00
C99    C     0.52150   0.04582   0.48294   0.00000  Uiso   1.00
C100   C     0.57283   0.98259   0.50539   0.00000  Uiso   1.00
C101   C     0.65200   0.86874   0.52749   0.00000  Uiso   1.00
C102   C     0.39759   0.19078   0.54781   0.00000  Uiso   1.00
C103   C     0.32272   0.20809   0.56250   0.00000  Uiso   1.00
C104   C     0.28313   0.21907   0.62134   0.00000  Uiso   1.00
C105   C     0.19463   0.24211   0.71055   0.00000  Uiso   1.00
C106   C     0.51407   0.16523   0.56459   0.00000  Uiso   1.00
C107   C     0.52774   0.22231   0.50248   0.00000  Uiso   1.00
C108   C     0.56900   0.26494   0.48739   0.00000  Uiso   1.00
C109   C     0.57494   0.31399   0.42814   0.00000  Uiso   1.00
C110   C     0.53970   0.09648   0.54717   0.00000  Uiso   1.00
C111   C     0.59102   0.03332   0.56966   0.00000  Uiso   1.00
C112   C     0.60702   0.97644   0.54804   0.00000  Uiso   1.00
C113   C     0.43172   0.18465   0.59039   0.00000  Uiso   1.00
C114   C     0.39223   0.19560   0.64922   0.00000  Uiso   1.00
C115   C     0.31732   0.21292   0.66400   0.00000  Uiso   1.00
H116   H     0.42467   0.18131   0.45306   0.00000  Uiso   1.00
H117   H     0.47308   0.28217   0.36773   0.00000  Uiso   1.00
H118   H     0.49508   0.05058   0.45000   0.00000  Uiso   1.00
H119   H     0.29633   0.21283   0.52954   0.00000  Uiso   1.00
H120   H     0.54181   0.39127   0.29190   0.00000  Uiso   1.00
H121   H     0.58819   0.90295   0.46537   0.00000  Uiso   1.00
H122   H     0.16908   0.24509   0.63312   0.00000  Uiso   1.00
H123   H     0.54064   0.16045   0.59774   0.00000  Uiso   1.00
H124   H     0.59541   0.26018   0.52035   0.00000  Uiso   1.00
H125   H     0.61741   0.02859   0.60261   0.00000  Uiso   1.00
H126   H     0.41866   0.19084   0.68216   0.00000  Uiso   1.00
H127   H     0.64111   0.37342   0.41577   0.00000  Uiso   1.00
H128   H     0.68748   0.88509   0.58924   0.00000  Uiso   1.00
H129   H     0.26837   0.22724   0.75699   0.00000  Uiso   1.00
O130   O     0.62542   0.44831   0.30031   0.00000  Uiso   1.00
O131   O     0.68624   0.80764   0.52791   0.00000  Uiso   1.00
O132   O     0.13639   0.25653   0.74798   0.00000  Uiso   1.00
N133   N     0.55765   0.37340   0.33168   0.00000  Uiso   1.00
N134   N     0.60102   0.91684   0.49386   0.00000  Uiso   1.00
N135   N     0.20919   0.23670   0.65069   0.00000  Uiso   1.00
N136   N     0.61108   0.36379   0.39833   0.00000  Uiso   1.00
N137   N     0.65445   0.90724   0.56051   0.00000  Uiso   1.00
N138   N     0.26262   0.22709   0.71735   0.00000  Uiso   1.00
C139   C     0.68612   0.98098   0.95542   0.00000  Uiso   1.00
C140   C     0.73465   0.02524   0.93718   0.00000  Uiso   1.00
C141   C     0.77393   0.05121   0.87651   0.00000  Uiso   1.00
C142   C     0.81506   0.09059   0.86966   0.00000  Uiso   1.00
C143   C     0.89013   0.15738   0.83343   0.00000  Uiso   1.00
C144   C     0.61129   0.02123   0.99012   0.00000  Uiso   1.00
C145   C     0.54684   0.04383   0.97396   0.00000  Uiso   1.00
C146   C     0.48413   0.07983   0.01168   0.00000  Uiso   1.00
C147   C     0.36766   0.14035   0.05768   0.00000  Uiso   1.00
C148   C     0.71462   0.91274   0.00454   0.00000  Uiso   1.00
C149   C     0.73703   0.84411   0.00052   0.00000  Uiso   1.00
C150   C     0.76129   0.78877   0.05039   0.00000  Uiso   1.00
C151   C     0.80526   0.68085   0.11877   0.00000  Uiso   1.00
C152   C     0.68934   0.00472   0.05114   0.00000  Uiso   1.00
C153   C     0.73640   0.03814   0.98918   0.00000  Uiso   1.00
C154   C     0.77749   0.07748   0.98242   0.00000  Uiso   1.00
C155   C     0.81682   0.10351   0.92174   0.00000  Uiso   1.00
C156   C     0.61304   0.03413   0.04212   0.00000  Uiso   1.00
C157   C     0.55040   0.07010   0.07988   0.00000  Uiso   1.00
C158   C     0.48588   0.09275   0.06377   0.00000  Uiso   1.00
C159   C     0.71637   0.92564   0.05654   0.00000  Uiso   1.00
C160   C     0.74059   0.87039   0.10643   0.00000  Uiso   1.00
C161   C     0.76304   0.80169   0.10248   0.00000  Uiso   1.00
H162   H     0.68475   0.97094   0.91494   0.00000  Uiso   1.00
H163   H     0.77255   0.04122   0.83628   0.00000  Uiso   1.00
H164   H     0.54550   0.03383   0.93373   0.00000  Uiso   1.00
H165   H     0.73567   0.83415   0.96028   0.00000  Uiso   1.00
H166   H     0.87065   0.12486   0.77200   0.00000  Uiso   1.00
H167   H     0.39189   0.10925   0.97748   0.00000  Uiso   1.00
H168   H     0.79289   0.68819   0.03347   0.00000  Uiso   1.00
H169   H     0.69070   0.01477   0.09163   0.00000  Uiso   1.00
H170   H     0.77883   0.08746   0.02267   0.00000  Uiso   1.00
H171   H     0.55178   0.08007   0.12011   0.00000  Uiso   1.00
H172   H     0.74194   0.88039   0.14666   0.00000  Uiso   1.00
H173   H     0.87574   0.16239   0.92328   0.00000  Uiso   1.00
H174   H     0.39698   0.14678   0.12876   0.00000  Uiso   1.00
H175   H     0.79798   0.72572   0.18475   0.00000  Uiso   1.00
O176   O     0.93104   0.19067   0.79908   0.00000  Uiso   1.00
O177   O     0.30293   0.17019   0.06868   0.00000  Uiso   1.00
O178   O     0.82904   0.61777   0.14212   0.00000  Uiso   1.00
N179   N     0.85976   0.12370   0.81707   0.00000  Uiso   1.00
N180   N     0.41216   0.10912   0.00918   0.00000  Uiso   1.00
N181   N     0.78704   0.71547   0.06153   0.00000  Uiso   1.00
N182   N     0.86250   0.14389   0.89847   0.00000  Uiso   1.00
N183   N     0.41490   0.12932   0.09058   0.00000  Uiso   1.00
N184   N     0.78978   0.73566   0.14293   0.00000  Uiso   1.00
C185   C     0.33501   0.70515   0.95802   0.00000  Uiso   1.00
C186   C     0.27171   0.75295   0.92827   0.00000  Uiso   1.00
C187   C     0.27683   0.79902   0.86767   0.00000  Uiso   1.00
C188   C     0.21261   0.83815   0.84929   0.00000  Uiso   1.00
C189   C     0.12450   0.91337   0.79688   0.00000  Uiso   1.00
C190   C     0.33290   0.62965   0.97881   0.00000  Uiso   1.00
C191   C     0.38947   0.57205   0.96071   0.00000  Uiso   1.00
C192   C     0.37676   0.50738   0.98488   0.00000  Uiso   1.00
C193   C     0.38367   0.39115   0.01098   0.00000  Uiso   1.00
C194   C     0.31601   0.72433   0.01846   0.00000  Uiso   1.00
C195   C     0.35839   0.74633   0.03371   0.00000  Uiso   1.00
C196   C     0.33146   0.76136   0.09128   0.00000  Uiso   1.00
C197   C     0.31215   0.79214   0.17893   0.00000  Uiso   1.00
C198   C     0.21183   0.69272   0.03315   0.00000  Uiso   1.00
C199   C     0.20481   0.74619   0.96908   0.00000  Uiso   1.00
C200   C     0.14055   0.78526   0.95079   0.00000  Uiso   1.00
C201   C     0.14558   0.83139   0.89017   0.00000  Uiso   1.00
C202   C     0.26600   0.62289   0.01962   0.00000  Uiso   1.00
C203   C     0.25319   0.55829   0.04383   0.00000  Uiso   1.00
C204   C     0.30973   0.50061   0.02577   0.00000  Uiso   1.00
C205   C     0.24910   0.71758   0.05927   0.00000  Uiso   1.00
C206   C     0.22211   0.73257   0.11683   0.00000  Uiso   1.00
C207   C     0.26444   0.75459   0.13216   0.00000  Uiso   1.00
H208   H     0.38710   0.71041   0.92625   0.00000  Uiso   1.00
H209   H     0.32862   0.80423   0.83610   0.00000  Uiso   1.00
H210   H     0.44124   0.57729   0.92913   0.00000  Uiso   1.00
H211   H     0.41016   0.75155   0.00211   0.00000  Uiso   1.00
H212   H     0.23429   0.90525   0.75414   0.00000  Uiso   1.00
H213   H     0.47177   0.42673   0.95032   0.00000  Uiso   1.00
H214   H     0.40623   0.79418   0.10422   0.00000  Uiso   1.00
H215   H     0.15974   0.68746   0.06493   0.00000  Uiso   1.00
H216   H     0.08879   0.78003   0.98239   0.00000  Uiso   1.00
H217   H     0.20141   0.55308   0.07542   0.00000  Uiso   1.00
H218   H     0.17033   0.72734   0.14840   0.00000  Uiso   1.00
H219   H     0.03963   0.88560   0.87287   0.00000  Uiso   1.00
H220   H     0.27712   0.40708   0.06905   0.00000  Uiso   1.00
H221   H     0.21157   0.77453   0.22296   0.00000  Uiso   1.00
O222   O     0.09439   0.95672   0.75669   0.00000  Uiso   1.00
O223   O     0.40596   0.32891   0.01409   0.00000  Uiso   1.00
O224   O     0.31997   0.81100   0.21600   0.00000  Uiso   1.00
N225   N     0.19821   0.88794   0.79341   0.00000  Uiso   1.00
N226   N     0.42024   0.44055   0.97682   0.00000  Uiso   1.00
N227   N     0.35897   0.78406   0.12072   0.00000  Uiso   1.00
N228   N     0.09347   0.87736   0.85730   0.00000  Uiso   1.00
N229   N     0.31550   0.42997   0.04071   0.00000  Uiso   1.00
N230   N     0.25423   0.77349   0.18461   0.00000  Uiso   1.00
C231   C     0.92319   0.34304   0.99826   0.00000  Uiso   1.00
C232   C     0.95669   0.27011   0.98652   0.00000  Uiso   1.00
C233   C     0.97192   0.25734   0.92967   0.00000  Uiso   1.00
C234   C     0.00257   0.18684   0.92859   0.00000  Uiso   1.00
C235   C     0.05236   0.08208   0.90217   0.00000  Uiso   1.00
C236   C     0.97631   0.34841   0.02327   0.00000  Uiso   1.00
C237   C     0.00804   0.40148   0.99732   0.00000  Uiso   1.00
C238   C     0.05519   0.39690   0.02719   0.00000  Uiso   1.00
C239   C     0.13541   0.41373   0.05784   0.00000  Uiso   1.00
C240   C     0.85529   0.34036   0.05295   0.00000  Uiso   1.00
C241   C     0.78526   0.38667   0.05197   0.00000  Uiso   1.00
C242   C     0.73053   0.37532   0.10683   0.00000  Uiso   1.00
C243   C     0.62285   0.37965   0.18357   0.00000  Uiso   1.00
C244   C     0.95051   0.24056   0.09745   0.00000  Uiso   1.00
C245   C     0.97153   0.21445   0.04040   0.00000  Uiso   1.00
C246   C     0.00215   0.14395   0.03941   0.00000  Uiso   1.00
C247   C     0.01743   0.13108   0.98257   0.00000  Uiso   1.00
C248   C     0.99115   0.29275   0.07714   0.00000  Uiso   1.00
C249   C     0.03827   0.28810   0.10706   0.00000  Uiso   1.00
C250   C     0.07006   0.34114   0.08116   0.00000  Uiso   1.00
C251   C     0.87013   0.28470   0.10683   0.00000  Uiso   1.00
C252   C     0.81550   0.27328   0.16171   0.00000  Uiso   1.00
C253   C     0.74540   0.31956   0.16081   0.00000  Uiso   1.00
H254   H     0.91164   0.38637   0.95632   0.00000  Uiso   1.00
H255   H     0.96044   0.30043   0.88798   0.00000  Uiso   1.00
H256   H     0.99654   0.44455   0.95563   0.00000  Uiso   1.00
H257   H     0.77380   0.42974   0.01027   0.00000  Uiso   1.00
H258   H     0.02111   0.18060   0.83598   0.00000  Uiso   1.00
H259   H     0.09721   0.48450   0.97863   0.00000  Uiso   1.00
H260   H     0.62753   0.45327   0.09385   0.00000  Uiso   1.00
H261   H     0.96207   0.19722   0.13939   0.00000  Uiso   1.00
H262   H     0.01363   0.10089   0.08111   0.00000  Uiso   1.00
H263   H     0.04974   0.24502   0.14875   0.00000  Uiso   1.00
H264   H     0.82700   0.23020   0.20339   0.00000  Uiso   1.00
H265   H     0.06429   0.01865   0.99273   0.00000  Uiso   1.00
H266   H     0.14039   0.32255   0.13537   0.00000  Uiso   1.00
H267   H     0.67071   0.29131   0.25059   0.00000  Uiso   1.00
O268   O     0.07574   0.03967   0.87270   0.00000  Uiso   1.00
O269   O     0.17556   0.43839   0.05985   0.00000  Uiso   1.00
O270   O     0.55935   0.39740   0.21102   0.00000  Uiso   1.00
N271   N     0.02418   0.15570   0.88087   0.00000  Uiso   1.00
N272   N     0.09534   0.43983   0.01423   0.00000  Uiso   1.00
N273   N     0.65623   0.41064   0.12196   0.00000  Uiso   1.00
N274   N     0.04742   0.06856   0.96522   0.00000  Uiso   1.00
N275   N     0.11858   0.35268   0.09858   0.00000  Uiso   1.00
N276   N     0.67946   0.32349   0.20630   0.00000  Uiso   1.00
C277   C     0.76166   0.17587   0.53575   0.00000  Uiso   1.00
C278   C     0.71885   0.25361   0.53392   0.00000  Uiso   1.00
C279   C     0.66290   0.27788   0.58270   0.00000  Uiso   1.00
C280   C     0.63061   0.35104   0.57173   0.00000  Uiso   1.00
C281   C     0.56068   0.46459   0.57767   0.00000  Uiso   1.00
C282   C     0.84140   0.16829   0.52043   0.00000  Uiso   1.00
C283   C     0.88849   0.12081   0.55788   0.00000  Uiso   1.00
C284   C     0.95937   0.12213   0.53555   0.00000  Uiso   1.00
C285   C     0.07971   0.10318   0.52055   0.00000  Uiso   1.00
C286   C     0.75362   0.16516   0.48009   0.00000  Uiso   1.00
C287   C     0.72692   0.11504   0.48362   0.00000  Uiso   1.00
C288   C     0.72391   0.11373   0.42732   0.00000  Uiso   1.00
C289   C     0.70796   0.08992   0.34968   0.00000  Uiso   1.00
C290   C     0.80381   0.26263   0.42951   0.00000  Uiso   1.00
C291   C     0.74175   0.30074   0.47621   0.00000  Uiso   1.00
C292   C     0.70953   0.37388   0.46516   0.00000  Uiso   1.00
C293   C     0.65354   0.39825   0.51392   0.00000  Uiso   1.00
C294   C     0.86429   0.21541   0.46273   0.00000  Uiso   1.00
C295   C     0.93512   0.21681   0.44034   0.00000  Uiso   1.00
C296   C     0.98230   0.16934   0.47775   0.00000  Uiso   1.00
C297   C     0.77651   0.21229   0.42239   0.00000  Uiso   1.00
C298   C     0.77355   0.21105   0.36608   0.00000  Uiso   1.00
C299   C     0.74684   0.16094   0.36952   0.00000  Uiso   1.00
H300   H     0.74385   0.13918   0.58067   0.00000  Uiso   1.00
H301   H     0.64521   0.24140   0.62735   0.00000  Uiso   1.00
H302   H     0.87077   0.08434   0.60253   0.00000  Uiso   1.00
H303   H     0.70922   0.07858   0.52828   0.00000  Uiso   1.00
H304   H     0.54596   0.37551   0.65366   0.00000  Uiso   1.00
H305   H     0.02156   0.04433   0.60132   0.00000  Uiso   1.00
H306   H     0.68091   0.03219   0.44474   0.00000  Uiso   1.00
H307   H     0.82163   0.29933   0.38459   0.00000  Uiso   1.00
H308   H     0.72725   0.41034   0.42050   0.00000  Uiso   1.00
H309   H     0.95281   0.25328   0.39569   0.00000  Uiso   1.00
H310   H     0.79126   0.24752   0.32144   0.00000  Uiso   1.00
H311   H     0.61255   0.51263   0.48578   0.00000  Uiso   1.00
H312   H     0.08816   0.18145   0.43343   0.00000  Uiso   1.00
H313   H     0.74750   0.16931   0.27686   0.00000  Uiso   1.00
O314   O     0.51579   0.51421   0.59689   0.00000  Uiso   1.00
O315   O     0.13976   0.07970   0.52821   0.00000  Uiso   1.00
O316   O     0.69283   0.06378   0.32280   0.00000  Uiso   1.00
N317   N     0.57458   0.39254   0.60921   0.00000  Uiso   1.00
N318   N     0.01923   0.08292   0.56028   0.00000  Uiso   1.00
N319   N     0.70077   0.07156   0.41390   0.00000  Uiso   1.00
N320   N     0.61041   0.46633   0.51888   0.00000  Uiso   1.00
N321   N     0.05507   0.15670   0.46995   0.00000  Uiso   1.00
N322   N     0.73660   0.14534   0.32356   0.00000  Uiso   1.00
C323   C     0.14092   0.48047   0.56466   0.00000  Uiso   1.00
C324   C     0.21518   0.44700   0.57843   0.00000  Uiso   1.00
C325   C     0.23016   0.44740   0.62969   0.00000  Uiso   1.00
C326   C     0.30158   0.41385   0.63385   0.00000  Uiso   1.00
C327   C     0.40860   0.36682   0.66216   0.00000  Uiso   1.00
C328   C     0.12528   0.42090   0.55950   0.00000  Uiso   1.00
C329   C     0.06467   0.39937   0.59483   0.00000  Uiso   1.00
C330   C     0.06041   0.34387   0.58304   0.00000  Uiso   1.00
C331   C     0.02784   0.25636   0.58193   0.00000  Uiso   1.00
C332   C     0.15095   0.53220   0.49866   0.00000  Uiso   1.00
C333   C     0.11190   0.60425   0.48283   0.00000  Uiso   1.00
C334   C     0.12923   0.64244   0.41982   0.00000  Uiso   1.00
C335   C     0.13651   0.72773   0.32425   0.00000  Uiso   1.00
C336   C     0.24111   0.42018   0.48089   0.00000  Uiso   1.00
C337   C     0.26960   0.41424   0.53293   0.00000  Uiso   1.00
C338   C     0.34102   0.38069   0.53701   0.00000  Uiso   1.00
C339   C     0.35610   0.38104   0.58827   0.00000  Uiso   1.00
C340   C     0.17970   0.38815   0.51400   0.00000  Uiso   1.00
C341   C     0.17553   0.33267   0.50215   0.00000  Uiso   1.00
C342   C     0.11493   0.31106   0.53746   0.00000  Uiso   1.00
C343   C     0.20537   0.49945   0.45316   0.00000  Uiso   1.00
C344   C     0.22276   0.53753   0.39016   0.00000  Uiso   1.00
C345   C     0.18375   0.60963   0.37424   0.00000  Uiso   1.00
H346   H     0.09854   0.50597   0.60009   0.00000  Uiso   1.00
H347   H     0.18803   0.47274   0.66489   0.00000  Uiso   1.00
H348   H     0.02256   0.42473   0.63003   0.00000  Uiso   1.00
H349   H     0.06979   0.62957   0.51806   0.00000  Uiso   1.00
H350   H     0.31123   0.42144   0.71669   0.00000  Uiso   1.00
H351   H     0.96233   0.32022   0.64318   0.00000  Uiso   1.00
H352   H     0.06191   0.75217   0.40705   0.00000  Uiso   1.00
H353   H     0.28348   0.39468   0.44547   0.00000  Uiso   1.00
H354   H     0.38312   0.35535   0.50179   0.00000  Uiso   1.00
H355   H     0.21765   0.30734   0.46694   0.00000  Uiso   1.00
H356   H     0.26488   0.51217   0.35496   0.00000  Uiso   1.00
H357   H     0.46957   0.32616   0.58432   0.00000  Uiso   1.00
H358   H     0.12067   0.22494   0.51080   0.00000  Uiso   1.00
H359   H     0.22025   0.65688   0.27467   0.00000  Uiso   1.00
O360   O     0.45260   0.34991   0.69036   0.00000  Uiso   1.00
O361   O     0.99485   0.21713   0.59390   0.00000  Uiso   1.00
O362   O     0.12550   0.78383   0.28410   0.00000  Uiso   1.00
N363   N     0.33483   0.40443   0.67780   0.00000  Uiso   1.00
N364   N     0.00863   0.30979   0.60907   0.00000  Uiso   1.00
N365   N     0.10172   0.71361   0.38831   0.00000  Uiso   1.00
N366   N     0.42003   0.35316   0.60657   0.00000  Uiso   1.00
N367   N     0.09383   0.25852   0.53784   0.00000  Uiso   1.00
N368   N     0.18692   0.66234   0.31708   0.00000  Uiso   1.00
C369   C     0.48544   0.81346   0.50948   0.00000  Uiso   1.00
C370   C     0.44489   0.75987   0.53658   0.00000  Uiso   1.00
C371   C     0.43955   0.71170   0.59625   0.00000  Uiso   1.00
C372   C     0.40001   0.66717   0.61215   0.00000  Uiso   1.00
C373   C     0.34203   0.58343   0.66067   0.00000  Uiso   1.00
C374   C     0.42987   0.88625   0.49022   0.00000  Uiso   1.00
C375   C     0.41192   0.94435   0.51091   0.00000  Uiso   1.00
C376   C     0.35974   0.00621   0.48777   0.00000  Uiso   1.00
C377   C     0.27849   0.11869   0.46428   0.00000  Uiso   1.00
C378   C     0.53994   0.79878   0.44829   0.00000  Uiso   1.00
C379   C     0.61452   0.78335   0.43371   0.00000  Uiso   1.00
C380   C     0.65501   0.77158   0.37527   0.00000  Uiso   1.00
C381   C     0.74465   0.74825   0.28668   0.00000  Uiso   1.00
C382   C     0.42471   0.82002   0.43162   0.00000  Uiso   1.00
C383   C     0.41190   0.76343   0.49429   0.00000  Uiso   1.00
C384   C     0.37236   0.71895   0.51011   0.00000  Uiso   1.00
C385   C     0.36697   0.67073   0.56979   0.00000  Uiso   1.00
C386   C     0.39689   0.88981   0.44793   0.00000  Uiso   1.00
C387   C     0.34473   0.95160   0.42476   0.00000  Uiso   1.00
C388   C     0.32670   0.00977   0.44541   0.00000  Uiso   1.00
C389   C     0.50695   0.80233   0.40600   0.00000  Uiso   1.00
C390   C     0.54733   0.79059   0.34757   0.00000  Uiso   1.00
C391   C     0.62196   0.77515   0.33290   0.00000  Uiso   1.00
H392   H     0.51112   0.81070   0.54241   0.00000  Uiso   1.00
H393   H     0.46508   0.70897   0.62897   0.00000  Uiso   1.00
H394   H     0.43746   0.94158   0.54363   0.00000  Uiso   1.00
H395   H     0.64003   0.78060   0.46645   0.00000  Uiso   1.00
H396   H     0.39947   0.59777   0.70629   0.00000  Uiso   1.00
H397   H     0.34125   0.08825   0.52633   0.00000  Uiso   1.00
H398   H     0.76840   0.74879   0.36359   0.00000  Uiso   1.00
H399   H     0.39903   0.82279   0.39870   0.00000  Uiso   1.00
H400   H     0.34684   0.72172   0.47737   0.00000  Uiso   1.00
H401   H     0.31922   0.95433   0.39203   0.00000  Uiso   1.00
H402   H     0.52179   0.79335   0.31485   0.00000  Uiso   1.00
H403   H     0.30350   0.60813   0.58325   0.00000  Uiso   1.00
H404   H     0.24528   0.09860   0.40329   0.00000  Uiso   1.00
H405   H     0.67244   0.75915   0.24055   0.00000  Uiso   1.00
O406   O     0.31915   0.53626   0.69912   0.00000  Uiso   1.00
O407   O     0.24278   0.17975   0.46302   0.00000  Uiso   1.00
O408   O     0.80320   0.73439   0.24950   0.00000  Uiso   1.00
N409   N     0.38406   0.61407   0.66653   0.00000  Uiso   1.00
N410   N     0.32962   0.07263   0.49829   0.00000  Uiso   1.00
N411   N     0.72897   0.75529   0.34613   0.00000  Uiso   1.00
N412   N     0.33242   0.61964   0.60032   0.00000  Uiso   1.00
N413   N     0.27798   0.07820   0.43208   0.00000  Uiso   1.00
N414   N     0.67733   0.76086   0.27992   0.00000  Uiso   1.00
C415   C     0.24617   0.00932   0.04316   0.00000  Uiso   1.00
C416   C     0.19683   0.96642   0.05978   0.00000  Uiso   1.00
C417   C     0.15572   0.94120   0.11977   0.00000  Uiso   1.00
C418   C     0.11412   0.90303   0.12514   0.00000  Uiso   1.00
C419   C     0.03760   0.83828   0.15899   0.00000  Uiso   1.00
C420   C     0.32130   0.96797   0.00980   0.00000  Uiso   1.00
C421   C     0.38483   0.94408   0.02777   0.00000  Uiso   1.00
C422   C     0.44801   0.90723   0.99106   0.00000  Uiso   1.00
C423   C     0.56473   0.84494   0.94729   0.00000  Uiso   1.00
C424   C     0.21987   0.07785   0.99332   0.00000  Uiso   1.00
C425   C     0.19814   0.14634   0.99741   0.00000  Uiso   1.00
C426   C     0.17594   0.20199   0.94682   0.00000  Uiso   1.00
C427   C     0.13517   0.31029   0.87746   0.00000  Uiso   1.00
C428   C     0.24539   0.98638   0.94603   0.00000  Uiso   1.00
C429   C     0.19641   0.95395   0.00702   0.00000  Uiso   1.00
C430   C     0.15486   0.91581   0.01231   0.00000  Uiso   1.00
C431   C     0.11369   0.89055   0.07229   0.00000  Uiso   1.00
C432   C     0.32087   0.95551   0.95705   0.00000  Uiso   1.00
C433   C     0.38397   0.91869   0.92031   0.00000  Uiso   1.00
C434   C     0.44759   0.89474   0.93821   0.00000  Uiso   1.00
C435   C     0.21944   0.06539   0.94056   0.00000  Uiso   1.00
C436   C     0.19727   0.12095   0.88995   0.00000  Uiso   1.00
C437   C     0.17551   0.18951   0.89397   0.00000  Uiso   1.00
H438   H     0.24651   0.01903   0.08423   0.00000  Uiso   1.00
H439   H     0.15607   0.95085   0.16059   0.00000  Uiso   1.00
H440   H     0.38515   0.95374   0.06859   0.00000  Uiso   1.00
H441   H     0.19848   0.15596   0.03825   0.00000  Uiso   1.00
H442   H     0.05563   0.86975   0.22198   0.00000  Uiso   1.00
H443   H     0.53866   0.87586   0.02800   0.00000  Uiso   1.00
H444   H     0.14503   0.30229   0.96400   0.00000  Uiso   1.00
H445   H     0.24507   0.97667   0.90495   0.00000  Uiso   1.00
H446   H     0.15454   0.90618   0.97147   0.00000  Uiso   1.00
H447   H     0.38362   0.90906   0.87948   0.00000  Uiso   1.00
H448   H     0.19695   0.11128   0.84914   0.00000  Uiso   1.00
H449   H     0.05440   0.83349   0.06849   0.00000  Uiso   1.00
H450   H     0.53743   0.83959   0.87451   0.00000  Uiso   1.00
H451   H     0.14380   0.26602   0.81051   0.00000  Uiso   1.00
O452   O     0.99551   0.80599   0.19223   0.00000  Uiso   1.00
O453   O     0.62922   0.81401   0.93773   0.00000  Uiso   1.00
O454   O     0.11279   0.37347   0.85377   0.00000  Uiso   1.00
N455   N     0.06775   0.87091   0.17672   0.00000  Uiso   1.00
N456   N     0.51935   0.87660   0.99537   0.00000  Uiso   1.00
N457   N     0.15137   0.27528   0.93553   0.00000  Uiso   1.00
N458   N     0.06709   0.85139   0.09413   0.00000  Uiso   1.00
N459   N     0.51869   0.85709   0.91278   0.00000  Uiso   1.00
N460   N     0.15070   0.25576   0.85294   0.00000  Uiso   1.00
C461   C     0.60085   0.28652   0.03930   0.00000  Uiso   1.00
C462   C     0.66672   0.23962   0.06584   0.00000  Uiso   1.00
C463   C     0.66512   0.19335   0.12618   0.00000  Uiso   1.00
C464   C     0.73126   0.15516   0.14140   0.00000  Uiso   1.00
C465   C     0.82360   0.08117   0.18925   0.00000  Uiso   1.00
C466   C     0.60206   0.36249   0.01740   0.00000  Uiso   1.00
C467   C     0.54609   0.41952   0.03699   0.00000  Uiso   1.00
C468   C     0.55779   0.48477   0.01142   0.00000  Uiso   1.00
C469   C     0.54972   0.60154   0.98403   0.00000  Uiso   1.00
C470   C     0.61620   0.26737   0.97967   0.00000  Uiso   1.00
C471   C     0.57211   0.24444   0.96754   0.00000  Uiso   1.00
C472   C     0.59571   0.22961   0.91020   0.00000  Uiso   1.00
C473   C     0.60960   0.19870   0.82423   0.00000  Uiso   1.00
C474   C     0.72113   0.30099   0.95905   0.00000  Uiso   1.00
C475   C     0.73205   0.24749   0.02225   0.00000  Uiso   1.00
C476   C     0.79821   0.20936   0.03738   0.00000  Uiso   1.00
C477   C     0.79671   0.16303   0.09773   0.00000  Uiso   1.00
C478   C     0.66739   0.37036   0.97381   0.00000  Uiso   1.00
C479   C     0.67917   0.43553   0.94820   0.00000  Uiso   1.00
C480   C     0.62324   0.49264   0.96775   0.00000  Uiso   1.00
C481   C     0.68153   0.27523   0.93608   0.00000  Uiso   1.00
C482   C     0.70520   0.26044   0.87875   0.00000  Uiso   1.00
C483   C     0.66116   0.23749   0.86653   0.00000  Uiso   1.00
H484   H     0.54998   0.28041   0.07324   0.00000  Uiso   1.00
H485   H     0.61455   0.18728   0.15990   0.00000  Uiso   1.00
H486   H     0.49553   0.41342   0.07072   0.00000  Uiso   1.00
H487   H     0.52156   0.23836   0.00128   0.00000  Uiso   1.00
H488   H     0.71495   0.08753   0.23676   0.00000  Uiso   1.00
H489   H     0.46399   0.56436   0.04871   0.00000  Uiso   1.00
H490   H     0.51886   0.19521   0.90228   0.00000  Uiso   1.00
H491   H     0.77200   0.30712   0.92511   0.00000  Uiso   1.00
H492   H     0.84876   0.21545   0.00364   0.00000  Uiso   1.00
H493   H     0.72974   0.44160   0.91447   0.00000  Uiso   1.00
H494   H     0.75576   0.26653   0.84503   0.00000  Uiso   1.00
H495   H     0.90504   0.11039   0.10994   0.00000  Uiso   1.00
H496   H     0.65407   0.58723   0.92188   0.00000  Uiso   1.00
H497   H     0.70895   0.21807   0.77546   0.00000  Uiso   1.00
O498   O     0.85648   0.03820   0.22769   0.00000  Uiso   1.00
O499   O     0.52722   0.66378   0.98097   0.00000  Uiso   1.00
O500   O     0.59921   0.17946   0.78886   0.00000  Uiso   1.00
N501   N     0.74915   0.10548   0.19613   0.00000  Uiso   1.00
N502   N     0.51452   0.55128   0.02032   0.00000  Uiso   1.00
N503   N     0.56581   0.20618   0.88342   0.00000  Uiso   1.00
N504   N     0.85144   0.11778   0.12789   0.00000  Uiso   1.00
N505   N     0.61681   0.56359   0.95208   0.00000  Uiso   1.00
N506   N     0.66810   0.21848   0.81517   0.00000  Uiso   1.00
C507   C     0.01188   0.64991   0.99405   0.00000  Uiso   1.00
C508   C     0.97963   0.72401   0.00325   0.00000  Uiso   1.00
C509   C     0.96337   0.73911   0.05922   0.00000  Uiso   1.00
C510   C     0.93417   0.81033   0.05792   0.00000  Uiso   1.00
C511   C     0.88595   0.91715   0.08063   0.00000  Uiso   1.00
C512   C     0.95914   0.64444   0.96867   0.00000  Uiso   1.00
C513   C     0.92567   0.59263   0.99556   0.00000  Uiso   1.00
C514   C     0.87923   0.59687   0.96515   0.00000  Uiso   1.00
C515   C     0.79925   0.58012   0.93414   0.00000  Uiso   1.00
C516   C     0.08113   0.64957   0.94046   0.00000  Uiso   1.00
C517   C     0.15024   0.60207   0.94362   0.00000  Uiso   1.00
C518   C     0.20651   0.61063   0.88944   0.00000  Uiso   1.00
C519   C     0.31594   0.60186   0.81463   0.00000  Uiso   1.00
C520   C     0.98893   0.74955   0.89223   0.00000  Uiso   1.00
C521   C     0.96716   0.77813   0.94794   0.00000  Uiso   1.00
C522   C     0.93798   0.84935   0.94656   0.00000  Uiso   1.00
C523   C     0.92168   0.86456   0.00252   0.00000  Uiso   1.00
C524   C     0.94667   0.69856   0.91337   0.00000  Uiso   1.00
C525   C     0.90027   0.70287   0.88290   0.00000  Uiso   1.00
C526   C     0.86674   0.65109   0.90974   0.00000  Uiso   1.00
C527   C     0.06867   0.70370   0.88515   0.00000  Uiso   1.00
C528   C     0.12484   0.71232   0.83096   0.00000  Uiso   1.00
C529   C     0.19402   0.66485   0.83404   0.00000  Uiso   1.00
H530   H     0.02158   0.60777   0.03711   0.00000  Uiso   1.00
H531   H     0.97302   0.69721   0.10201   0.00000  Uiso   1.00
H532   H     0.93533   0.55075   0.03836   0.00000  Uiso   1.00
H533   H     0.15986   0.56020   0.98642   0.00000  Uiso   1.00
H534   H     0.91366   0.82023   0.14958   0.00000  Uiso   1.00
H535   H     0.83421   0.51140   0.01536   0.00000  Uiso   1.00
H536   H     0.30768   0.53132   0.90584   0.00000  Uiso   1.00
H537   H     0.97922   0.79169   0.84917   0.00000  Uiso   1.00
H538   H     0.92833   0.89122   0.90375   0.00000  Uiso   1.00
H539   H     0.89064   0.74476   0.84010   0.00000  Uiso   1.00
H540   H     0.11517   0.75421   0.78817   0.00000  Uiso   1.00
H541   H     0.87738   0.97770   0.98867   0.00000  Uiso   1.00
H542   H     0.79794   0.66886   0.85444   0.00000  Uiso   1.00
H543   H     0.27140   0.68879   0.74493   0.00000  Uiso   1.00
O544   O     0.86279   0.96112   0.10843   0.00000  Uiso   1.00
O545   O     0.75857   0.55593   0.93233   0.00000  Uiso   1.00
O546   O     0.37974   0.58207   0.78864   0.00000  Uiso   1.00
N547   N     0.91212   0.84363   0.10422   0.00000  Uiso   1.00
N548   N     0.83783   0.55490   0.97873   0.00000  Uiso   1.00
N549   N     0.28048   0.57351   0.87633   0.00000  Uiso   1.00
N550   N     0.89260   0.92836   0.01763   0.00000  Uiso   1.00
N551   N     0.81831   0.63963   0.89214   0.00000  Uiso   1.00
N552   N     0.26096   0.65824   0.78975   0.00000  Uiso   1.00
