data_job_04912
_audit_creation_date              2018-12-19
_audit_creation_method            'Materials Studio'
_symmetry_space_group_name_H-M    'P1'
_symmetry_Int_Tables_number       1
_symmetry_cell_setting            triclinic
loop_
_symmetry_equiv_pos_as_xyz
  x,y,z
_cell_length_a                    19.6042
_cell_length_b                    19.6042
_cell_length_c                    12.4595
_cell_angle_alpha                 90.0000
_cell_angle_beta                  90.0000
_cell_angle_gamma                 90.0000
loop_
_atom_site_label
_atom_site_type_symbol
_atom_site_fract_x
_atom_site_fract_y
_atom_site_fract_z
_atom_site_U_iso_or_equiv
_atom_site_adp_type
_atom_site_occupancy
C1     C     0.90528   0.84258   0.53380   0.00000  Uiso   1.00
C2     C     0.89201   0.76784   0.56050   0.00000  Uiso   1.00
C3     C     0.93987   0.71574   0.55652   0.00000  Uiso   1.00
C4     C     0.91763   0.65080   0.58394   0.00000  Uiso   1.00
C5     C     0.90731   0.53661   0.62074   0.00000  Uiso   1.00
C6     C     0.85431   0.86134   0.44619   0.00000  Uiso   1.00
C7     C     0.87047   0.88788   0.34610   0.00000  Uiso   1.00
C8     C     0.81649   0.90166   0.27729   0.00000  Uiso   1.00
C9     C     0.74764   0.93269   0.13665   0.00000  Uiso   1.00
C10    C     0.88413   0.88301   0.63292   0.00000  Uiso   1.00
C11    C     0.92536   0.92777   0.68982   0.00000  Uiso   1.00
C12    C     0.89648   0.95980   0.77821   0.00000  Uiso   1.00
C13    C     0.87394   0.02447   0.92750   0.00000  Uiso   1.00
C14    C     0.78068   0.81989   0.58958   0.00000  Uiso   1.00
C15    C     0.82433   0.75551   0.59079   0.00000  Uiso   1.00
C16    C     0.80201   0.69064   0.61823   0.00000  Uiso   1.00
C17    C     0.84983   0.63845   0.61429   0.00000  Uiso   1.00
C18    C     0.78663   0.84902   0.47648   0.00000  Uiso   1.00
C19    C     0.73261   0.86277   0.40781   0.00000  Uiso   1.00
C20    C     0.74869   0.88931   0.30764   0.00000  Uiso   1.00
C21    C     0.81645   0.87068   0.66322   0.00000  Uiso   1.00
C22    C     0.78750   0.90266   0.75153   0.00000  Uiso   1.00
C23    C     0.82868   0.94746   0.80856   0.00000  Uiso   1.00
H24    H     0.95797   0.85218   0.51020   0.00000  Uiso   1.00
H25    H     0.99224   0.72529   0.53306   0.00000  Uiso   1.00
H26    H     0.92285   0.89741   0.32268   0.00000  Uiso   1.00
H27    H     0.97773   0.93729   0.66635   0.00000  Uiso   1.00
H28    H     0.00038   0.57918   0.57172   0.00000  Uiso   1.00
H29    H     0.85407   0.94213   0.12813   0.00000  Uiso   1.00
H30    H     0.96980   0.02623   0.85283   0.00000  Uiso   1.00
H31    H     0.72798   0.81030   0.61316   0.00000  Uiso   1.00
H32    H     0.74963   0.68111   0.64167   0.00000  Uiso   1.00
H33    H     0.68025   0.85323   0.43128   0.00000  Uiso   1.00
H34    H     0.73513   0.89311   0.77495   0.00000  Uiso   1.00
H35    H     0.80347   0.54333   0.65987   0.00000  Uiso   1.00
H36    H     0.65716   0.90627   0.21628   0.00000  Uiso   1.00
H37    H     0.77289   0.99037   0.94098   0.00000  Uiso   1.00
O38    O     0.92031   0.47703   0.63266   0.00000  Uiso   1.00
O39    O     0.72836   0.95321   0.05070   0.00000  Uiso   1.00
O40    O     0.88020   0.06354   0.00148   0.00000  Uiso   1.00
N41    N     0.95107   0.58848   0.58858   0.00000  Uiso   1.00
N42    N     0.81428   0.92780   0.17384   0.00000  Uiso   1.00
N43    N     0.92247   0.00644   0.85135   0.00000  Uiso   1.00
N44    N     0.84512   0.56918   0.63601   0.00000  Uiso   1.00
N45    N     0.70833   0.90850   0.22127   0.00000  Uiso   1.00
N46    N     0.81652   0.98714   0.89878   0.00000  Uiso   1.00
C47    C     0.09472   0.15742   0.53380   0.00000  Uiso   1.00
C48    C     0.10799   0.23216   0.56050   0.00000  Uiso   1.00
C49    C     0.06013   0.28426   0.55652   0.00000  Uiso   1.00
C50    C     0.08237   0.34920   0.58394   0.00000  Uiso   1.00
C51    C     0.09269   0.46339   0.62074   0.00000  Uiso   1.00
C52    C     0.14569   0.13866   0.44619   0.00000  Uiso   1.00
C53    C     0.12953   0.11212   0.34610   0.00000  Uiso   1.00
C54    C     0.18351   0.09834   0.27729   0.00000  Uiso   1.00
C55    C     0.25236   0.06731   0.13665   0.00000  Uiso   1.00
C56    C     0.11587   0.11699   0.63292   0.00000  Uiso   1.00
C57    C     0.07464   0.07223   0.68982   0.00000  Uiso   1.00
C58    C     0.10352   0.04020   0.77821   0.00000  Uiso   1.00
C59    C     0.12606   0.97553   0.92750   0.00000  Uiso   1.00
C60    C     0.21932   0.18011   0.58958   0.00000  Uiso   1.00
C61    C     0.17567   0.24449   0.59079   0.00000  Uiso   1.00
C62    C     0.19799   0.30936   0.61823   0.00000  Uiso   1.00
C63    C     0.15017   0.36155   0.61429   0.00000  Uiso   1.00
C64    C     0.21337   0.15098   0.47648   0.00000  Uiso   1.00
C65    C     0.26739   0.13723   0.40781   0.00000  Uiso   1.00
C66    C     0.25131   0.11069   0.30764   0.00000  Uiso   1.00
C67    C     0.18355   0.12932   0.66322   0.00000  Uiso   1.00
C68    C     0.21250   0.09734   0.75153   0.00000  Uiso   1.00
C69    C     0.17132   0.05254   0.80856   0.00000  Uiso   1.00
H70    H     0.04203   0.14782   0.51020   0.00000  Uiso   1.00
H71    H     0.00776   0.27471   0.53306   0.00000  Uiso   1.00
H72    H     0.07715   0.10259   0.32268   0.00000  Uiso   1.00
H73    H     0.02227   0.06271   0.66635   0.00000  Uiso   1.00
H74    H     0.99962   0.42082   0.57172   0.00000  Uiso   1.00
H75    H     0.14593   0.05787   0.12813   0.00000  Uiso   1.00
H76    H     0.03020   0.97377   0.85283   0.00000  Uiso   1.00
H77    H     0.27202   0.18970   0.61316   0.00000  Uiso   1.00
H78    H     0.25037   0.31889   0.64167   0.00000  Uiso   1.00
H79    H     0.31975   0.14677   0.43128   0.00000  Uiso   1.00
H80    H     0.26487   0.10689   0.77495   0.00000  Uiso   1.00
H81    H     0.19653   0.45667   0.65987   0.00000  Uiso   1.00
H82    H     0.34284   0.09373   0.21628   0.00000  Uiso   1.00
H83    H     0.22711   0.00963   0.94098   0.00000  Uiso   1.00
O84    O     0.07969   0.52297   0.63266   0.00000  Uiso   1.00
O85    O     0.27164   0.04679   0.05070   0.00000  Uiso   1.00
O86    O     0.11980   0.93646   0.00148   0.00000  Uiso   1.00
N87    N     0.04893   0.41152   0.58858   0.00000  Uiso   1.00
N88    N     0.18572   0.07220   0.17384   0.00000  Uiso   1.00
N89    N     0.07753   0.99356   0.85135   0.00000  Uiso   1.00
N90    N     0.15488   0.43082   0.63601   0.00000  Uiso   1.00
N91    N     0.29167   0.09150   0.22127   0.00000  Uiso   1.00
N92    N     0.18348   0.01286   0.89878   0.00000  Uiso   1.00
C93    C     0.84258   0.09472   0.46620   0.00000  Uiso   1.00
C94    C     0.76784   0.10799   0.43950   0.00000  Uiso   1.00
C95    C     0.71574   0.06013   0.44348   0.00000  Uiso   1.00
C96    C     0.65080   0.08237   0.41606   0.00000  Uiso   1.00
C97    C     0.53661   0.09269   0.37926   0.00000  Uiso   1.00
C98    C     0.86134   0.14569   0.55381   0.00000  Uiso   1.00
C99    C     0.88788   0.12953   0.65390   0.00000  Uiso   1.00
C100   C     0.90166   0.18351   0.72271   0.00000  Uiso   1.00
C101   C     0.93269   0.25236   0.86335   0.00000  Uiso   1.00
C102   C     0.88301   0.11587   0.36708   0.00000  Uiso   1.00
C103   C     0.92777   0.07464   0.31018   0.00000  Uiso   1.00
C104   C     0.95980   0.10352   0.22179   0.00000  Uiso   1.00
C105   C     0.02447   0.12606   0.07250   0.00000  Uiso   1.00
C106   C     0.81989   0.21932   0.41042   0.00000  Uiso   1.00
C107   C     0.75551   0.17567   0.40921   0.00000  Uiso   1.00
C108   C     0.69064   0.19799   0.38177   0.00000  Uiso   1.00
C109   C     0.63845   0.15017   0.38571   0.00000  Uiso   1.00
C110   C     0.84902   0.21337   0.52352   0.00000  Uiso   1.00
C111   C     0.86277   0.26739   0.59219   0.00000  Uiso   1.00
C112   C     0.88931   0.25131   0.69236   0.00000  Uiso   1.00
C113   C     0.87068   0.18355   0.33678   0.00000  Uiso   1.00
C114   C     0.90266   0.21250   0.24847   0.00000  Uiso   1.00
C115   C     0.94746   0.17132   0.19144   0.00000  Uiso   1.00
H116   H     0.85218   0.04203   0.48980   0.00000  Uiso   1.00
H117   H     0.72529   0.00776   0.46694   0.00000  Uiso   1.00
H118   H     0.89741   0.07715   0.67732   0.00000  Uiso   1.00
H119   H     0.93729   0.02227   0.33365   0.00000  Uiso   1.00
H120   H     0.57918   0.99962   0.42828   0.00000  Uiso   1.00
H121   H     0.94213   0.14593   0.87187   0.00000  Uiso   1.00
H122   H     0.02623   0.03020   0.14717   0.00000  Uiso   1.00
H123   H     0.81030   0.27202   0.38684   0.00000  Uiso   1.00
H124   H     0.68111   0.25037   0.35833   0.00000  Uiso   1.00
H125   H     0.85323   0.31975   0.56872   0.00000  Uiso   1.00
H126   H     0.89311   0.26487   0.22505   0.00000  Uiso   1.00
H127   H     0.54333   0.19653   0.34013   0.00000  Uiso   1.00
H128   H     0.90627   0.34284   0.78372   0.00000  Uiso   1.00
H129   H     0.99037   0.22711   0.05902   0.00000  Uiso   1.00
O130   O     0.47703   0.07969   0.36734   0.00000  Uiso   1.00
O131   O     0.95321   0.27164   0.94930   0.00000  Uiso   1.00
O132   O     0.06354   0.11980   0.99852   0.00000  Uiso   1.00
N133   N     0.58848   0.04893   0.41142   0.00000  Uiso   1.00
N134   N     0.92780   0.18572   0.82616   0.00000  Uiso   1.00
N135   N     0.00644   0.07753   0.14865   0.00000  Uiso   1.00
N136   N     0.56918   0.15488   0.36399   0.00000  Uiso   1.00
N137   N     0.90850   0.29167   0.77873   0.00000  Uiso   1.00
N138   N     0.98714   0.18348   0.10122   0.00000  Uiso   1.00
C139   C     0.15742   0.90528   0.46620   0.00000  Uiso   1.00
C140   C     0.23216   0.89201   0.43950   0.00000  Uiso   1.00
C141   C     0.28426   0.93987   0.44348   0.00000  Uiso   1.00
C142   C     0.34920   0.91763   0.41606   0.00000  Uiso   1.00
C143   C     0.46339   0.90731   0.37926   0.00000  Uiso   1.00
C144   C     0.13866   0.85431   0.55381   0.00000  Uiso   1.00
C145   C     0.11212   0.87047   0.65390   0.00000  Uiso   1.00
C146   C     0.09834   0.81649   0.72271   0.00000  Uiso   1.00
C147   C     0.06731   0.74764   0.86335   0.00000  Uiso   1.00
C148   C     0.11699   0.88413   0.36708   0.00000  Uiso   1.00
C149   C     0.07223   0.92536   0.31018   0.00000  Uiso   1.00
C150   C     0.04020   0.89648   0.22179   0.00000  Uiso   1.00
C151   C     0.97553   0.87394   0.07250   0.00000  Uiso   1.00
C152   C     0.18011   0.78068   0.41042   0.00000  Uiso   1.00
C153   C     0.24449   0.82433   0.40921   0.00000  Uiso   1.00
C154   C     0.30936   0.80201   0.38177   0.00000  Uiso   1.00
C155   C     0.36155   0.84983   0.38571   0.00000  Uiso   1.00
C156   C     0.15098   0.78663   0.52352   0.00000  Uiso   1.00
C157   C     0.13723   0.73261   0.59219   0.00000  Uiso   1.00
C158   C     0.11069   0.74869   0.69236   0.00000  Uiso   1.00
C159   C     0.12932   0.81645   0.33678   0.00000  Uiso   1.00
C160   C     0.09734   0.78750   0.24847   0.00000  Uiso   1.00
C161   C     0.05254   0.82868   0.19144   0.00000  Uiso   1.00
H162   H     0.14782   0.95797   0.48980   0.00000  Uiso   1.00
H163   H     0.27471   0.99224   0.46694   0.00000  Uiso   1.00
H164   H     0.10259   0.92285   0.67732   0.00000  Uiso   1.00
H165   H     0.06271   0.97773   0.33365   0.00000  Uiso   1.00
H166   H     0.42082   0.00038   0.42828   0.00000  Uiso   1.00
H167   H     0.05787   0.85407   0.87187   0.00000  Uiso   1.00
H168   H     0.97377   0.96980   0.14717   0.00000  Uiso   1.00
H169   H     0.18970   0.72798   0.38684   0.00000  Uiso   1.00
H170   H     0.31889   0.74963   0.35833   0.00000  Uiso   1.00
H171   H     0.14677   0.68025   0.56872   0.00000  Uiso   1.00
H172   H     0.10689   0.73513   0.22505   0.00000  Uiso   1.00
H173   H     0.45667   0.80347   0.34013   0.00000  Uiso   1.00
H174   H     0.09373   0.65716   0.78372   0.00000  Uiso   1.00
H175   H     0.00963   0.77289   0.05902   0.00000  Uiso   1.00
O176   O     0.52297   0.92031   0.36734   0.00000  Uiso   1.00
O177   O     0.04679   0.72836   0.94930   0.00000  Uiso   1.00
O178   O     0.93646   0.88020   0.99852   0.00000  Uiso   1.00
N179   N     0.41152   0.95107   0.41142   0.00000  Uiso   1.00
N180   N     0.07220   0.81428   0.82616   0.00000  Uiso   1.00
N181   N     0.99356   0.92247   0.14865   0.00000  Uiso   1.00
N182   N     0.43082   0.84512   0.36399   0.00000  Uiso   1.00
N183   N     0.09150   0.70833   0.77873   0.00000  Uiso   1.00
N184   N     0.01286   0.81652   0.10122   0.00000  Uiso   1.00
C185   C     0.40528   0.65742   0.03380   0.00000  Uiso   1.00
C186   C     0.39201   0.73216   0.06050   0.00000  Uiso   1.00
C187   C     0.43987   0.78426   0.05652   0.00000  Uiso   1.00
C188   C     0.41763   0.84920   0.08394   0.00000  Uiso   1.00
C189   C     0.40731   0.96339   0.12074   0.00000  Uiso   1.00
C190   C     0.35431   0.63866   0.94619   0.00000  Uiso   1.00
C191   C     0.37047   0.61212   0.84610   0.00000  Uiso   1.00
C192   C     0.31649   0.59834   0.77729   0.00000  Uiso   1.00
C193   C     0.24764   0.56731   0.63665   0.00000  Uiso   1.00
C194   C     0.38413   0.61699   0.13292   0.00000  Uiso   1.00
C195   C     0.42536   0.57223   0.18982   0.00000  Uiso   1.00
C196   C     0.39648   0.54020   0.27821   0.00000  Uiso   1.00
C197   C     0.37394   0.47553   0.42750   0.00000  Uiso   1.00
C198   C     0.28068   0.68011   0.08958   0.00000  Uiso   1.00
C199   C     0.32433   0.74449   0.09079   0.00000  Uiso   1.00
C200   C     0.30201   0.80936   0.11823   0.00000  Uiso   1.00
C201   C     0.34983   0.86155   0.11429   0.00000  Uiso   1.00
C202   C     0.28663   0.65098   0.97648   0.00000  Uiso   1.00
C203   C     0.23261   0.63723   0.90781   0.00000  Uiso   1.00
C204   C     0.24869   0.61069   0.80764   0.00000  Uiso   1.00
C205   C     0.31645   0.62932   0.16322   0.00000  Uiso   1.00
C206   C     0.28750   0.59734   0.25153   0.00000  Uiso   1.00
C207   C     0.32868   0.55254   0.30856   0.00000  Uiso   1.00
H208   H     0.45797   0.64782   0.01020   0.00000  Uiso   1.00
H209   H     0.49224   0.77471   0.03306   0.00000  Uiso   1.00
H210   H     0.42285   0.60259   0.82268   0.00000  Uiso   1.00
H211   H     0.47773   0.56271   0.16635   0.00000  Uiso   1.00
H212   H     0.50038   0.92082   0.07172   0.00000  Uiso   1.00
H213   H     0.35407   0.55787   0.62813   0.00000  Uiso   1.00
H214   H     0.46980   0.47377   0.35283   0.00000  Uiso   1.00
H215   H     0.22798   0.68970   0.11316   0.00000  Uiso   1.00
H216   H     0.24963   0.81889   0.14167   0.00000  Uiso   1.00
H217   H     0.18025   0.64677   0.93128   0.00000  Uiso   1.00
H218   H     0.23513   0.60689   0.27495   0.00000  Uiso   1.00
H219   H     0.30347   0.95667   0.15987   0.00000  Uiso   1.00
H220   H     0.15716   0.59373   0.71628   0.00000  Uiso   1.00
H221   H     0.27289   0.50963   0.44098   0.00000  Uiso   1.00
O222   O     0.42031   0.02297   0.13266   0.00000  Uiso   1.00
O223   O     0.22836   0.54679   0.55070   0.00000  Uiso   1.00
O224   O     0.38020   0.43646   0.50148   0.00000  Uiso   1.00
N225   N     0.45107   0.91152   0.08858   0.00000  Uiso   1.00
N226   N     0.31428   0.57220   0.67384   0.00000  Uiso   1.00
N227   N     0.42247   0.49356   0.35135   0.00000  Uiso   1.00
N228   N     0.34512   0.93082   0.13601   0.00000  Uiso   1.00
N229   N     0.20833   0.59150   0.72127   0.00000  Uiso   1.00
N230   N     0.31652   0.51286   0.39878   0.00000  Uiso   1.00
C231   C     0.59472   0.34258   0.03380   0.00000  Uiso   1.00
C232   C     0.60799   0.26784   0.06050   0.00000  Uiso   1.00
C233   C     0.56013   0.21574   0.05652   0.00000  Uiso   1.00
C234   C     0.58237   0.15080   0.08394   0.00000  Uiso   1.00
C235   C     0.59269   0.03661   0.12074   0.00000  Uiso   1.00
C236   C     0.64569   0.36134   0.94619   0.00000  Uiso   1.00
C237   C     0.62953   0.38788   0.84610   0.00000  Uiso   1.00
C238   C     0.68351   0.40166   0.77729   0.00000  Uiso   1.00
C239   C     0.75236   0.43269   0.63665   0.00000  Uiso   1.00
C240   C     0.61587   0.38301   0.13292   0.00000  Uiso   1.00
C241   C     0.57464   0.42777   0.18982   0.00000  Uiso   1.00
C242   C     0.60352   0.45980   0.27821   0.00000  Uiso   1.00
C243   C     0.62606   0.52447   0.42750   0.00000  Uiso   1.00
C244   C     0.71932   0.31989   0.08958   0.00000  Uiso   1.00
C245   C     0.67567   0.25551   0.09079   0.00000  Uiso   1.00
C246   C     0.69799   0.19064   0.11823   0.00000  Uiso   1.00
C247   C     0.65017   0.13845   0.11429   0.00000  Uiso   1.00
C248   C     0.71337   0.34902   0.97648   0.00000  Uiso   1.00
C249   C     0.76739   0.36277   0.90781   0.00000  Uiso   1.00
C250   C     0.75131   0.38931   0.80764   0.00000  Uiso   1.00
C251   C     0.68355   0.37068   0.16322   0.00000  Uiso   1.00
C252   C     0.71250   0.40266   0.25153   0.00000  Uiso   1.00
C253   C     0.67132   0.44746   0.30856   0.00000  Uiso   1.00
H254   H     0.54203   0.35218   0.01020   0.00000  Uiso   1.00
H255   H     0.50776   0.22529   0.03306   0.00000  Uiso   1.00
H256   H     0.57715   0.39741   0.82268   0.00000  Uiso   1.00
H257   H     0.52227   0.43729   0.16635   0.00000  Uiso   1.00
H258   H     0.49962   0.07918   0.07172   0.00000  Uiso   1.00
H259   H     0.64593   0.44213   0.62813   0.00000  Uiso   1.00
H260   H     0.53020   0.52623   0.35283   0.00000  Uiso   1.00
H261   H     0.77202   0.31030   0.11316   0.00000  Uiso   1.00
H262   H     0.75037   0.18111   0.14167   0.00000  Uiso   1.00
H263   H     0.81975   0.35323   0.93128   0.00000  Uiso   1.00
H264   H     0.76487   0.39311   0.27495   0.00000  Uiso   1.00
H265   H     0.69653   0.04333   0.15987   0.00000  Uiso   1.00
H266   H     0.84284   0.40627   0.71628   0.00000  Uiso   1.00
H267   H     0.72711   0.49037   0.44098   0.00000  Uiso   1.00
O268   O     0.57969   0.97703   0.13266   0.00000  Uiso   1.00
O269   O     0.77164   0.45321   0.55070   0.00000  Uiso   1.00
O270   O     0.61980   0.56354   0.50148   0.00000  Uiso   1.00
N271   N     0.54893   0.08848   0.08858   0.00000  Uiso   1.00
N272   N     0.68572   0.42780   0.67384   0.00000  Uiso   1.00
N273   N     0.57753   0.50644   0.35135   0.00000  Uiso   1.00
N274   N     0.65488   0.06918   0.13601   0.00000  Uiso   1.00
N275   N     0.79167   0.40850   0.72127   0.00000  Uiso   1.00
N276   N     0.68348   0.48714   0.39878   0.00000  Uiso   1.00
C277   C     0.34258   0.40528   0.96620   0.00000  Uiso   1.00
C278   C     0.26784   0.39201   0.93950   0.00000  Uiso   1.00
C279   C     0.21574   0.43987   0.94348   0.00000  Uiso   1.00
C280   C     0.15080   0.41763   0.91606   0.00000  Uiso   1.00
C281   C     0.03661   0.40731   0.87926   0.00000  Uiso   1.00
C282   C     0.36134   0.35431   0.05381   0.00000  Uiso   1.00
C283   C     0.38788   0.37047   0.15390   0.00000  Uiso   1.00
C284   C     0.40166   0.31649   0.22271   0.00000  Uiso   1.00
C285   C     0.43269   0.24764   0.36335   0.00000  Uiso   1.00
C286   C     0.38301   0.38413   0.86708   0.00000  Uiso   1.00
C287   C     0.42777   0.42536   0.81018   0.00000  Uiso   1.00
C288   C     0.45980   0.39648   0.72179   0.00000  Uiso   1.00
C289   C     0.52447   0.37394   0.57250   0.00000  Uiso   1.00
C290   C     0.31989   0.28068   0.91042   0.00000  Uiso   1.00
C291   C     0.25551   0.32433   0.90921   0.00000  Uiso   1.00
C292   C     0.19064   0.30201   0.88177   0.00000  Uiso   1.00
C293   C     0.13845   0.34983   0.88571   0.00000  Uiso   1.00
C294   C     0.34902   0.28663   0.02352   0.00000  Uiso   1.00
C295   C     0.36277   0.23261   0.09219   0.00000  Uiso   1.00
C296   C     0.38931   0.24869   0.19236   0.00000  Uiso   1.00
C297   C     0.37068   0.31645   0.83678   0.00000  Uiso   1.00
C298   C     0.40266   0.28750   0.74847   0.00000  Uiso   1.00
C299   C     0.44746   0.32868   0.69144   0.00000  Uiso   1.00
H300   H     0.35218   0.45797   0.98980   0.00000  Uiso   1.00
H301   H     0.22529   0.49224   0.96694   0.00000  Uiso   1.00
H302   H     0.39741   0.42285   0.17732   0.00000  Uiso   1.00
H303   H     0.43729   0.47773   0.83365   0.00000  Uiso   1.00
H304   H     0.07918   0.50038   0.92828   0.00000  Uiso   1.00
H305   H     0.44213   0.35407   0.37187   0.00000  Uiso   1.00
H306   H     0.52623   0.46980   0.64717   0.00000  Uiso   1.00
H307   H     0.31030   0.22798   0.88684   0.00000  Uiso   1.00
H308   H     0.18111   0.24963   0.85833   0.00000  Uiso   1.00
H309   H     0.35323   0.18025   0.06872   0.00000  Uiso   1.00
H310   H     0.39311   0.23513   0.72505   0.00000  Uiso   1.00
H311   H     0.04333   0.30347   0.84013   0.00000  Uiso   1.00
H312   H     0.40627   0.15716   0.28372   0.00000  Uiso   1.00
H313   H     0.49037   0.27289   0.55902   0.00000  Uiso   1.00
O314   O     0.97703   0.42031   0.86734   0.00000  Uiso   1.00
O315   O     0.45321   0.22836   0.44930   0.00000  Uiso   1.00
O316   O     0.56354   0.38020   0.49852   0.00000  Uiso   1.00
N317   N     0.08848   0.45107   0.91142   0.00000  Uiso   1.00
N318   N     0.42780   0.31428   0.32616   0.00000  Uiso   1.00
N319   N     0.50644   0.42247   0.64865   0.00000  Uiso   1.00
N320   N     0.06918   0.34512   0.86399   0.00000  Uiso   1.00
N321   N     0.40850   0.20833   0.27873   0.00000  Uiso   1.00
N322   N     0.48714   0.31652   0.60122   0.00000  Uiso   1.00
C323   C     0.65742   0.59472   0.96620   0.00000  Uiso   1.00
C324   C     0.73216   0.60799   0.93950   0.00000  Uiso   1.00
C325   C     0.78426   0.56013   0.94348   0.00000  Uiso   1.00
C326   C     0.84920   0.58237   0.91606   0.00000  Uiso   1.00
C327   C     0.96339   0.59269   0.87926   0.00000  Uiso   1.00
C328   C     0.63866   0.64569   0.05381   0.00000  Uiso   1.00
C329   C     0.61212   0.62953   0.15390   0.00000  Uiso   1.00
C330   C     0.59834   0.68351   0.22271   0.00000  Uiso   1.00
C331   C     0.56731   0.75236   0.36335   0.00000  Uiso   1.00
C332   C     0.61699   0.61587   0.86708   0.00000  Uiso   1.00
C333   C     0.57223   0.57464   0.81018   0.00000  Uiso   1.00
C334   C     0.54020   0.60352   0.72179   0.00000  Uiso   1.00
C335   C     0.47553   0.62606   0.57250   0.00000  Uiso   1.00
C336   C     0.68011   0.71932   0.91042   0.00000  Uiso   1.00
C337   C     0.74449   0.67567   0.90921   0.00000  Uiso   1.00
C338   C     0.80936   0.69799   0.88177   0.00000  Uiso   1.00
C339   C     0.86155   0.65017   0.88571   0.00000  Uiso   1.00
C340   C     0.65098   0.71337   0.02352   0.00000  Uiso   1.00
C341   C     0.63723   0.76739   0.09219   0.00000  Uiso   1.00
C342   C     0.61069   0.75131   0.19236   0.00000  Uiso   1.00
C343   C     0.62932   0.68355   0.83678   0.00000  Uiso   1.00
C344   C     0.59734   0.71250   0.74847   0.00000  Uiso   1.00
C345   C     0.55254   0.67132   0.69144   0.00000  Uiso   1.00
H346   H     0.64782   0.54203   0.98980   0.00000  Uiso   1.00
H347   H     0.77471   0.50776   0.96694   0.00000  Uiso   1.00
H348   H     0.60259   0.57715   0.17732   0.00000  Uiso   1.00
H349   H     0.56271   0.52227   0.83365   0.00000  Uiso   1.00
H350   H     0.92082   0.49962   0.92828   0.00000  Uiso   1.00
H351   H     0.55787   0.64593   0.37187   0.00000  Uiso   1.00
H352   H     0.47377   0.53020   0.64717   0.00000  Uiso   1.00
H353   H     0.68970   0.77202   0.88684   0.00000  Uiso   1.00
H354   H     0.81889   0.75037   0.85833   0.00000  Uiso   1.00
H355   H     0.64677   0.81975   0.06872   0.00000  Uiso   1.00
H356   H     0.60689   0.76487   0.72505   0.00000  Uiso   1.00
H357   H     0.95667   0.69653   0.84013   0.00000  Uiso   1.00
H358   H     0.59373   0.84284   0.28372   0.00000  Uiso   1.00
H359   H     0.50963   0.72711   0.55902   0.00000  Uiso   1.00
O360   O     0.02297   0.57969   0.86734   0.00000  Uiso   1.00
O361   O     0.54679   0.77164   0.44930   0.00000  Uiso   1.00
O362   O     0.43646   0.61980   0.49852   0.00000  Uiso   1.00
N363   N     0.91152   0.54893   0.91142   0.00000  Uiso   1.00
N364   N     0.57220   0.68572   0.32616   0.00000  Uiso   1.00
N365   N     0.49356   0.57753   0.64865   0.00000  Uiso   1.00
N366   N     0.93082   0.65488   0.86399   0.00000  Uiso   1.00
N367   N     0.59150   0.79167   0.27873   0.00000  Uiso   1.00
N368   N     0.51286   0.68348   0.60122   0.00000  Uiso   1.00
