data_job_01956
_audit_creation_date              2018-12-19
_audit_creation_method            'Materials Studio'
_symmetry_space_group_name_H-M    'P1'
_symmetry_Int_Tables_number       1
_symmetry_cell_setting            triclinic
loop_
_symmetry_equiv_pos_as_xyz
  x,y,z
_cell_length_a                    16.1533
_cell_length_b                    12.3891
_cell_length_c                    30.9008
_cell_angle_alpha                 90.0000
_cell_angle_beta                  78.9847
_cell_angle_gamma                 90.0000
loop_
_atom_site_label
_atom_site_type_symbol
_atom_site_fract_x
_atom_site_fract_y
_atom_site_fract_z
_atom_site_U_iso_or_equiv
_atom_site_adp_type
_atom_site_occupancy
C1     C     0.11003   0.83909   0.67112   0.00000  Uiso   1.00
C2     C     0.18843   0.81322   0.68992   0.00000  Uiso   1.00
C3     C     0.19460   0.81916   0.73404   0.00000  Uiso   1.00
C4     C     0.27181   0.79221   0.74457   0.00000  Uiso   1.00
C5     C     0.38314   0.75693   0.77870   0.00000  Uiso   1.00
C6     C     0.13656   0.92575   0.63618   0.00000  Uiso   1.00
C7     C     0.09913   0.02629   0.63510   0.00000  Uiso   1.00
C8     C     0.13267   0.09406   0.60038   0.00000  Uiso   1.00
C9     C     0.16344   0.23345   0.55105   0.00000  Uiso   1.00
C10    C     0.09153   0.73827   0.64630   0.00000  Uiso   1.00
C11    C     0.01621   0.68119   0.65373   0.00000  Uiso   1.00
C12    C     0.01184   0.59113   0.62752   0.00000  Uiso   1.00
C13    C     0.97268   0.43942   0.59391   0.00000  Uiso   1.00
C14    C     0.23616   0.78066   0.61136   0.00000  Uiso   1.00
C15    C     0.25694   0.78149   0.65746   0.00000  Uiso   1.00
C16    C     0.33416   0.75452   0.66792   0.00000  Uiso   1.00
C17    C     0.34044   0.76042   0.71205   0.00000  Uiso   1.00
C18    C     0.20507   0.89402   0.60372   0.00000  Uiso   1.00
C19    C     0.23868   0.96165   0.56898   0.00000  Uiso   1.00
C20    C     0.20131   0.06228   0.56786   0.00000  Uiso   1.00
C21    C     0.16004   0.70653   0.61384   0.00000  Uiso   1.00
C22    C     0.15577   0.61655   0.58761   0.00000  Uiso   1.00
C23    C     0.08047   0.55934   0.59500   0.00000  Uiso   1.00
H24    H     0.05669   0.86380   0.69639   0.00000  Uiso   1.00
H25    H     0.14157   0.84373   0.75915   0.00000  Uiso   1.00
H26    H     0.04611   0.05082   0.66023   0.00000  Uiso   1.00
H27    H     0.96321   0.70577   0.67885   0.00000  Uiso   1.00
H28    H     0.26590   0.80752   0.81442   0.00000  Uiso   1.00
H29    H     0.06459   0.24418   0.60582   0.00000  Uiso   1.00
H30    H     0.88979   0.51657   0.64509   0.00000  Uiso   1.00
H31    H     0.28950   0.75596   0.58608   0.00000  Uiso   1.00
H32    H     0.38716   0.72997   0.64280   0.00000  Uiso   1.00
H33    H     0.29169   0.93707   0.54387   0.00000  Uiso   1.00
H34    H     0.20880   0.59201   0.56249   0.00000  Uiso   1.00
H35    H     0.46523   0.71520   0.71998   0.00000  Uiso   1.00
H36    H     0.26391   0.15185   0.51138   0.00000  Uiso   1.00
H37    H     0.08912   0.42424   0.55065   0.00000  Uiso   1.00
O38    O     0.42562   0.74624   0.80650   0.00000  Uiso   1.00
O39    O     0.16149   0.31911   0.53282   0.00000  Uiso   1.00
O40    O     0.93216   0.36450   0.58434   0.00000  Uiso   1.00
N41    N     0.29941   0.78934   0.78441   0.00000  Uiso   1.00
N42    N     0.11120   0.19759   0.58939   0.00000  Uiso   1.00
N43    N     0.94777   0.51736   0.62609   0.00000  Uiso   1.00
N44    N     0.40667   0.73966   0.73360   0.00000  Uiso   1.00
N45    N     0.21846   0.14791   0.53857   0.00000  Uiso   1.00
N46    N     0.05502   0.46767   0.57527   0.00000  Uiso   1.00
C47    C     0.61003   0.33909   0.67112   0.00000  Uiso   1.00
C48    C     0.68843   0.31322   0.68992   0.00000  Uiso   1.00
C49    C     0.69460   0.31916   0.73404   0.00000  Uiso   1.00
C50    C     0.77181   0.29221   0.74457   0.00000  Uiso   1.00
C51    C     0.88314   0.25693   0.77870   0.00000  Uiso   1.00
C52    C     0.63656   0.42575   0.63618   0.00000  Uiso   1.00
C53    C     0.59913   0.52629   0.63510   0.00000  Uiso   1.00
C54    C     0.63267   0.59406   0.60038   0.00000  Uiso   1.00
C55    C     0.66344   0.73345   0.55105   0.00000  Uiso   1.00
C56    C     0.59153   0.23827   0.64630   0.00000  Uiso   1.00
C57    C     0.51621   0.18119   0.65373   0.00000  Uiso   1.00
C58    C     0.51184   0.09113   0.62752   0.00000  Uiso   1.00
C59    C     0.47268   0.93942   0.59391   0.00000  Uiso   1.00
C60    C     0.73616   0.28066   0.61136   0.00000  Uiso   1.00
C61    C     0.75694   0.28149   0.65746   0.00000  Uiso   1.00
C62    C     0.83416   0.25452   0.66792   0.00000  Uiso   1.00
C63    C     0.84044   0.26042   0.71205   0.00000  Uiso   1.00
C64    C     0.70507   0.39402   0.60372   0.00000  Uiso   1.00
C65    C     0.73868   0.46165   0.56898   0.00000  Uiso   1.00
C66    C     0.70131   0.56228   0.56786   0.00000  Uiso   1.00
C67    C     0.66004   0.20653   0.61384   0.00000  Uiso   1.00
C68    C     0.65577   0.11655   0.58761   0.00000  Uiso   1.00
C69    C     0.58047   0.05934   0.59500   0.00000  Uiso   1.00
H70    H     0.55669   0.36380   0.69639   0.00000  Uiso   1.00
H71    H     0.64157   0.34373   0.75915   0.00000  Uiso   1.00
H72    H     0.54611   0.55082   0.66023   0.00000  Uiso   1.00
H73    H     0.46321   0.20577   0.67885   0.00000  Uiso   1.00
H74    H     0.76590   0.30752   0.81442   0.00000  Uiso   1.00
H75    H     0.56459   0.74418   0.60582   0.00000  Uiso   1.00
H76    H     0.38979   0.01657   0.64509   0.00000  Uiso   1.00
H77    H     0.78950   0.25596   0.58608   0.00000  Uiso   1.00
H78    H     0.88716   0.22997   0.64280   0.00000  Uiso   1.00
H79    H     0.79169   0.43707   0.54387   0.00000  Uiso   1.00
H80    H     0.70880   0.09201   0.56249   0.00000  Uiso   1.00
H81    H     0.96523   0.21520   0.71998   0.00000  Uiso   1.00
H82    H     0.76391   0.65185   0.51138   0.00000  Uiso   1.00
H83    H     0.58912   0.92424   0.55065   0.00000  Uiso   1.00
O84    O     0.92562   0.24624   0.80650   0.00000  Uiso   1.00
O85    O     0.66149   0.81911   0.53282   0.00000  Uiso   1.00
O86    O     0.43216   0.86450   0.58434   0.00000  Uiso   1.00
N87    N     0.79941   0.28934   0.78441   0.00000  Uiso   1.00
N88    N     0.61120   0.69759   0.58939   0.00000  Uiso   1.00
N89    N     0.44777   0.01736   0.62609   0.00000  Uiso   1.00
N90    N     0.90667   0.23966   0.73360   0.00000  Uiso   1.00
N91    N     0.71846   0.64791   0.53857   0.00000  Uiso   1.00
N92    N     0.55502   0.96767   0.57527   0.00000  Uiso   1.00
C93    C     0.88997   0.83909   0.82888   0.00000  Uiso   1.00
C94    C     0.81157   0.81322   0.81008   0.00000  Uiso   1.00
C95    C     0.80540   0.81916   0.76596   0.00000  Uiso   1.00
C96    C     0.72819   0.79221   0.75543   0.00000  Uiso   1.00
C97    C     0.61686   0.75693   0.72130   0.00000  Uiso   1.00
C98    C     0.86344   0.92575   0.86382   0.00000  Uiso   1.00
C99    C     0.90087   0.02629   0.86490   0.00000  Uiso   1.00
C100   C     0.86733   0.09406   0.89962   0.00000  Uiso   1.00
C101   C     0.83656   0.23345   0.94895   0.00000  Uiso   1.00
C102   C     0.90847   0.73827   0.85370   0.00000  Uiso   1.00
C103   C     0.98379   0.68119   0.84627   0.00000  Uiso   1.00
C104   C     0.98816   0.59113   0.87248   0.00000  Uiso   1.00
C105   C     0.02732   0.43942   0.90609   0.00000  Uiso   1.00
C106   C     0.76384   0.78066   0.88864   0.00000  Uiso   1.00
C107   C     0.74306   0.78149   0.84254   0.00000  Uiso   1.00
C108   C     0.66584   0.75452   0.83208   0.00000  Uiso   1.00
C109   C     0.65956   0.76042   0.78795   0.00000  Uiso   1.00
C110   C     0.79493   0.89402   0.89628   0.00000  Uiso   1.00
C111   C     0.76132   0.96165   0.93102   0.00000  Uiso   1.00
C112   C     0.79869   0.06228   0.93214   0.00000  Uiso   1.00
C113   C     0.83996   0.70653   0.88616   0.00000  Uiso   1.00
C114   C     0.84423   0.61655   0.91239   0.00000  Uiso   1.00
C115   C     0.91953   0.55934   0.90500   0.00000  Uiso   1.00
H116   H     0.94331   0.86380   0.80361   0.00000  Uiso   1.00
H117   H     0.85843   0.84373   0.74085   0.00000  Uiso   1.00
H118   H     0.95389   0.05082   0.83977   0.00000  Uiso   1.00
H119   H     0.03679   0.70577   0.82115   0.00000  Uiso   1.00
H120   H     0.73410   0.80752   0.68558   0.00000  Uiso   1.00
H121   H     0.93541   0.24418   0.89418   0.00000  Uiso   1.00
H122   H     0.11021   0.51657   0.85491   0.00000  Uiso   1.00
H123   H     0.71050   0.75596   0.91392   0.00000  Uiso   1.00
H124   H     0.61284   0.72997   0.85720   0.00000  Uiso   1.00
H125   H     0.70831   0.93707   0.95613   0.00000  Uiso   1.00
H126   H     0.79120   0.59201   0.93751   0.00000  Uiso   1.00
H127   H     0.53477   0.71520   0.78002   0.00000  Uiso   1.00
H128   H     0.73609   0.15185   0.98862   0.00000  Uiso   1.00
H129   H     0.91088   0.42424   0.94935   0.00000  Uiso   1.00
O130   O     0.57438   0.74624   0.69350   0.00000  Uiso   1.00
O131   O     0.83851   0.31911   0.96718   0.00000  Uiso   1.00
O132   O     0.06784   0.36450   0.91566   0.00000  Uiso   1.00
N133   N     0.70059   0.78934   0.71559   0.00000  Uiso   1.00
N134   N     0.88880   0.19759   0.91061   0.00000  Uiso   1.00
N135   N     0.05223   0.51736   0.87391   0.00000  Uiso   1.00
N136   N     0.59333   0.73966   0.76640   0.00000  Uiso   1.00
N137   N     0.78154   0.14791   0.96143   0.00000  Uiso   1.00
N138   N     0.94498   0.46767   0.92473   0.00000  Uiso   1.00
C139   C     0.38997   0.33909   0.82888   0.00000  Uiso   1.00
C140   C     0.31157   0.31322   0.81008   0.00000  Uiso   1.00
C141   C     0.30540   0.31916   0.76596   0.00000  Uiso   1.00
C142   C     0.22819   0.29221   0.75543   0.00000  Uiso   1.00
C143   C     0.11686   0.25693   0.72130   0.00000  Uiso   1.00
C144   C     0.36344   0.42575   0.86382   0.00000  Uiso   1.00
C145   C     0.40087   0.52629   0.86490   0.00000  Uiso   1.00
C146   C     0.36733   0.59406   0.89962   0.00000  Uiso   1.00
C147   C     0.33656   0.73345   0.94895   0.00000  Uiso   1.00
C148   C     0.40847   0.23827   0.85370   0.00000  Uiso   1.00
C149   C     0.48379   0.18119   0.84627   0.00000  Uiso   1.00
C150   C     0.48816   0.09113   0.87248   0.00000  Uiso   1.00
C151   C     0.52732   0.93942   0.90609   0.00000  Uiso   1.00
C152   C     0.26384   0.28066   0.88864   0.00000  Uiso   1.00
C153   C     0.24306   0.28149   0.84254   0.00000  Uiso   1.00
C154   C     0.16584   0.25452   0.83208   0.00000  Uiso   1.00
C155   C     0.15956   0.26042   0.78795   0.00000  Uiso   1.00
C156   C     0.29493   0.39402   0.89628   0.00000  Uiso   1.00
C157   C     0.26132   0.46165   0.93102   0.00000  Uiso   1.00
C158   C     0.29869   0.56228   0.93214   0.00000  Uiso   1.00
C159   C     0.33996   0.20653   0.88616   0.00000  Uiso   1.00
C160   C     0.34423   0.11655   0.91239   0.00000  Uiso   1.00
C161   C     0.41953   0.05934   0.90500   0.00000  Uiso   1.00
H162   H     0.44331   0.36380   0.80361   0.00000  Uiso   1.00
H163   H     0.35843   0.34373   0.74085   0.00000  Uiso   1.00
H164   H     0.45389   0.55082   0.83977   0.00000  Uiso   1.00
H165   H     0.53679   0.20577   0.82115   0.00000  Uiso   1.00
H166   H     0.23410   0.30752   0.68558   0.00000  Uiso   1.00
H167   H     0.43541   0.74418   0.89418   0.00000  Uiso   1.00
H168   H     0.61021   0.01657   0.85491   0.00000  Uiso   1.00
H169   H     0.21050   0.25596   0.91392   0.00000  Uiso   1.00
H170   H     0.11284   0.22997   0.85720   0.00000  Uiso   1.00
H171   H     0.20831   0.43707   0.95613   0.00000  Uiso   1.00
H172   H     0.29120   0.09201   0.93751   0.00000  Uiso   1.00
H173   H     0.03477   0.21520   0.78002   0.00000  Uiso   1.00
H174   H     0.23609   0.65185   0.98862   0.00000  Uiso   1.00
H175   H     0.41088   0.92424   0.94935   0.00000  Uiso   1.00
O176   O     0.07438   0.24624   0.69350   0.00000  Uiso   1.00
O177   O     0.33851   0.81911   0.96718   0.00000  Uiso   1.00
O178   O     0.56784   0.86450   0.91566   0.00000  Uiso   1.00
N179   N     0.20059   0.28934   0.71559   0.00000  Uiso   1.00
N180   N     0.38880   0.69759   0.91061   0.00000  Uiso   1.00
N181   N     0.55223   0.01736   0.87391   0.00000  Uiso   1.00
N182   N     0.09333   0.23966   0.76640   0.00000  Uiso   1.00
N183   N     0.28154   0.64791   0.96143   0.00000  Uiso   1.00
N184   N     0.44498   0.96767   0.92473   0.00000  Uiso   1.00
C185   C     0.88997   0.16091   0.32888   0.00000  Uiso   1.00
C186   C     0.81157   0.18678   0.31008   0.00000  Uiso   1.00
C187   C     0.80540   0.18084   0.26596   0.00000  Uiso   1.00
C188   C     0.72819   0.20779   0.25543   0.00000  Uiso   1.00
C189   C     0.61686   0.24307   0.22130   0.00000  Uiso   1.00
C190   C     0.86344   0.07425   0.36382   0.00000  Uiso   1.00
C191   C     0.90087   0.97371   0.36490   0.00000  Uiso   1.00
C192   C     0.86733   0.90594   0.39962   0.00000  Uiso   1.00
C193   C     0.83656   0.76655   0.44895   0.00000  Uiso   1.00
C194   C     0.90847   0.26173   0.35370   0.00000  Uiso   1.00
C195   C     0.98379   0.31881   0.34627   0.00000  Uiso   1.00
C196   C     0.98816   0.40887   0.37248   0.00000  Uiso   1.00
C197   C     0.02732   0.56058   0.40609   0.00000  Uiso   1.00
C198   C     0.76384   0.21934   0.38864   0.00000  Uiso   1.00
C199   C     0.74306   0.21851   0.34254   0.00000  Uiso   1.00
C200   C     0.66584   0.24548   0.33208   0.00000  Uiso   1.00
C201   C     0.65956   0.23958   0.28795   0.00000  Uiso   1.00
C202   C     0.79493   0.10598   0.39628   0.00000  Uiso   1.00
C203   C     0.76132   0.03835   0.43102   0.00000  Uiso   1.00
C204   C     0.79869   0.93772   0.43214   0.00000  Uiso   1.00
C205   C     0.83996   0.29347   0.38616   0.00000  Uiso   1.00
C206   C     0.84423   0.38345   0.41239   0.00000  Uiso   1.00
C207   C     0.91953   0.44066   0.40500   0.00000  Uiso   1.00
H208   H     0.94331   0.13620   0.30361   0.00000  Uiso   1.00
H209   H     0.85843   0.15627   0.24085   0.00000  Uiso   1.00
H210   H     0.95389   0.94918   0.33977   0.00000  Uiso   1.00
H211   H     0.03679   0.29423   0.32115   0.00000  Uiso   1.00
H212   H     0.73410   0.19248   0.18558   0.00000  Uiso   1.00
H213   H     0.93541   0.75582   0.39418   0.00000  Uiso   1.00
H214   H     0.11021   0.48343   0.35491   0.00000  Uiso   1.00
H215   H     0.71050   0.24404   0.41392   0.00000  Uiso   1.00
H216   H     0.61284   0.27003   0.35720   0.00000  Uiso   1.00
H217   H     0.70831   0.06293   0.45613   0.00000  Uiso   1.00
H218   H     0.79120   0.40799   0.43751   0.00000  Uiso   1.00
H219   H     0.53477   0.28480   0.28002   0.00000  Uiso   1.00
H220   H     0.73609   0.84815   0.48862   0.00000  Uiso   1.00
H221   H     0.91088   0.57576   0.44935   0.00000  Uiso   1.00
O222   O     0.57438   0.25376   0.19350   0.00000  Uiso   1.00
O223   O     0.83851   0.68089   0.46718   0.00000  Uiso   1.00
O224   O     0.06784   0.63550   0.41566   0.00000  Uiso   1.00
N225   N     0.70059   0.21066   0.21559   0.00000  Uiso   1.00
N226   N     0.88880   0.80241   0.41061   0.00000  Uiso   1.00
N227   N     0.05223   0.48264   0.37391   0.00000  Uiso   1.00
N228   N     0.59333   0.26034   0.26640   0.00000  Uiso   1.00
N229   N     0.78154   0.85209   0.46143   0.00000  Uiso   1.00
N230   N     0.94498   0.53233   0.42473   0.00000  Uiso   1.00
C231   C     0.38997   0.66091   0.32888   0.00000  Uiso   1.00
C232   C     0.31157   0.68678   0.31008   0.00000  Uiso   1.00
C233   C     0.30540   0.68084   0.26596   0.00000  Uiso   1.00
C234   C     0.22819   0.70779   0.25543   0.00000  Uiso   1.00
C235   C     0.11686   0.74307   0.22130   0.00000  Uiso   1.00
C236   C     0.36344   0.57425   0.36382   0.00000  Uiso   1.00
C237   C     0.40087   0.47371   0.36490   0.00000  Uiso   1.00
C238   C     0.36733   0.40594   0.39962   0.00000  Uiso   1.00
C239   C     0.33656   0.26655   0.44895   0.00000  Uiso   1.00
C240   C     0.40847   0.76173   0.35370   0.00000  Uiso   1.00
C241   C     0.48379   0.81881   0.34627   0.00000  Uiso   1.00
C242   C     0.48816   0.90887   0.37248   0.00000  Uiso   1.00
C243   C     0.52732   0.06058   0.40609   0.00000  Uiso   1.00
C244   C     0.26384   0.71934   0.38864   0.00000  Uiso   1.00
C245   C     0.24306   0.71851   0.34254   0.00000  Uiso   1.00
C246   C     0.16584   0.74548   0.33208   0.00000  Uiso   1.00
C247   C     0.15956   0.73958   0.28795   0.00000  Uiso   1.00
C248   C     0.29493   0.60598   0.39628   0.00000  Uiso   1.00
C249   C     0.26132   0.53835   0.43102   0.00000  Uiso   1.00
C250   C     0.29869   0.43772   0.43214   0.00000  Uiso   1.00
C251   C     0.33996   0.79347   0.38616   0.00000  Uiso   1.00
C252   C     0.34423   0.88345   0.41239   0.00000  Uiso   1.00
C253   C     0.41953   0.94066   0.40500   0.00000  Uiso   1.00
H254   H     0.44331   0.63620   0.30361   0.00000  Uiso   1.00
H255   H     0.35843   0.65627   0.24085   0.00000  Uiso   1.00
H256   H     0.45389   0.44918   0.33977   0.00000  Uiso   1.00
H257   H     0.53679   0.79423   0.32115   0.00000  Uiso   1.00
H258   H     0.23410   0.69248   0.18558   0.00000  Uiso   1.00
H259   H     0.43541   0.25582   0.39418   0.00000  Uiso   1.00
H260   H     0.61021   0.98343   0.35491   0.00000  Uiso   1.00
H261   H     0.21050   0.74404   0.41392   0.00000  Uiso   1.00
H262   H     0.11284   0.77003   0.35720   0.00000  Uiso   1.00
H263   H     0.20831   0.56293   0.45613   0.00000  Uiso   1.00
H264   H     0.29120   0.90799   0.43751   0.00000  Uiso   1.00
H265   H     0.03477   0.78480   0.28002   0.00000  Uiso   1.00
H266   H     0.23609   0.34815   0.48862   0.00000  Uiso   1.00
H267   H     0.41088   0.07576   0.44935   0.00000  Uiso   1.00
O268   O     0.07438   0.75376   0.19350   0.00000  Uiso   1.00
O269   O     0.33851   0.18089   0.46718   0.00000  Uiso   1.00
O270   O     0.56784   0.13550   0.41566   0.00000  Uiso   1.00
N271   N     0.20059   0.71066   0.21559   0.00000  Uiso   1.00
N272   N     0.38880   0.30241   0.41061   0.00000  Uiso   1.00
N273   N     0.55223   0.98264   0.37391   0.00000  Uiso   1.00
N274   N     0.09333   0.76034   0.26640   0.00000  Uiso   1.00
N275   N     0.28154   0.35209   0.46143   0.00000  Uiso   1.00
N276   N     0.44498   0.03233   0.42473   0.00000  Uiso   1.00
C277   C     0.11003   0.16091   0.17112   0.00000  Uiso   1.00
C278   C     0.18843   0.18678   0.18992   0.00000  Uiso   1.00
C279   C     0.19460   0.18084   0.23404   0.00000  Uiso   1.00
C280   C     0.27181   0.20779   0.24457   0.00000  Uiso   1.00
C281   C     0.38314   0.24307   0.27870   0.00000  Uiso   1.00
C282   C     0.13656   0.07425   0.13618   0.00000  Uiso   1.00
C283   C     0.09913   0.97371   0.13510   0.00000  Uiso   1.00
C284   C     0.13267   0.90594   0.10038   0.00000  Uiso   1.00
C285   C     0.16344   0.76655   0.05105   0.00000  Uiso   1.00
C286   C     0.09153   0.26173   0.14630   0.00000  Uiso   1.00
C287   C     0.01621   0.31881   0.15373   0.00000  Uiso   1.00
C288   C     0.01184   0.40887   0.12752   0.00000  Uiso   1.00
C289   C     0.97268   0.56058   0.09391   0.00000  Uiso   1.00
C290   C     0.23616   0.21934   0.11136   0.00000  Uiso   1.00
C291   C     0.25694   0.21851   0.15746   0.00000  Uiso   1.00
C292   C     0.33416   0.24548   0.16792   0.00000  Uiso   1.00
C293   C     0.34044   0.23958   0.21205   0.00000  Uiso   1.00
C294   C     0.20507   0.10598   0.10372   0.00000  Uiso   1.00
C295   C     0.23868   0.03835   0.06898   0.00000  Uiso   1.00
C296   C     0.20131   0.93772   0.06786   0.00000  Uiso   1.00
C297   C     0.16004   0.29347   0.11384   0.00000  Uiso   1.00
C298   C     0.15577   0.38345   0.08761   0.00000  Uiso   1.00
C299   C     0.08047   0.44066   0.09500   0.00000  Uiso   1.00
H300   H     0.05669   0.13620   0.19639   0.00000  Uiso   1.00
H301   H     0.14157   0.15627   0.25915   0.00000  Uiso   1.00
H302   H     0.04611   0.94918   0.16023   0.00000  Uiso   1.00
H303   H     0.96321   0.29423   0.17885   0.00000  Uiso   1.00
H304   H     0.26590   0.19248   0.31442   0.00000  Uiso   1.00
H305   H     0.06459   0.75582   0.10582   0.00000  Uiso   1.00
H306   H     0.88979   0.48343   0.14509   0.00000  Uiso   1.00
H307   H     0.28950   0.24404   0.08608   0.00000  Uiso   1.00
H308   H     0.38716   0.27003   0.14280   0.00000  Uiso   1.00
H309   H     0.29169   0.06293   0.04387   0.00000  Uiso   1.00
H310   H     0.20880   0.40799   0.06249   0.00000  Uiso   1.00
H311   H     0.46523   0.28480   0.21998   0.00000  Uiso   1.00
H312   H     0.26391   0.84815   0.01138   0.00000  Uiso   1.00
H313   H     0.08912   0.57576   0.05065   0.00000  Uiso   1.00
O314   O     0.42562   0.25376   0.30650   0.00000  Uiso   1.00
O315   O     0.16149   0.68089   0.03282   0.00000  Uiso   1.00
O316   O     0.93216   0.63550   0.08434   0.00000  Uiso   1.00
N317   N     0.29941   0.21066   0.28441   0.00000  Uiso   1.00
N318   N     0.11120   0.80241   0.08939   0.00000  Uiso   1.00
N319   N     0.94777   0.48264   0.12609   0.00000  Uiso   1.00
N320   N     0.40667   0.26034   0.23360   0.00000  Uiso   1.00
N321   N     0.21846   0.85209   0.03857   0.00000  Uiso   1.00
N322   N     0.05502   0.53233   0.07527   0.00000  Uiso   1.00
C323   C     0.61003   0.66091   0.17112   0.00000  Uiso   1.00
C324   C     0.68843   0.68678   0.18992   0.00000  Uiso   1.00
C325   C     0.69460   0.68084   0.23404   0.00000  Uiso   1.00
C326   C     0.77181   0.70779   0.24457   0.00000  Uiso   1.00
C327   C     0.88314   0.74307   0.27870   0.00000  Uiso   1.00
C328   C     0.63656   0.57425   0.13618   0.00000  Uiso   1.00
C329   C     0.59913   0.47371   0.13510   0.00000  Uiso   1.00
C330   C     0.63267   0.40594   0.10038   0.00000  Uiso   1.00
C331   C     0.66344   0.26655   0.05105   0.00000  Uiso   1.00
C332   C     0.59153   0.76173   0.14630   0.00000  Uiso   1.00
C333   C     0.51621   0.81881   0.15373   0.00000  Uiso   1.00
C334   C     0.51184   0.90887   0.12752   0.00000  Uiso   1.00
C335   C     0.47268   0.06058   0.09391   0.00000  Uiso   1.00
C336   C     0.73616   0.71934   0.11136   0.00000  Uiso   1.00
C337   C     0.75694   0.71851   0.15746   0.00000  Uiso   1.00
C338   C     0.83416   0.74548   0.16792   0.00000  Uiso   1.00
C339   C     0.84044   0.73958   0.21205   0.00000  Uiso   1.00
C340   C     0.70507   0.60598   0.10372   0.00000  Uiso   1.00
C341   C     0.73868   0.53835   0.06898   0.00000  Uiso   1.00
C342   C     0.70131   0.43772   0.06786   0.00000  Uiso   1.00
C343   C     0.66004   0.79347   0.11384   0.00000  Uiso   1.00
C344   C     0.65577   0.88345   0.08761   0.00000  Uiso   1.00
C345   C     0.58047   0.94066   0.09500   0.00000  Uiso   1.00
H346   H     0.55669   0.63620   0.19639   0.00000  Uiso   1.00
H347   H     0.64157   0.65627   0.25915   0.00000  Uiso   1.00
H348   H     0.54611   0.44918   0.16023   0.00000  Uiso   1.00
H349   H     0.46321   0.79423   0.17885   0.00000  Uiso   1.00
H350   H     0.76590   0.69248   0.31442   0.00000  Uiso   1.00
H351   H     0.56459   0.25582   0.10582   0.00000  Uiso   1.00
H352   H     0.38979   0.98343   0.14509   0.00000  Uiso   1.00
H353   H     0.78950   0.74404   0.08608   0.00000  Uiso   1.00
H354   H     0.88716   0.77003   0.14280   0.00000  Uiso   1.00
H355   H     0.79169   0.56293   0.04387   0.00000  Uiso   1.00
H356   H     0.70880   0.90799   0.06249   0.00000  Uiso   1.00
H357   H     0.96523   0.78480   0.21998   0.00000  Uiso   1.00
H358   H     0.76391   0.34815   0.01138   0.00000  Uiso   1.00
H359   H     0.58912   0.07576   0.05065   0.00000  Uiso   1.00
O360   O     0.92562   0.75376   0.30650   0.00000  Uiso   1.00
O361   O     0.66149   0.18089   0.03282   0.00000  Uiso   1.00
O362   O     0.43216   0.13550   0.08434   0.00000  Uiso   1.00
N363   N     0.79941   0.71066   0.28441   0.00000  Uiso   1.00
N364   N     0.61120   0.30241   0.08939   0.00000  Uiso   1.00
N365   N     0.44777   0.98264   0.12609   0.00000  Uiso   1.00
N366   N     0.90667   0.76034   0.23360   0.00000  Uiso   1.00
N367   N     0.71846   0.35209   0.03857   0.00000  Uiso   1.00
N368   N     0.55502   0.03233   0.07527   0.00000  Uiso   1.00
