data_job_07075
_audit_creation_date              2018-12-19
_audit_creation_method            'Materials Studio'
_symmetry_space_group_name_H-M    'P1'
_symmetry_Int_Tables_number       1
_symmetry_cell_setting            triclinic
loop_
_symmetry_equiv_pos_as_xyz
  x,y,z
_cell_length_a                    22.3582
_cell_length_b                    20.4965
_cell_length_c                    21.9788
_cell_angle_alpha                 114.9290
_cell_angle_beta                  99.4464
_cell_angle_gamma                 82.7447
loop_
_atom_site_label
_atom_site_type_symbol
_atom_site_fract_x
_atom_site_fract_y
_atom_site_fract_z
_atom_site_U_iso_or_equiv
_atom_site_adp_type
_atom_site_occupancy
C1     C     0.92528   0.45413   0.16013   0.00000  Uiso   1.00
C2     C     0.98192   0.45786   0.13166   0.00000  Uiso   1.00
C3     C     0.03575   0.48671   0.16946   0.00000  Uiso   1.00
C4     C     0.08226   0.48504   0.13392   0.00000  Uiso   1.00
C5     C     0.17128   0.49534   0.10049   0.00000  Uiso   1.00
C6     C     0.87356   0.49249   0.13075   0.00000  Uiso   1.00
C7     C     0.83628   0.55046   0.16779   0.00000  Uiso   1.00
C8     C     0.79158   0.57793   0.13148   0.00000  Uiso   1.00
C9     C     0.71234   0.64197   0.09664   0.00000  Uiso   1.00
C10    C     0.91137   0.37485   0.12866   0.00000  Uiso   1.00
C11    C     0.90587   0.33391   0.16394   0.00000  Uiso   1.00
C12    C     0.89298   0.26234   0.12587   0.00000  Uiso   1.00
C13    C     0.87244   0.14373   0.08778   0.00000  Uiso   1.00
C14    C     0.91216   0.39984   0.02981   0.00000  Uiso   1.00
C15    C     0.97479   0.42837   0.06088   0.00000  Uiso   1.00
C16    C     0.02123   0.42665   0.02528   0.00000  Uiso   1.00
C17    C     0.07512   0.45549   0.06301   0.00000  Uiso   1.00
C18    C     0.86643   0.46301   0.05998   0.00000  Uiso   1.00
C19    C     0.82176   0.49040   0.02361   0.00000  Uiso   1.00
C20    C     0.78443   0.54840   0.06057   0.00000  Uiso   1.00
C21    C     0.90424   0.34536   0.05788   0.00000  Uiso   1.00
C22    C     0.89135   0.27385   0.01976   0.00000  Uiso   1.00
C23    C     0.88583   0.23280   0.05496   0.00000  Uiso   1.00
H24    H     0.93083   0.47709   0.21523   0.00000  Uiso   1.00
H25    H     0.04125   0.50953   0.22423   0.00000  Uiso   1.00
H26    H     0.84181   0.57326   0.22256   0.00000  Uiso   1.00
H27    H     0.91139   0.35675   0.21871   0.00000  Uiso   1.00
H28    H     0.16052   0.53252   0.20300   0.00000  Uiso   1.00
H29    H     0.73997   0.66689   0.19947   0.00000  Uiso   1.00
H30    H     0.88669   0.21032   0.19135   0.00000  Uiso   1.00
H31    H     0.90661   0.37689   0.97471   0.00000  Uiso   1.00
H32    H     0.01570   0.40383   0.97051   0.00000  Uiso   1.00
H33    H     0.81626   0.46756   0.96883   0.00000  Uiso   1.00
H34    H     0.88584   0.25105   0.96498   0.00000  Uiso   1.00
H35    H     0.13978   0.44673   0.99706   0.00000  Uiso   1.00
H36    H     0.71924   0.58109   0.99353   0.00000  Uiso   1.00
H37    H     0.86595   0.12453   0.98541   0.00000  Uiso   1.00
O38    O     0.22234   0.50918   0.10161   0.00000  Uiso   1.00
O39    O     0.67060   0.68545   0.09698   0.00000  Uiso   1.00
O40    O     0.86309   0.08645   0.08633   0.00000  Uiso   1.00
N41    N     0.14067   0.50862   0.15511   0.00000  Uiso   1.00
N42    N     0.74749   0.63425   0.15181   0.00000  Uiso   1.00
N43    N     0.88464   0.20740   0.14422   0.00000  Uiso   1.00
N44    N     0.12951   0.46245   0.04429   0.00000  Uiso   1.00
N45    N     0.73634   0.58809   0.04099   0.00000  Uiso   1.00
N46    N     0.87349   0.16124   0.03340   0.00000  Uiso   1.00
C47    C     0.07031   0.08314   0.36947   0.00000  Uiso   1.00
C48    C     0.06553   0.16166   0.42010   0.00000  Uiso   1.00
C49    C     0.08302   0.22000   0.41228   0.00000  Uiso   1.00
C50    C     0.07497   0.28754   0.46436   0.00000  Uiso   1.00
C51    C     0.07133   0.40810   0.53420   0.00000  Uiso   1.00
C52    C     0.10794   0.04192   0.40793   0.00000  Uiso   1.00
C53    C     0.16108   0.99959   0.38989   0.00000  Uiso   1.00
C54    C     0.18872   0.96633   0.43172   0.00000  Uiso   1.00
C55    C     0.25089   0.90097   0.48266   0.00000  Uiso   1.00
C56    C     0.00636   0.05694   0.35327   0.00000  Uiso   1.00
C57    C     0.97411   0.02721   0.28926   0.00000  Uiso   1.00
C58    C     0.91624   0.00657   0.28507   0.00000  Uiso   1.00
C59    C     0.82070   0.96453   0.25112   0.00000  Uiso   1.00
C60    C     0.02491   0.09933   0.47584   0.00000  Uiso   1.00
C61    C     0.04087   0.17044   0.47788   0.00000  Uiso   1.00
C62    C     0.03279   0.23791   0.52998   0.00000  Uiso   1.00
C63    C     0.05026   0.29634   0.52224   0.00000  Uiso   1.00
C64    C     0.08328   0.05071   0.46571   0.00000  Uiso   1.00
C65    C     0.11084   0.01750   0.50758   0.00000  Uiso   1.00
C66    C     0.16402   0.97514   0.48961   0.00000  Uiso   1.00
C67    C     0.98170   0.06573   0.41105   0.00000  Uiso   1.00
C68    C     0.92387   0.04513   0.40696   0.00000  Uiso   1.00
C69    C     0.89153   0.01538   0.34295   0.00000  Uiso   1.00
H70    H     0.08952   0.07630   0.32448   0.00000  Uiso   1.00
H71    H     0.10211   0.21317   0.36756   0.00000  Uiso   1.00
H72    H     0.18015   0.99279   0.34517   0.00000  Uiso   1.00
H73    H     0.99321   0.02042   0.24456   0.00000  Uiso   1.00
H74    H     0.10522   0.36880   0.44081   0.00000  Uiso   1.00
H75    H     0.26976   0.90410   0.39358   0.00000  Uiso   1.00
H76    H     0.87555   0.96235   0.18142   0.00000  Uiso   1.00
H77    H     0.00571   0.10617   0.52083   0.00000  Uiso   1.00
H78    H     0.01370   0.24470   0.57469   0.00000  Uiso   1.00
H79    H     0.09174   0.02431   0.55229   0.00000  Uiso   1.00
H80    H     0.90480   0.05194   0.45168   0.00000  Uiso   1.00
H81    H     0.03347   0.39439   0.60893   0.00000  Uiso   1.00
H82    H     0.19800   0.92968   0.56169   0.00000  Uiso   1.00
H83    H     0.80380   0.98793   0.34953   0.00000  Uiso   1.00
O84    O     0.07613   0.47218   0.55677   0.00000  Uiso   1.00
O85    O     0.29199   0.86250   0.49479   0.00000  Uiso   1.00
O86    O     0.77481   0.93892   0.21644   0.00000  Uiso   1.00
N87    N     0.08723   0.35582   0.47298   0.00000  Uiso   1.00
N88    N     0.24106   0.92136   0.42883   0.00000  Uiso   1.00
N89    N     0.87252   0.97579   0.23048   0.00000  Uiso   1.00
N90    N     0.04861   0.36958   0.56344   0.00000  Uiso   1.00
N91    N     0.20245   0.93512   0.51929   0.00000  Uiso   1.00
N92    N     0.83391   0.98956   0.32093   0.00000  Uiso   1.00
C93    C     0.30622   0.22056   0.99651   0.00000  Uiso   1.00
C94    C     0.31683   0.22120   0.06709   0.00000  Uiso   1.00
C95    C     0.27292   0.23756   0.11014   0.00000  Uiso   1.00
C96    C     0.29177   0.23515   0.17261   0.00000  Uiso   1.00
C97    C     0.29904   0.23893   0.27937   0.00000  Uiso   1.00
C98    C     0.35006   0.27214   0.99708   0.00000  Uiso   1.00
C99    C     0.33408   0.33133   0.98125   0.00000  Uiso   1.00
C100   C     0.38090   0.37179   0.98478   0.00000  Uiso   1.00
C101   C     0.43976   0.45464   0.98280   0.00000  Uiso   1.00
C102   C     0.32821   0.14546   0.94895   0.00000  Uiso   1.00
C103   C     0.29386   0.09814   0.89264   0.00000  Uiso   1.00
C104   C     0.32229   0.03194   0.85564   0.00000  Uiso   1.00
C105   C     0.34723   0.91809   0.77893   0.00000  Uiso   1.00
C106   C     0.41777   0.18715   0.03091   0.00000  Uiso   1.00
C107   C     0.37743   0.20305   0.08577   0.00000  Uiso   1.00
C108   C     0.39635   0.20060   0.14819   0.00000  Uiso   1.00
C109   C     0.35247   0.21696   0.19133   0.00000  Uiso   1.00
C110   C     0.41065   0.25400   0.01576   0.00000  Uiso   1.00
C111   C     0.45750   0.29437   0.01931   0.00000  Uiso   1.00
C112   C     0.44160   0.35362   0.00350   0.00000  Uiso   1.00
C113   C     0.38880   0.12731   0.96763   0.00000  Uiso   1.00
C114   C     0.41729   0.06118   0.93070   0.00000  Uiso   1.00
C115   C     0.38300   0.01377   0.87436   0.00000  Uiso   1.00
H116   H     0.25904   0.23469   0.98197   0.00000  Uiso   1.00
H117   H     0.22603   0.25161   0.09566   0.00000  Uiso   1.00
H118   H     0.28718   0.34536   0.96679   0.00000  Uiso   1.00
H119   H     0.24698   0.11220   0.87820   0.00000  Uiso   1.00
H120   H     0.21616   0.26240   0.22996   0.00000  Uiso   1.00
H121   H     0.34510   0.46006   0.95821   0.00000  Uiso   1.00
H122   H     0.26032   0.96839   0.77140   0.00000  Uiso   1.00
H123   H     0.46495   0.17302   0.04545   0.00000  Uiso   1.00
H124   H     0.44324   0.18656   0.16263   0.00000  Uiso   1.00
H125   H     0.50439   0.28031   0.03376   0.00000  Uiso   1.00
H126   H     0.46418   0.04715   0.94517   0.00000  Uiso   1.00
H127   H     0.39246   0.20960   0.28432   0.00000  Uiso   1.00
H128   H     0.52140   0.40726   0.01256   0.00000  Uiso   1.00
H129   H     0.43661   0.91560   0.82576   0.00000  Uiso   1.00
O130   O     0.28632   0.24604   0.33309   0.00000  Uiso   1.00
O131   O     0.45548   0.50535   0.97655   0.00000  Uiso   1.00
O132   O     0.34424   0.86030   0.73146   0.00000  Uiso   1.00
N133   N     0.26063   0.24810   0.22667   0.00000  Uiso   1.00
N134   N     0.38118   0.43291   0.97261   0.00000  Uiso   1.00
N135   N     0.30192   0.97325   0.79794   0.00000  Uiso   1.00
N136   N     0.35549   0.21969   0.25592   0.00000  Uiso   1.00
N137   N     0.47604   0.40450   0.00186   0.00000  Uiso   1.00
N138   N     0.39678   0.94484   0.82719   0.00000  Uiso   1.00
C139   C     0.35341   0.66040   0.87320   0.00000  Uiso   1.00
C140   C     0.42047   0.65390   0.89924   0.00000  Uiso   1.00
C141   C     0.46762   0.62614   0.85961   0.00000  Uiso   1.00
C142   C     0.52581   0.62486   0.89307   0.00000  Uiso   1.00
C143   C     0.62832   0.61091   0.92277   0.00000  Uiso   1.00
C144   C     0.33279   0.73974   0.90877   0.00000  Uiso   1.00
C145   C     0.30621   0.78415   0.87714   0.00000  Uiso   1.00
C146   C     0.29059   0.85513   0.91862   0.00000  Uiso   1.00
C147   C     0.25694   0.97443   0.96312   0.00000  Uiso   1.00
C148   C     0.32033   0.61983   0.90061   0.00000  Uiso   1.00
C149   C     0.28327   0.56343   0.86212   0.00000  Uiso   1.00
C150   C     0.25714   0.53346   0.89674   0.00000  Uiso   1.00
C151   C     0.20415   0.46659   0.92857   0.00000  Uiso   1.00
C152   C     0.37291   0.70747   0.00310   0.00000  Uiso   1.00
C153   C     0.43106   0.67947   0.96980   0.00000  Uiso   1.00
C154   C     0.48919   0.67823   0.00332   0.00000  Uiso   1.00
C155   C     0.53642   0.65047   0.96375   0.00000  Uiso   1.00
C156   C     0.34338   0.76531   0.97932   0.00000  Uiso   1.00
C157   C     0.32778   0.83623   0.02086   0.00000  Uiso   1.00
C158   C     0.30119   0.88074   0.98930   0.00000  Uiso   1.00
C159   C     0.33092   0.64540   0.97116   0.00000  Uiso   1.00
C160   C     0.30484   0.61551   0.00584   0.00000  Uiso   1.00
C161   C     0.26774   0.55908   0.96742   0.00000  Uiso   1.00
H162   H     0.34517   0.64050   0.81827   0.00000  Uiso   1.00
H163   H     0.45941   0.60637   0.80501   0.00000  Uiso   1.00
H164   H     0.29802   0.76435   0.82254   0.00000  Uiso   1.00
H165   H     0.27508   0.54366   0.80753   0.00000  Uiso   1.00
H166   H     0.59074   0.57983   0.82142   0.00000  Uiso   1.00
H167   H     0.25043   0.91293   0.85839   0.00000  Uiso   1.00
H168   H     0.20205   0.44757   0.82673   0.00000  Uiso   1.00
H169   H     0.38115   0.72738   0.05803   0.00000  Uiso   1.00
H170   H     0.49737   0.69802   0.05793   0.00000  Uiso   1.00
H171   H     0.33598   0.85600   0.07545   0.00000  Uiso   1.00
H172   H     0.31304   0.63532   0.06044   0.00000  Uiso   1.00
H173   H     0.62155   0.65422   0.02670   0.00000  Uiso   1.00
H174   H     0.28123   0.98732   0.06366   0.00000  Uiso   1.00
H175   H     0.23286   0.52196   0.03201   0.00000  Uiso   1.00
O176   O     0.68195   0.59616   0.91967   0.00000  Uiso   1.00
O177   O     0.23546   0.03317   0.96816   0.00000  Uiso   1.00
O178   O     0.17200   0.42263   0.92663   0.00000  Uiso   1.00
N179   N     0.58204   0.60135   0.86975   0.00000  Uiso   1.00
N180   N     0.26387   0.91279   0.90431   0.00000  Uiso   1.00
N181   N     0.21864   0.47773   0.87471   0.00000  Uiso   1.00
N182   N     0.59862   0.64138   0.98021   0.00000  Uiso   1.00
N183   N     0.28045   0.95282   0.01477   0.00000  Uiso   1.00
N184   N     0.23522   0.51776   0.98517   0.00000  Uiso   1.00
C185   C     0.50725   0.98306   0.36574   0.00000  Uiso   1.00
C186   C     0.50790   0.00761   0.44168   0.00000  Uiso   1.00
C187   C     0.52146   0.96376   0.47662   0.00000  Uiso   1.00
C188   C     0.51958   0.99652   0.54597   0.00000  Uiso   1.00
C189   C     0.52287   0.02339   0.65886   0.00000  Uiso   1.00
C190   C     0.55098   0.02936   0.35754   0.00000  Uiso   1.00
C191   C     0.60077   0.00380   0.32171   0.00000  Uiso   1.00
C192   C     0.63514   0.05487   0.32023   0.00000  Uiso   1.00
C193   C     0.70531   0.11551   0.30244   0.00000  Uiso   1.00
C194   C     0.44406   0.00552   0.33984   0.00000  Uiso   1.00
C195   C     0.40394   0.95992   0.28912   0.00000  Uiso   1.00
C196   C     0.34829   0.99093   0.27272   0.00000  Uiso   1.00
C197   C     0.25244   0.01456   0.22745   0.00000  Uiso   1.00
C198   C     0.47977   0.11923   0.42679   0.00000  Uiso   1.00
C199   C     0.49297   0.08157   0.47484   0.00000  Uiso   1.00
C200   C     0.49106   0.11441   0.54417   0.00000  Uiso   1.00
C201   C     0.50462   0.07061   0.57920   0.00000  Uiso   1.00
C202   C     0.53606   0.10332   0.39070   0.00000  Uiso   1.00
C203   C     0.57036   0.15444   0.38927   0.00000  Uiso   1.00
C204   C     0.62019   0.12896   0.35346   0.00000  Uiso   1.00
C205   C     0.42913   0.07948   0.37300   0.00000  Uiso   1.00
C206   C     0.37353   0.11057   0.35668   0.00000  Uiso   1.00
C207   C     0.33334   0.06502   0.30595   0.00000  Uiso   1.00
H208   H     0.51888   0.92548   0.33992   0.00000  Uiso   1.00
H209   H     0.53302   0.90652   0.45093   0.00000  Uiso   1.00
H210   H     0.61231   0.94656   0.29605   0.00000  Uiso   1.00
H211   H     0.41551   0.90269   0.26347   0.00000  Uiso   1.00
H212   H     0.54214   0.91813   0.58864   0.00000  Uiso   1.00
H213   H     0.70931   0.00254   0.26205   0.00000  Uiso   1.00
H214   H     0.29432   0.91003   0.19333   0.00000  Uiso   1.00
H215   H     0.46815   0.17681   0.45261   0.00000  Uiso   1.00
H216   H     0.47951   0.17164   0.56982   0.00000  Uiso   1.00
H217   H     0.55880   0.21167   0.41494   0.00000  Uiso   1.00
H218   H     0.36200   0.16780   0.38235   0.00000  Uiso   1.00
H219   H     0.49871   0.13330   0.68514   0.00000  Uiso   1.00
H220   H     0.66588   0.21772   0.35854   0.00000  Uiso   1.00
H221   H     0.25089   0.12521   0.28982   0.00000  Uiso   1.00
O222   O     0.52883   0.01779   0.71196   0.00000  Uiso   1.00
O223   O     0.74814   0.12853   0.28347   0.00000  Uiso   1.00
O224   O     0.20368   0.00716   0.19332   0.00000  Uiso   1.00
N225   N     0.53034   0.96947   0.59527   0.00000  Uiso   1.00
N226   N     0.68664   0.04840   0.28993   0.00000  Uiso   1.00
N227   N     0.29867   0.96191   0.22567   0.00000  Uiso   1.00
N228   N     0.50697   0.08526   0.64719   0.00000  Uiso   1.00
N229   N     0.66327   0.16418   0.34185   0.00000  Uiso   1.00
N230   N     0.27530   0.07769   0.27759   0.00000  Uiso   1.00
C231   C     0.82453   0.76297   0.60476   0.00000  Uiso   1.00
C232   C     0.84838   0.83248   0.66069   0.00000  Uiso   1.00
C233   C     0.81510   0.88466   0.70900   0.00000  Uiso   1.00
C234   C     0.84517   0.94435   0.75585   0.00000  Uiso   1.00
C235   C     0.87290   0.05118   0.84293   0.00000  Uiso   1.00
C236   C     0.86640   0.70180   0.61320   0.00000  Uiso   1.00
C237   C     0.84828   0.64409   0.62158   0.00000  Uiso   1.00
C238   C     0.89352   0.59376   0.62844   0.00000  Uiso   1.00
C239   C     0.94923   0.49767   0.64175   0.00000  Uiso   1.00
C240   C     0.83598   0.76369   0.53854   0.00000  Uiso   1.00
C241   C     0.79227   0.75800   0.48413   0.00000  Uiso   1.00
C242   C     0.81191   0.75976   0.42813   0.00000  Uiso   1.00
C243   C     0.82037   0.75976   0.32552   0.00000  Uiso   1.00
C244   C     0.93711   0.77619   0.60204   0.00000  Uiso   1.00
C245   C     0.90953   0.83966   0.65921   0.00000  Uiso   1.00
C246   C     0.93966   0.89929   0.70600   0.00000  Uiso   1.00
C247   C     0.90643   0.95155   0.75437   0.00000  Uiso   1.00
C248   C     0.92755   0.70897   0.61173   0.00000  Uiso   1.00
C249   C     0.97283   0.65872   0.61857   0.00000  Uiso   1.00
C250   C     0.95478   0.60095   0.62697   0.00000  Uiso   1.00
C251   C     0.89712   0.77087   0.53706   0.00000  Uiso   1.00
C252   C     0.91683   0.77263   0.48113   0.00000  Uiso   1.00
C253   C     0.87317   0.76695   0.42665   0.00000  Uiso   1.00
H254   H     0.77693   0.75738   0.60591   0.00000  Uiso   1.00
H255   H     0.76778   0.87908   0.71013   0.00000  Uiso   1.00
H256   H     0.80095   0.63855   0.62271   0.00000  Uiso   1.00
H257   H     0.74496   0.75245   0.48529   0.00000  Uiso   1.00
H258   H     0.78461   0.01717   0.82504   0.00000  Uiso   1.00
H259   H     0.85455   0.50997   0.64069   0.00000  Uiso   1.00
H260   H     0.73648   0.75015   0.35091   0.00000  Uiso   1.00
H261   H     0.98472   0.78178   0.60090   0.00000  Uiso   1.00
H262   H     0.98698   0.90483   0.70484   0.00000  Uiso   1.00
H263   H     0.02014   0.66429   0.61743   0.00000  Uiso   1.00
H264   H     0.96415   0.77819   0.48001   0.00000  Uiso   1.00
H265   H     0.96252   0.03806   0.82075   0.00000  Uiso   1.00
H266   H     0.03246   0.53086   0.63640   0.00000  Uiso   1.00
H267   H     0.91438   0.77104   0.34662   0.00000  Uiso   1.00
O268   O     0.87131   0.10811   0.89138   0.00000  Uiso   1.00
O269   O     0.96306   0.44268   0.64951   0.00000  Uiso   1.00
O270   O     0.80815   0.75779   0.26933   0.00000  Uiso   1.00
N271   N     0.82617   0.00521   0.80976   0.00000  Uiso   1.00
N272   N     0.89156   0.53101   0.63742   0.00000  Uiso   1.00
N273   N     0.78117   0.75554   0.36649   0.00000  Uiso   1.00
N274   N     0.92190   0.01645   0.80745   0.00000  Uiso   1.00
N275   N     0.98729   0.54226   0.63511   0.00000  Uiso   1.00
N276   N     0.87690   0.76678   0.36418   0.00000  Uiso   1.00
C277   C     0.07507   0.63427   0.83859   0.00000  Uiso   1.00
C278   C     0.00862   0.66252   0.83829   0.00000  Uiso   1.00
C279   C     0.97981   0.70230   0.80282   0.00000  Uiso   1.00
C280   C     0.91879   0.72306   0.80915   0.00000  Uiso   1.00
C281   C     0.82032   0.76969   0.80251   0.00000  Uiso   1.00
C282   C     0.07472   0.55299   0.81588   0.00000  Uiso   1.00
C283   C     0.10151   0.50069   0.76157   0.00000  Uiso   1.00
C284   C     0.09614   0.42926   0.74905   0.00000  Uiso   1.00
C285   C     0.10034   0.30585   0.70765   0.00000  Uiso   1.00
C286   C     0.10270   0.66408   0.91254   0.00000  Uiso   1.00
C287   C     0.15303   0.70517   0.93951   0.00000  Uiso   1.00
C288   C     0.17123   0.72725   0.00837   0.00000  Uiso   1.00
C289   C     0.21888   0.77633   0.11705   0.00000  Uiso   1.00
C290   C     0.01793   0.60040   0.91292   0.00000  Uiso   1.00
C291   C     0.97758   0.64412   0.87866   0.00000  Uiso   1.00
C292   C     0.91659   0.66483   0.88505   0.00000  Uiso   1.00
C293   C     0.88769   0.70464   0.84960   0.00000  Uiso   1.00
C294   C     0.04369   0.53459   0.85624   0.00000  Uiso   1.00
C295   C     0.03829   0.46322   0.84380   0.00000  Uiso   1.00
C296   C     0.06505   0.41083   0.78949   0.00000  Uiso   1.00
C297   C     0.07167   0.64569   0.95291   0.00000  Uiso   1.00
C298   C     0.08980   0.66770   0.02174   0.00000  Uiso   1.00
C299   C     0.14014   0.70882   0.04881   0.00000  Uiso   1.00
H300   H     0.09923   0.64859   0.80716   0.00000  Uiso   1.00
H301   H     0.00384   0.71652   0.77158   0.00000  Uiso   1.00
H302   H     0.12552   0.51495   0.73035   0.00000  Uiso   1.00
H303   H     0.17703   0.71940   0.90826   0.00000  Uiso   1.00
H304   H     0.88439   0.78370   0.74991   0.00000  Uiso   1.00
H305   H     0.14098   0.35867   0.66298   0.00000  Uiso   1.00
H306   H     0.24960   0.78980   0.03814   0.00000  Uiso   1.00
H307   H     0.99376   0.58607   0.94435   0.00000  Uiso   1.00
H308   H     0.89258   0.65058   0.91629   0.00000  Uiso   1.00
H309   H     0.01427   0.44900   0.87505   0.00000  Uiso   1.00
H310   H     0.06577   0.65345   0.05296   0.00000  Uiso   1.00
H311   H     0.79408   0.73018   0.86736   0.00000  Uiso   1.00
H312   H     0.05069   0.30515   0.78043   0.00000  Uiso   1.00
H313   H     0.15930   0.73627   0.15559   0.00000  Uiso   1.00
O314   O     0.77457   0.80048   0.78769   0.00000  Uiso   1.00
O315   O     0.11123   0.24286   0.67365   0.00000  Uiso   1.00
O316   O     0.25373   0.80849   0.16584   0.00000  Uiso   1.00
N317   N     0.87702   0.76227   0.78141   0.00000  Uiso   1.00
N318   N     0.11692   0.36489   0.70013   0.00000  Uiso   1.00
N319   N     0.21847   0.76794   0.05087   0.00000  Uiso   1.00
N320   N     0.82843   0.73347   0.84461   0.00000  Uiso   1.00
N321   N     0.06833   0.33609   0.76333   0.00000  Uiso   1.00
N322   N     0.16988   0.73914   0.11407   0.00000  Uiso   1.00
C323   C     0.79925   0.19330   0.75427   0.00000  Uiso   1.00
C324   C     0.77612   0.12674   0.69358   0.00000  Uiso   1.00
C325   C     0.74427   0.07412   0.69592   0.00000  Uiso   1.00
C326   C     0.72712   0.01746   0.63483   0.00000  Uiso   1.00
C327   C     0.68902   0.91471   0.54991   0.00000  Uiso   1.00
C328   C     0.77209   0.25790   0.73939   0.00000  Uiso   1.00
C329   C     0.73685   0.31556   0.78024   0.00000  Uiso   1.00
C330   C     0.71630   0.36931   0.75771   0.00000  Uiso   1.00
C331   C     0.67197   0.47021   0.74392   0.00000  Uiso   1.00
C332   C     0.86747   0.19045   0.75263   0.00000  Uiso   1.00
C333   C     0.91244   0.19141   0.80463   0.00000  Uiso   1.00
C334   C     0.97221   0.18840   0.79325   0.00000  Uiso   1.00
C335   C     0.07598   0.18457   0.80002   0.00000  Uiso   1.00
C336   C     0.82543   0.18626   0.64161   0.00000  Uiso   1.00
C337   C     0.79034   0.12292   0.63239   0.00000  Uiso   1.00
C338   C     0.77324   0.06633   0.57128   0.00000  Uiso   1.00
C339   C     0.74137   0.01363   0.57353   0.00000  Uiso   1.00
C340   C     0.78630   0.25407   0.67820   0.00000  Uiso   1.00
C341   C     0.76581   0.30776   0.65560   0.00000  Uiso   1.00
C342   C     0.73055   0.36548   0.69641   0.00000  Uiso   1.00
C343   C     0.88170   0.18662   0.69144   0.00000  Uiso   1.00
C344   C     0.94140   0.18361   0.67998   0.00000  Uiso   1.00
C345   C     0.98645   0.18457   0.73195   0.00000  Uiso   1.00
H346   H     0.78818   0.19629   0.80191   0.00000  Uiso   1.00
H347   H     0.73327   0.07711   0.74329   0.00000  Uiso   1.00
H348   H     0.72585   0.31850   0.82760   0.00000  Uiso   1.00
H349   H     0.90142   0.19437   0.85197   0.00000  Uiso   1.00
H350   H     0.67865   0.94329   0.65131   0.00000  Uiso   1.00
H351   H     0.66303   0.45231   0.82909   0.00000  Uiso   1.00
H352   H     0.03324   0.19056   0.88049   0.00000  Uiso   1.00
H353   H     0.83650   0.18328   0.59397   0.00000  Uiso   1.00
H354   H     0.78425   0.06338   0.52393   0.00000  Uiso   1.00
H355   H     0.77683   0.30478   0.60824   0.00000  Uiso   1.00
H356   H     0.95239   0.18065   0.63262   0.00000  Uiso   1.00
H357   H     0.72002   0.93216   0.47327   0.00000  Uiso   1.00
H358   H     0.70440   0.44118   0.65106   0.00000  Uiso   1.00
H359   H     0.07461   0.17942   0.70246   0.00000  Uiso   1.00
O360   O     0.66407   0.85910   0.51997   0.00000  Uiso   1.00
O361   O     0.64359   0.52691   0.75322   0.00000  Uiso   1.00
O362   O     0.12929   0.18350   0.82066   0.00000  Uiso   1.00
N363   N     0.69557   0.95712   0.61902   0.00000  Uiso   1.00
N364   N     0.68095   0.43301   0.78523   0.00000  Uiso   1.00
N365   N     0.02707   0.18832   0.83330   0.00000  Uiso   1.00
N366   N     0.71783   0.95113   0.52322   0.00000  Uiso   1.00
N367   N     0.70322   0.42702   0.68943   0.00000  Uiso   1.00
N368   N     0.04933   0.18233   0.73750   0.00000  Uiso   1.00
C369   C     0.67943   0.00170   0.06046   0.00000  Uiso   1.00
C370   C     0.66187   0.99112   0.98702   0.00000  Uiso   1.00
C371   C     0.69608   0.95167   0.93431   0.00000  Uiso   1.00
C372   C     0.67211   0.94847   0.87078   0.00000  Uiso   1.00
C373   C     0.65336   0.92668   0.75831   0.00000  Uiso   1.00
C374   C     0.62733   0.97519   0.07913   0.00000  Uiso   1.00
C375   C     0.63251   0.92236   0.10388   0.00000  Uiso   1.00
C376   C     0.57946   0.90576   0.11789   0.00000  Uiso   1.00
C377   C     0.50710   0.85927   0.14847   0.00000  Uiso   1.00
C378   C     0.67822   0.08297   0.10215   0.00000  Uiso   1.00
C379   C     0.72619   0.12077   0.14628   0.00000  Uiso   1.00
C380   C     0.71598   0.19492   0.17969   0.00000  Uiso   1.00
C381   C     0.72264   0.31579   0.24601   0.00000  Uiso   1.00
C382   C     0.57600   0.06617   0.04135   0.00000  Uiso   1.00
C383   C     0.60569   0.02613   0.97664   0.00000  Uiso   1.00
C384   C     0.58165   0.02300   0.91317   0.00000  Uiso   1.00
C385   C     0.61583   0.98356   0.86038   0.00000  Uiso   1.00
C386   C     0.57115   0.01020   0.06875   0.00000  Uiso   1.00
C387   C     0.51808   0.99368   0.08273   0.00000  Uiso   1.00
C388   C     0.52318   0.94084   0.10749   0.00000  Uiso   1.00
C389   C     0.62204   0.11799   0.09177   0.00000  Uiso   1.00
C390   C     0.61175   0.19210   0.12512   0.00000  Uiso   1.00
C391   C     0.65970   0.23000   0.16929   0.00000  Uiso   1.00
H392   H     0.72317   0.97444   0.06855   0.00000  Uiso   1.00
H393   H     0.73956   0.92457   0.94237   0.00000  Uiso   1.00
H394   H     0.67599   0.89527   0.11191   0.00000  Uiso   1.00
H395   H     0.76966   0.09365   0.15430   0.00000  Uiso   1.00
H396   H     0.73294   0.88471   0.79789   0.00000  Uiso   1.00
H397   H     0.59891   0.82294   0.15540   0.00000  Uiso   1.00
H398   H     0.79643   0.24127   0.24479   0.00000  Uiso   1.00
H399   H     0.53226   0.09343   0.03327   0.00000  Uiso   1.00
H400   H     0.53817   0.05010   0.90515   0.00000  Uiso   1.00
H401   H     0.47461   0.02080   0.07469   0.00000  Uiso   1.00
H402   H     0.56827   0.21918   0.11708   0.00000  Uiso   1.00
H403   H     0.56949   0.98659   0.76768   0.00000  Uiso   1.00
H404   H     0.43546   0.92482   0.12520   0.00000  Uiso   1.00
H405   H     0.63297   0.34316   0.21458   0.00000  Uiso   1.00
O406   O     0.65854   0.90498   0.69914   0.00000  Uiso   1.00
O407   O     0.48271   0.82395   0.16819   0.00000  Uiso   1.00
O408   O     0.74184   0.37279   0.28546   0.00000  Uiso   1.00
N409   N     0.69367   0.91465   0.80837   0.00000  Uiso   1.00
N410   N     0.56836   0.85689   0.14261   0.00000  Uiso   1.00
N411   N     0.75301   0.24799   0.22619   0.00000  Uiso   1.00
N412   N     0.60571   0.96947   0.79211   0.00000  Uiso   1.00
N413   N     0.48041   0.91171   0.12635   0.00000  Uiso   1.00
N414   N     0.66506   0.30281   0.20993   0.00000  Uiso   1.00
C415   C     0.59969   0.52055   0.23212   0.00000  Uiso   1.00
C416   C     0.53297   0.50406   0.21883   0.00000  Uiso   1.00
C417   C     0.50615   0.47012   0.24938   0.00000  Uiso   1.00
C418   C     0.44450   0.45999   0.23037   0.00000  Uiso   1.00
C419   C     0.34602   0.43086   0.21699   0.00000  Uiso   1.00
C420   C     0.62353   0.48501   0.16357   0.00000  Uiso   1.00
C421   C     0.67286   0.43506   0.14766   0.00000  Uiso   1.00
C422   C     0.68745   0.40890   0.08212   0.00000  Uiso   1.00
C423   C     0.72959   0.35023   0.98296   0.00000  Uiso   1.00
C424   C     0.60022   0.60160   0.25358   0.00000  Uiso   1.00
C425   C     0.62995   0.64968   0.31335   0.00000  Uiso   1.00
C426   C     0.62492   0.72169   0.32359   0.00000  Uiso   1.00
C427   C     0.63086   0.84405   0.36419   0.00000  Uiso   1.00
C428   C     0.53791   0.56292   0.14403   0.00000  Uiso   1.00
C429   C     0.49942   0.52707   0.17098   0.00000  Uiso   1.00
C430   C     0.43780   0.51700   0.15192   0.00000  Uiso   1.00
C431   C     0.41088   0.48305   0.18244   0.00000  Uiso   1.00
C432   C     0.58998   0.50802   0.11572   0.00000  Uiso   1.00
C433   C     0.60450   0.48194   0.05019   0.00000  Uiso   1.00
C434   C     0.65383   0.43195   0.03418   0.00000  Uiso   1.00
C435   C     0.56666   0.62462   0.20573   0.00000  Uiso   1.00
C436   C     0.56159   0.69656   0.21588   0.00000  Uiso   1.00
C437   C     0.59130   0.74475   0.27565   0.00000  Uiso   1.00
H438   H     0.62581   0.50263   0.26937   0.00000  Uiso   1.00
H439   H     0.53213   0.45231   0.28641   0.00000  Uiso   1.00
H440   H     0.69882   0.41726   0.18470   0.00000  Uiso   1.00
H441   H     0.65591   0.63185   0.35036   0.00000  Uiso   1.00
H442   H     0.41348   0.40665   0.28418   0.00000  Uiso   1.00
H443   H     0.76495   0.33277   0.06972   0.00000  Uiso   1.00
H444   H     0.67448   0.78528   0.41906   0.00000  Uiso   1.00
H445   H     0.51178   0.58084   0.10677   0.00000  Uiso   1.00
H446   H     0.41184   0.53481   0.11489   0.00000  Uiso   1.00
H447   H     0.57853   0.49976   0.01318   0.00000  Uiso   1.00
H448   H     0.53562   0.71435   0.17884   0.00000  Uiso   1.00
H449   H     0.31584   0.47361   0.14496   0.00000  Uiso   1.00
H450   H     0.66732   0.39973   0.93051   0.00000  Uiso   1.00
H451   H     0.57684   0.85224   0.27985   0.00000  Uiso   1.00
O452   O     0.30098   0.40842   0.22283   0.00000  Uiso   1.00
O453   O     0.76211   0.31150   0.94148   0.00000  Uiso   1.00
O454   O     0.64340   0.90518   0.39980   0.00000  Uiso   1.00
N455   N     0.40421   0.42874   0.25031   0.00000  Uiso   1.00
N456   N     0.73282   0.35965   0.04980   0.00000  Uiso   1.00
N457   N     0.64824   0.78271   0.37640   0.00000  Uiso   1.00
N458   N     0.35168   0.46477   0.17540   0.00000  Uiso   1.00
N459   N     0.68028   0.39568   0.97490   0.00000  Uiso   1.00
N460   N     0.59571   0.81874   0.30149   0.00000  Uiso   1.00
C461   C     0.30544   0.34245   0.72032   0.00000  Uiso   1.00
C462   C     0.29116   0.34715   0.65196   0.00000  Uiso   1.00
C463   C     0.24958   0.39631   0.63715   0.00000  Uiso   1.00
C464   C     0.24309   0.39178   0.57160   0.00000  Uiso   1.00
C465   C     0.21573   0.40694   0.47289   0.00000  Uiso   1.00
C466   C     0.29419   0.26554   0.70723   0.00000  Uiso   1.00
C467   C     0.25516   0.24607   0.73889   0.00000  Uiso   1.00
C468   C     0.25123   0.17284   0.71986   0.00000  Uiso   1.00
C469   C     0.22862   0.06129   0.70698   0.00000  Uiso   1.00
C470   C     0.37375   0.34925   0.74004   0.00000  Uiso   1.00
C471   C     0.40162   0.40017   0.79931   0.00000  Uiso   1.00
C472   C     0.46467   0.39741   0.80792   0.00000  Uiso   1.00
C473   C     0.56558   0.41585   0.84600   0.00000  Uiso   1.00
C474   C     0.36786   0.24700   0.63024   0.00000  Uiso   1.00
C475   C     0.32506   0.29530   0.60303   0.00000  Uiso   1.00
C476   C     0.31864   0.29070   0.53748   0.00000  Uiso   1.00
C477   C     0.27705   0.33984   0.52258   0.00000  Uiso   1.00
C478   C     0.32809   0.21369   0.65830   0.00000  Uiso   1.00
C479   C     0.32422   0.14047   0.63922   0.00000  Uiso   1.00
C480   C     0.28520   0.12090   0.67084   0.00000  Uiso   1.00
C481   C     0.40765   0.29741   0.69111   0.00000  Uiso   1.00
C482   C     0.47068   0.29457   0.69964   0.00000  Uiso   1.00
C483   C     0.49864   0.34547   0.75890   0.00000  Uiso   1.00
H484   H     0.27904   0.38281   0.75842   0.00000  Uiso   1.00
H485   H     0.22334   0.43642   0.67503   0.00000  Uiso   1.00
H486   H     0.22894   0.28621   0.77676   0.00000  Uiso   1.00
H487   H     0.37537   0.44028   0.83716   0.00000  Uiso   1.00
H488   H     0.17652   0.47297   0.56100   0.00000  Uiso   1.00
H489   H     0.18833   0.15624   0.77551   0.00000  Uiso   1.00
H490   H     0.49711   0.48114   0.90289   0.00000  Uiso   1.00
H491   H     0.39426   0.20663   0.59214   0.00000  Uiso   1.00
H492   H     0.34488   0.25057   0.49963   0.00000  Uiso   1.00
H493   H     0.35047   0.10036   0.60135   0.00000  Uiso   1.00
H494   H     0.49690   0.25444   0.66176   0.00000  Uiso   1.00
H495   H     0.27516   0.32213   0.41863   0.00000  Uiso   1.00
H496   H     0.28697   0.00540   0.63315   0.00000  Uiso   1.00
H497   H     0.59575   0.33030   0.76052   0.00000  Uiso   1.00
O498   O     0.19126   0.42961   0.43196   0.00000  Uiso   1.00
O499   O     0.20677   0.01409   0.71339   0.00000  Uiso   1.00
O500   O     0.61187   0.44034   0.88051   0.00000  Uiso   1.00
N501   N     0.20652   0.43145   0.54019   0.00000  Uiso   1.00
N502   N     0.21756   0.13533   0.74074   0.00000  Uiso   1.00
N503   N     0.50624   0.43906   0.85984   0.00000  Uiso   1.00
N504   N     0.25960   0.35028   0.46359   0.00000  Uiso   1.00
N505   N     0.27064   0.05416   0.66413   0.00000  Uiso   1.00
N506   N     0.55932   0.35790   0.78323   0.00000  Uiso   1.00
C507   C     0.20341   0.69124   0.40120   0.00000  Uiso   1.00
C508   C     0.17800   0.61695   0.37134   0.00000  Uiso   1.00
C509   C     0.21073   0.55162   0.34178   0.00000  Uiso   1.00
C510   C     0.17920   0.48962   0.31746   0.00000  Uiso   1.00
C511   C     0.14918   0.37377   0.27030   0.00000  Uiso   1.00
C512   C     0.16465   0.73361   0.36452   0.00000  Uiso   1.00
C513   C     0.18616   0.76636   0.32923   0.00000  Uiso   1.00
C514   C     0.14339   0.80256   0.29919   0.00000  Uiso   1.00
C515   C     0.09266   0.86787   0.24147   0.00000  Uiso   1.00
C516   C     0.18931   0.72732   0.47416   0.00000  Uiso   1.00
C517   C     0.23154   0.75481   0.53106   0.00000  Uiso   1.00
C518   C     0.20953   0.78575   0.59333   0.00000  Uiso   1.00
C519   C     0.19707   0.84129   0.70585   0.00000  Uiso   1.00
C520   C     0.08921   0.69731   0.41058   0.00000  Uiso   1.00
C521   C     0.11597   0.62026   0.37644   0.00000  Uiso   1.00
C522   C     0.08439   0.55834   0.35216   0.00000  Uiso   1.00
C523   C     0.11706   0.49292   0.32258   0.00000  Uiso   1.00
C524   C     0.10263   0.73691   0.36961   0.00000  Uiso   1.00
C525   C     0.05982   0.77308   0.33962   0.00000  Uiso   1.00
C526   C     0.08126   0.80587   0.30429   0.00000  Uiso   1.00
C527   C     0.12728   0.73062   0.47926   0.00000  Uiso   1.00
C528   C     0.10520   0.76153   0.54145   0.00000  Uiso   1.00
C529   C     0.14739   0.78905   0.59844   0.00000  Uiso   1.00
H530   H     0.25169   0.68868   0.39722   0.00000  Uiso   1.00
H531   H     0.25873   0.54909   0.33784   0.00000  Uiso   1.00
H532   H     0.23416   0.76380   0.32530   0.00000  Uiso   1.00
H533   H     0.27954   0.75225   0.52710   0.00000  Uiso   1.00
H534   H     0.23916   0.39579   0.27422   0.00000  Uiso   1.00
H535   H     0.18737   0.84854   0.24781   0.00000  Uiso   1.00
H536   H     0.28305   0.82419   0.67334   0.00000  Uiso   1.00
H537   H     0.04092   0.69988   0.41455   0.00000  Uiso   1.00
H538   H     0.03639   0.56091   0.35612   0.00000  Uiso   1.00
H539   H     0.01183   0.77562   0.34358   0.00000  Uiso   1.00
H540   H     0.05720   0.76407   0.54538   0.00000  Uiso   1.00
H541   H     0.05870   0.40538   0.28905   0.00000  Uiso   1.00
H542   H     0.00692   0.85814   0.26264   0.00000  Uiso   1.00
H543   H     0.10260   0.83378   0.68817   0.00000  Uiso   1.00
O544   O     0.14975   0.30896   0.24286   0.00000  Uiso   1.00
O545   O     0.08181   0.90297   0.20822   0.00000  Uiso   1.00
O546   O     0.20734   0.87101   0.76650   0.00000  Uiso   1.00
N547   N     0.19732   0.41712   0.28574   0.00000  Uiso   1.00
N548   N     0.14890   0.84040   0.26104   0.00000  Uiso   1.00
N549   N     0.23835   0.81766   0.65887   0.00000  Uiso   1.00
N550   N     0.10021   0.42228   0.29373   0.00000  Uiso   1.00
N551   N     0.05179   0.84557   0.26902   0.00000  Uiso   1.00
N552   N     0.14125   0.82282   0.66686   0.00000  Uiso   1.00
