data_job_03887
_audit_creation_date              2018-12-19
_audit_creation_method            'Materials Studio'
_symmetry_space_group_name_H-M    'P1'
_symmetry_Int_Tables_number       1
_symmetry_cell_setting            triclinic
loop_
_symmetry_equiv_pos_as_xyz
  x,y,z
_cell_length_a                    15.4934
_cell_length_b                    23.2441
_cell_length_c                    23.0289
_cell_angle_alpha                 90.0000
_cell_angle_beta                  90.0000
_cell_angle_gamma                 90.0000
loop_
_atom_site_label
_atom_site_type_symbol
_atom_site_fract_x
_atom_site_fract_y
_atom_site_fract_z
_atom_site_U_iso_or_equiv
_atom_site_adp_type
_atom_site_occupancy
C1     C     0.14501   0.89809   0.34796   0.00000  Uiso   1.00
C2     C     0.12662   0.83365   0.34654   0.00000  Uiso   1.00
C3     C     0.14672   0.79657   0.30129   0.00000  Uiso   1.00
C4     C     0.12455   0.73912   0.30836   0.00000  Uiso   1.00
C5     C     0.10216   0.64206   0.29847   0.00000  Uiso   1.00
C6     C     0.05831   0.92730   0.35860   0.00000  Uiso   1.00
C7     C     0.02100   0.96897   0.32349   0.00000  Uiso   1.00
C8     C     0.94134   0.99036   0.34071   0.00000  Uiso   1.00
C9     C     0.81294   0.03872   0.34956   0.00000  Uiso   1.00
C10    C     0.19861   0.90857   0.40247   0.00000  Uiso   1.00
C11    C     0.27925   0.93451   0.40425   0.00000  Uiso   1.00
C12    C     0.31771   0.94014   0.45841   0.00000  Uiso   1.00
C13    C     0.40714   0.95942   0.53538   0.00000  Uiso   1.00
C14    C     0.06989   0.86200   0.44098   0.00000  Uiso   1.00
C15    C     0.08581   0.81405   0.39707   0.00000  Uiso   1.00
C16    C     0.06361   0.75664   0.40421   0.00000  Uiso   1.00
C17    C     0.08368   0.71948   0.35898   0.00000  Uiso   1.00
C18    C     0.01751   0.90770   0.40913   0.00000  Uiso   1.00
C19    C     0.93789   0.92904   0.42641   0.00000  Uiso   1.00
C20    C     0.90047   0.97072   0.39133   0.00000  Uiso   1.00
C21    C     0.15781   0.88897   0.45300   0.00000  Uiso   1.00
C22    C     0.19615   0.89457   0.50717   0.00000  Uiso   1.00
C23    C     0.27683   0.92050   0.50903   0.00000  Uiso   1.00
H24    H     0.17677   0.91335   0.30862   0.00000  Uiso   1.00
H25    H     0.17829   0.81176   0.26219   0.00000  Uiso   1.00
H26    H     0.05259   0.98414   0.28439   0.00000  Uiso   1.00
H27    H     0.31080   0.94967   0.36514   0.00000  Uiso   1.00
H28    H     0.16195   0.69049   0.23299   0.00000  Uiso   1.00
H29    H     0.89693   0.05396   0.27981   0.00000  Uiso   1.00
H30    H     0.44142   0.98130   0.45009   0.00000  Uiso   1.00
H31    H     0.03813   0.84673   0.48032   0.00000  Uiso   1.00
H32    H     0.03204   0.74148   0.44332   0.00000  Uiso   1.00
H33    H     0.90634   0.91386   0.46551   0.00000  Uiso   1.00
H34    H     0.16455   0.87940   0.54626   0.00000  Uiso   1.00
H35    H     0.04325   0.63345   0.38000   0.00000  Uiso   1.00
H36    H     0.77823   0.99693   0.42682   0.00000  Uiso   1.00
H37    H     0.32272   0.92426   0.59709   0.00000  Uiso   1.00
O38    O     0.10107   0.59394   0.27905   0.00000  Uiso   1.00
O39    O     0.75338   0.07081   0.34047   0.00000  Uiso   1.00
O40    O     0.46774   0.97547   0.56387   0.00000  Uiso   1.00
N41    N     0.13486   0.69151   0.27267   0.00000  Uiso   1.00
N42    N     0.88708   0.03133   0.31644   0.00000  Uiso   1.00
N43    N     0.39612   0.96340   0.47563   0.00000  Uiso   1.00
N44    N     0.07099   0.66081   0.35178   0.00000  Uiso   1.00
N45    N     0.82321   0.00063   0.39554   0.00000  Uiso   1.00
N46    N     0.33225   0.93271   0.55474   0.00000  Uiso   1.00
C47    C     0.35499   0.60191   0.34796   0.00000  Uiso   1.00
C48    C     0.37338   0.66635   0.34654   0.00000  Uiso   1.00
C49    C     0.35328   0.70343   0.30129   0.00000  Uiso   1.00
C50    C     0.37545   0.76088   0.30836   0.00000  Uiso   1.00
C51    C     0.39784   0.85794   0.29847   0.00000  Uiso   1.00
C52    C     0.44169   0.57270   0.35860   0.00000  Uiso   1.00
C53    C     0.47900   0.53103   0.32349   0.00000  Uiso   1.00
C54    C     0.55866   0.50964   0.34071   0.00000  Uiso   1.00
C55    C     0.68706   0.46128   0.34956   0.00000  Uiso   1.00
C56    C     0.30139   0.59143   0.40247   0.00000  Uiso   1.00
C57    C     0.22075   0.56549   0.40425   0.00000  Uiso   1.00
C58    C     0.18229   0.55986   0.45841   0.00000  Uiso   1.00
C59    C     0.09286   0.54058   0.53538   0.00000  Uiso   1.00
C60    C     0.43011   0.63800   0.44098   0.00000  Uiso   1.00
C61    C     0.41419   0.68595   0.39707   0.00000  Uiso   1.00
C62    C     0.43639   0.74336   0.40421   0.00000  Uiso   1.00
C63    C     0.41632   0.78052   0.35898   0.00000  Uiso   1.00
C64    C     0.48249   0.59230   0.40913   0.00000  Uiso   1.00
C65    C     0.56211   0.57096   0.42641   0.00000  Uiso   1.00
C66    C     0.59953   0.52928   0.39133   0.00000  Uiso   1.00
C67    C     0.34219   0.61103   0.45300   0.00000  Uiso   1.00
C68    C     0.30385   0.60543   0.50717   0.00000  Uiso   1.00
C69    C     0.22317   0.57950   0.50903   0.00000  Uiso   1.00
H70    H     0.32323   0.58665   0.30862   0.00000  Uiso   1.00
H71    H     0.32171   0.68824   0.26219   0.00000  Uiso   1.00
H72    H     0.44741   0.51586   0.28439   0.00000  Uiso   1.00
H73    H     0.18920   0.55033   0.36514   0.00000  Uiso   1.00
H74    H     0.33805   0.80951   0.23299   0.00000  Uiso   1.00
H75    H     0.60307   0.44604   0.27981   0.00000  Uiso   1.00
H76    H     0.05858   0.51870   0.45009   0.00000  Uiso   1.00
H77    H     0.46187   0.65327   0.48032   0.00000  Uiso   1.00
H78    H     0.46796   0.75852   0.44332   0.00000  Uiso   1.00
H79    H     0.59366   0.58614   0.46551   0.00000  Uiso   1.00
H80    H     0.33545   0.62060   0.54626   0.00000  Uiso   1.00
H81    H     0.45675   0.86655   0.38000   0.00000  Uiso   1.00
H82    H     0.72177   0.50307   0.42682   0.00000  Uiso   1.00
H83    H     0.17728   0.57574   0.59709   0.00000  Uiso   1.00
O84    O     0.39893   0.90606   0.27905   0.00000  Uiso   1.00
O85    O     0.74662   0.42919   0.34047   0.00000  Uiso   1.00
O86    O     0.03226   0.52453   0.56387   0.00000  Uiso   1.00
N87    N     0.36514   0.80849   0.27267   0.00000  Uiso   1.00
N88    N     0.61292   0.46867   0.31644   0.00000  Uiso   1.00
N89    N     0.10388   0.53660   0.47563   0.00000  Uiso   1.00
N90    N     0.42901   0.83919   0.35178   0.00000  Uiso   1.00
N91    N     0.67679   0.49937   0.39554   0.00000  Uiso   1.00
N92    N     0.16775   0.56729   0.55474   0.00000  Uiso   1.00
C93    C     0.85499   0.39809   0.15204   0.00000  Uiso   1.00
C94    C     0.87338   0.33365   0.15346   0.00000  Uiso   1.00
C95    C     0.85328   0.29657   0.19871   0.00000  Uiso   1.00
C96    C     0.87545   0.23912   0.19164   0.00000  Uiso   1.00
C97    C     0.89784   0.14206   0.20153   0.00000  Uiso   1.00
C98    C     0.94169   0.42730   0.14140   0.00000  Uiso   1.00
C99    C     0.97900   0.46897   0.17651   0.00000  Uiso   1.00
C100   C     0.05866   0.49036   0.15929   0.00000  Uiso   1.00
C101   C     0.18706   0.53872   0.15044   0.00000  Uiso   1.00
C102   C     0.80139   0.40857   0.09753   0.00000  Uiso   1.00
C103   C     0.72075   0.43451   0.09575   0.00000  Uiso   1.00
C104   C     0.68229   0.44014   0.04159   0.00000  Uiso   1.00
C105   C     0.59286   0.45942   0.96462   0.00000  Uiso   1.00
C106   C     0.93011   0.36200   0.05902   0.00000  Uiso   1.00
C107   C     0.91419   0.31405   0.10293   0.00000  Uiso   1.00
C108   C     0.93639   0.25664   0.09579   0.00000  Uiso   1.00
C109   C     0.91632   0.21948   0.14102   0.00000  Uiso   1.00
C110   C     0.98249   0.40770   0.09087   0.00000  Uiso   1.00
C111   C     0.06211   0.42904   0.07359   0.00000  Uiso   1.00
C112   C     0.09953   0.47072   0.10867   0.00000  Uiso   1.00
C113   C     0.84219   0.38897   0.04700   0.00000  Uiso   1.00
C114   C     0.80385   0.39457   0.99283   0.00000  Uiso   1.00
C115   C     0.72317   0.42050   0.99097   0.00000  Uiso   1.00
H116   H     0.82323   0.41335   0.19138   0.00000  Uiso   1.00
H117   H     0.82171   0.31176   0.23781   0.00000  Uiso   1.00
H118   H     0.94741   0.48414   0.21561   0.00000  Uiso   1.00
H119   H     0.68920   0.44967   0.13486   0.00000  Uiso   1.00
H120   H     0.83805   0.19049   0.26701   0.00000  Uiso   1.00
H121   H     0.10307   0.55396   0.22019   0.00000  Uiso   1.00
H122   H     0.55858   0.48130   0.04991   0.00000  Uiso   1.00
H123   H     0.96187   0.34673   0.01968   0.00000  Uiso   1.00
H124   H     0.96796   0.24148   0.05668   0.00000  Uiso   1.00
H125   H     0.09366   0.41386   0.03449   0.00000  Uiso   1.00
H126   H     0.83545   0.37940   0.95374   0.00000  Uiso   1.00
H127   H     0.95675   0.13345   0.12000   0.00000  Uiso   1.00
H128   H     0.22177   0.49693   0.07318   0.00000  Uiso   1.00
H129   H     0.67728   0.42426   0.90291   0.00000  Uiso   1.00
O130   O     0.89893   0.09394   0.22095   0.00000  Uiso   1.00
O131   O     0.24662   0.57081   0.15953   0.00000  Uiso   1.00
O132   O     0.53226   0.47547   0.93613   0.00000  Uiso   1.00
N133   N     0.86514   0.19151   0.22733   0.00000  Uiso   1.00
N134   N     0.11292   0.53133   0.18356   0.00000  Uiso   1.00
N135   N     0.60388   0.46340   0.02437   0.00000  Uiso   1.00
N136   N     0.92901   0.16081   0.14822   0.00000  Uiso   1.00
N137   N     0.17679   0.50063   0.10446   0.00000  Uiso   1.00
N138   N     0.66775   0.43271   0.94526   0.00000  Uiso   1.00
C139   C     0.64501   0.10191   0.15204   0.00000  Uiso   1.00
C140   C     0.62662   0.16635   0.15346   0.00000  Uiso   1.00
C141   C     0.64672   0.20343   0.19871   0.00000  Uiso   1.00
C142   C     0.62455   0.26088   0.19164   0.00000  Uiso   1.00
C143   C     0.60216   0.35794   0.20153   0.00000  Uiso   1.00
C144   C     0.55831   0.07270   0.14140   0.00000  Uiso   1.00
C145   C     0.52100   0.03103   0.17651   0.00000  Uiso   1.00
C146   C     0.44134   0.00964   0.15929   0.00000  Uiso   1.00
C147   C     0.31294   0.96128   0.15044   0.00000  Uiso   1.00
C148   C     0.69861   0.09143   0.09753   0.00000  Uiso   1.00
C149   C     0.77925   0.06549   0.09575   0.00000  Uiso   1.00
C150   C     0.81771   0.05986   0.04159   0.00000  Uiso   1.00
C151   C     0.90714   0.04058   0.96462   0.00000  Uiso   1.00
C152   C     0.56989   0.13800   0.05902   0.00000  Uiso   1.00
C153   C     0.58581   0.18595   0.10293   0.00000  Uiso   1.00
C154   C     0.56361   0.24336   0.09579   0.00000  Uiso   1.00
C155   C     0.58368   0.28052   0.14102   0.00000  Uiso   1.00
C156   C     0.51751   0.09230   0.09087   0.00000  Uiso   1.00
C157   C     0.43789   0.07096   0.07359   0.00000  Uiso   1.00
C158   C     0.40047   0.02928   0.10867   0.00000  Uiso   1.00
C159   C     0.65781   0.11103   0.04700   0.00000  Uiso   1.00
C160   C     0.69615   0.10543   0.99283   0.00000  Uiso   1.00
C161   C     0.77683   0.07950   0.99097   0.00000  Uiso   1.00
H162   H     0.67677   0.08665   0.19138   0.00000  Uiso   1.00
H163   H     0.67829   0.18824   0.23781   0.00000  Uiso   1.00
H164   H     0.55259   0.01586   0.21561   0.00000  Uiso   1.00
H165   H     0.81080   0.05033   0.13486   0.00000  Uiso   1.00
H166   H     0.66195   0.30951   0.26701   0.00000  Uiso   1.00
H167   H     0.39693   0.94604   0.22019   0.00000  Uiso   1.00
H168   H     0.94142   0.01870   0.04991   0.00000  Uiso   1.00
H169   H     0.53813   0.15327   0.01968   0.00000  Uiso   1.00
H170   H     0.53204   0.25852   0.05668   0.00000  Uiso   1.00
H171   H     0.40634   0.08614   0.03449   0.00000  Uiso   1.00
H172   H     0.66455   0.12060   0.95374   0.00000  Uiso   1.00
H173   H     0.54325   0.36655   0.12000   0.00000  Uiso   1.00
H174   H     0.27823   0.00307   0.07318   0.00000  Uiso   1.00
H175   H     0.82272   0.07574   0.90291   0.00000  Uiso   1.00
O176   O     0.60107   0.40606   0.22095   0.00000  Uiso   1.00
O177   O     0.25338   0.92919   0.15953   0.00000  Uiso   1.00
O178   O     0.96774   0.02453   0.93613   0.00000  Uiso   1.00
N179   N     0.63486   0.30849   0.22733   0.00000  Uiso   1.00
N180   N     0.38708   0.96867   0.18356   0.00000  Uiso   1.00
N181   N     0.89612   0.03660   0.02437   0.00000  Uiso   1.00
N182   N     0.57099   0.33919   0.14822   0.00000  Uiso   1.00
N183   N     0.32321   0.99937   0.10446   0.00000  Uiso   1.00
N184   N     0.83225   0.06729   0.94526   0.00000  Uiso   1.00
C185   C     0.85499   0.10191   0.65204   0.00000  Uiso   1.00
C186   C     0.87338   0.16635   0.65346   0.00000  Uiso   1.00
C187   C     0.85328   0.20343   0.69871   0.00000  Uiso   1.00
C188   C     0.87545   0.26088   0.69164   0.00000  Uiso   1.00
C189   C     0.89784   0.35794   0.70153   0.00000  Uiso   1.00
C190   C     0.94169   0.07270   0.64140   0.00000  Uiso   1.00
C191   C     0.97900   0.03103   0.67651   0.00000  Uiso   1.00
C192   C     0.05866   0.00964   0.65929   0.00000  Uiso   1.00
C193   C     0.18706   0.96128   0.65044   0.00000  Uiso   1.00
C194   C     0.80139   0.09143   0.59753   0.00000  Uiso   1.00
C195   C     0.72075   0.06549   0.59575   0.00000  Uiso   1.00
C196   C     0.68229   0.05986   0.54159   0.00000  Uiso   1.00
C197   C     0.59286   0.04058   0.46462   0.00000  Uiso   1.00
C198   C     0.93011   0.13800   0.55902   0.00000  Uiso   1.00
C199   C     0.91419   0.18595   0.60293   0.00000  Uiso   1.00
C200   C     0.93639   0.24336   0.59579   0.00000  Uiso   1.00
C201   C     0.91632   0.28052   0.64102   0.00000  Uiso   1.00
C202   C     0.98249   0.09230   0.59087   0.00000  Uiso   1.00
C203   C     0.06211   0.07096   0.57359   0.00000  Uiso   1.00
C204   C     0.09953   0.02928   0.60867   0.00000  Uiso   1.00
C205   C     0.84219   0.11103   0.54700   0.00000  Uiso   1.00
C206   C     0.80385   0.10543   0.49283   0.00000  Uiso   1.00
C207   C     0.72317   0.07950   0.49097   0.00000  Uiso   1.00
H208   H     0.82323   0.08665   0.69138   0.00000  Uiso   1.00
H209   H     0.82171   0.18824   0.73781   0.00000  Uiso   1.00
H210   H     0.94741   0.01586   0.71561   0.00000  Uiso   1.00
H211   H     0.68920   0.05033   0.63486   0.00000  Uiso   1.00
H212   H     0.83805   0.30951   0.76701   0.00000  Uiso   1.00
H213   H     0.10307   0.94604   0.72019   0.00000  Uiso   1.00
H214   H     0.55858   0.01870   0.54991   0.00000  Uiso   1.00
H215   H     0.96187   0.15327   0.51968   0.00000  Uiso   1.00
H216   H     0.96796   0.25852   0.55668   0.00000  Uiso   1.00
H217   H     0.09366   0.08614   0.53449   0.00000  Uiso   1.00
H218   H     0.83545   0.12060   0.45374   0.00000  Uiso   1.00
H219   H     0.95675   0.36655   0.62000   0.00000  Uiso   1.00
H220   H     0.22177   0.00307   0.57318   0.00000  Uiso   1.00
H221   H     0.67728   0.07574   0.40291   0.00000  Uiso   1.00
O222   O     0.89893   0.40606   0.72095   0.00000  Uiso   1.00
O223   O     0.24662   0.92919   0.65953   0.00000  Uiso   1.00
O224   O     0.53226   0.02453   0.43613   0.00000  Uiso   1.00
N225   N     0.86514   0.30849   0.72733   0.00000  Uiso   1.00
N226   N     0.11292   0.96867   0.68356   0.00000  Uiso   1.00
N227   N     0.60388   0.03660   0.52437   0.00000  Uiso   1.00
N228   N     0.92901   0.33919   0.64822   0.00000  Uiso   1.00
N229   N     0.17679   0.99937   0.60446   0.00000  Uiso   1.00
N230   N     0.66775   0.06729   0.44526   0.00000  Uiso   1.00
C231   C     0.64501   0.39809   0.65204   0.00000  Uiso   1.00
C232   C     0.62662   0.33365   0.65346   0.00000  Uiso   1.00
C233   C     0.64672   0.29657   0.69871   0.00000  Uiso   1.00
C234   C     0.62455   0.23912   0.69164   0.00000  Uiso   1.00
C235   C     0.60216   0.14206   0.70153   0.00000  Uiso   1.00
C236   C     0.55831   0.42730   0.64140   0.00000  Uiso   1.00
C237   C     0.52100   0.46897   0.67651   0.00000  Uiso   1.00
C238   C     0.44134   0.49036   0.65929   0.00000  Uiso   1.00
C239   C     0.31294   0.53872   0.65044   0.00000  Uiso   1.00
C240   C     0.69861   0.40857   0.59753   0.00000  Uiso   1.00
C241   C     0.77925   0.43451   0.59575   0.00000  Uiso   1.00
C242   C     0.81771   0.44014   0.54159   0.00000  Uiso   1.00
C243   C     0.90714   0.45942   0.46462   0.00000  Uiso   1.00
C244   C     0.56989   0.36200   0.55902   0.00000  Uiso   1.00
C245   C     0.58581   0.31405   0.60293   0.00000  Uiso   1.00
C246   C     0.56361   0.25664   0.59579   0.00000  Uiso   1.00
C247   C     0.58368   0.21948   0.64102   0.00000  Uiso   1.00
C248   C     0.51751   0.40770   0.59087   0.00000  Uiso   1.00
C249   C     0.43789   0.42904   0.57359   0.00000  Uiso   1.00
C250   C     0.40047   0.47072   0.60867   0.00000  Uiso   1.00
C251   C     0.65781   0.38897   0.54700   0.00000  Uiso   1.00
C252   C     0.69615   0.39457   0.49283   0.00000  Uiso   1.00
C253   C     0.77683   0.42050   0.49097   0.00000  Uiso   1.00
H254   H     0.67677   0.41335   0.69138   0.00000  Uiso   1.00
H255   H     0.67829   0.31176   0.73781   0.00000  Uiso   1.00
H256   H     0.55259   0.48414   0.71561   0.00000  Uiso   1.00
H257   H     0.81080   0.44967   0.63486   0.00000  Uiso   1.00
H258   H     0.66195   0.19049   0.76701   0.00000  Uiso   1.00
H259   H     0.39693   0.55396   0.72019   0.00000  Uiso   1.00
H260   H     0.94142   0.48130   0.54991   0.00000  Uiso   1.00
H261   H     0.53813   0.34673   0.51968   0.00000  Uiso   1.00
H262   H     0.53204   0.24148   0.55668   0.00000  Uiso   1.00
H263   H     0.40634   0.41386   0.53449   0.00000  Uiso   1.00
H264   H     0.66455   0.37940   0.45374   0.00000  Uiso   1.00
H265   H     0.54325   0.13345   0.62000   0.00000  Uiso   1.00
H266   H     0.27823   0.49693   0.57318   0.00000  Uiso   1.00
H267   H     0.82272   0.42426   0.40291   0.00000  Uiso   1.00
O268   O     0.60107   0.09394   0.72095   0.00000  Uiso   1.00
O269   O     0.25338   0.57081   0.65953   0.00000  Uiso   1.00
O270   O     0.96774   0.47547   0.43613   0.00000  Uiso   1.00
N271   N     0.63486   0.19151   0.72733   0.00000  Uiso   1.00
N272   N     0.38708   0.53133   0.68356   0.00000  Uiso   1.00
N273   N     0.89612   0.46340   0.52437   0.00000  Uiso   1.00
N274   N     0.57099   0.16081   0.64822   0.00000  Uiso   1.00
N275   N     0.32321   0.50063   0.60446   0.00000  Uiso   1.00
N276   N     0.83225   0.43271   0.44526   0.00000  Uiso   1.00
C277   C     0.14501   0.60191   0.84796   0.00000  Uiso   1.00
C278   C     0.12662   0.66635   0.84654   0.00000  Uiso   1.00
C279   C     0.14672   0.70343   0.80129   0.00000  Uiso   1.00
C280   C     0.12455   0.76088   0.80836   0.00000  Uiso   1.00
C281   C     0.10216   0.85794   0.79847   0.00000  Uiso   1.00
C282   C     0.05831   0.57270   0.85860   0.00000  Uiso   1.00
C283   C     0.02100   0.53103   0.82349   0.00000  Uiso   1.00
C284   C     0.94134   0.50964   0.84071   0.00000  Uiso   1.00
C285   C     0.81294   0.46128   0.84956   0.00000  Uiso   1.00
C286   C     0.19861   0.59143   0.90247   0.00000  Uiso   1.00
C287   C     0.27925   0.56549   0.90425   0.00000  Uiso   1.00
C288   C     0.31771   0.55986   0.95841   0.00000  Uiso   1.00
C289   C     0.40714   0.54058   0.03538   0.00000  Uiso   1.00
C290   C     0.06989   0.63800   0.94098   0.00000  Uiso   1.00
C291   C     0.08581   0.68595   0.89707   0.00000  Uiso   1.00
C292   C     0.06361   0.74336   0.90421   0.00000  Uiso   1.00
C293   C     0.08368   0.78052   0.85898   0.00000  Uiso   1.00
C294   C     0.01751   0.59230   0.90913   0.00000  Uiso   1.00
C295   C     0.93789   0.57096   0.92641   0.00000  Uiso   1.00
C296   C     0.90047   0.52928   0.89133   0.00000  Uiso   1.00
C297   C     0.15781   0.61103   0.95300   0.00000  Uiso   1.00
C298   C     0.19615   0.60543   0.00717   0.00000  Uiso   1.00
C299   C     0.27683   0.57950   0.00903   0.00000  Uiso   1.00
H300   H     0.17677   0.58665   0.80862   0.00000  Uiso   1.00
H301   H     0.17829   0.68824   0.76219   0.00000  Uiso   1.00
H302   H     0.05259   0.51586   0.78439   0.00000  Uiso   1.00
H303   H     0.31080   0.55033   0.86514   0.00000  Uiso   1.00
H304   H     0.16195   0.80951   0.73299   0.00000  Uiso   1.00
H305   H     0.89693   0.44604   0.77981   0.00000  Uiso   1.00
H306   H     0.44142   0.51870   0.95009   0.00000  Uiso   1.00
H307   H     0.03813   0.65327   0.98032   0.00000  Uiso   1.00
H308   H     0.03204   0.75852   0.94332   0.00000  Uiso   1.00
H309   H     0.90634   0.58614   0.96551   0.00000  Uiso   1.00
H310   H     0.16455   0.62060   0.04626   0.00000  Uiso   1.00
H311   H     0.04325   0.86655   0.88000   0.00000  Uiso   1.00
H312   H     0.77823   0.50307   0.92682   0.00000  Uiso   1.00
H313   H     0.32272   0.57574   0.09709   0.00000  Uiso   1.00
O314   O     0.10107   0.90606   0.77905   0.00000  Uiso   1.00
O315   O     0.75338   0.42919   0.84047   0.00000  Uiso   1.00
O316   O     0.46774   0.52453   0.06387   0.00000  Uiso   1.00
N317   N     0.13486   0.80849   0.77267   0.00000  Uiso   1.00
N318   N     0.88708   0.46867   0.81644   0.00000  Uiso   1.00
N319   N     0.39612   0.53660   0.97563   0.00000  Uiso   1.00
N320   N     0.07099   0.83919   0.85178   0.00000  Uiso   1.00
N321   N     0.82321   0.49937   0.89554   0.00000  Uiso   1.00
N322   N     0.33225   0.56729   0.05474   0.00000  Uiso   1.00
C323   C     0.35499   0.89809   0.84796   0.00000  Uiso   1.00
C324   C     0.37338   0.83365   0.84654   0.00000  Uiso   1.00
C325   C     0.35328   0.79657   0.80129   0.00000  Uiso   1.00
C326   C     0.37545   0.73912   0.80836   0.00000  Uiso   1.00
C327   C     0.39784   0.64206   0.79847   0.00000  Uiso   1.00
C328   C     0.44169   0.92730   0.85860   0.00000  Uiso   1.00
C329   C     0.47900   0.96897   0.82349   0.00000  Uiso   1.00
C330   C     0.55866   0.99036   0.84071   0.00000  Uiso   1.00
C331   C     0.68706   0.03872   0.84956   0.00000  Uiso   1.00
C332   C     0.30139   0.90857   0.90247   0.00000  Uiso   1.00
C333   C     0.22075   0.93451   0.90425   0.00000  Uiso   1.00
C334   C     0.18229   0.94014   0.95841   0.00000  Uiso   1.00
C335   C     0.09286   0.95942   0.03538   0.00000  Uiso   1.00
C336   C     0.43011   0.86200   0.94098   0.00000  Uiso   1.00
C337   C     0.41419   0.81405   0.89707   0.00000  Uiso   1.00
C338   C     0.43639   0.75664   0.90421   0.00000  Uiso   1.00
C339   C     0.41632   0.71948   0.85898   0.00000  Uiso   1.00
C340   C     0.48249   0.90770   0.90913   0.00000  Uiso   1.00
C341   C     0.56211   0.92904   0.92641   0.00000  Uiso   1.00
C342   C     0.59953   0.97072   0.89133   0.00000  Uiso   1.00
C343   C     0.34219   0.88897   0.95300   0.00000  Uiso   1.00
C344   C     0.30385   0.89457   0.00717   0.00000  Uiso   1.00
C345   C     0.22317   0.92050   0.00903   0.00000  Uiso   1.00
H346   H     0.32323   0.91335   0.80862   0.00000  Uiso   1.00
H347   H     0.32171   0.81176   0.76219   0.00000  Uiso   1.00
H348   H     0.44741   0.98414   0.78439   0.00000  Uiso   1.00
H349   H     0.18920   0.94967   0.86514   0.00000  Uiso   1.00
H350   H     0.33805   0.69049   0.73299   0.00000  Uiso   1.00
H351   H     0.60307   0.05396   0.77981   0.00000  Uiso   1.00
H352   H     0.05858   0.98130   0.95009   0.00000  Uiso   1.00
H353   H     0.46187   0.84673   0.98032   0.00000  Uiso   1.00
H354   H     0.46796   0.74148   0.94332   0.00000  Uiso   1.00
H355   H     0.59366   0.91386   0.96551   0.00000  Uiso   1.00
H356   H     0.33545   0.87940   0.04626   0.00000  Uiso   1.00
H357   H     0.45675   0.63345   0.88000   0.00000  Uiso   1.00
H358   H     0.72177   0.99693   0.92682   0.00000  Uiso   1.00
H359   H     0.17728   0.92426   0.09709   0.00000  Uiso   1.00
O360   O     0.39893   0.59394   0.77905   0.00000  Uiso   1.00
O361   O     0.74662   0.07081   0.84047   0.00000  Uiso   1.00
O362   O     0.03226   0.97547   0.06387   0.00000  Uiso   1.00
N363   N     0.36514   0.69151   0.77267   0.00000  Uiso   1.00
N364   N     0.61292   0.03133   0.81644   0.00000  Uiso   1.00
N365   N     0.10388   0.96340   0.97563   0.00000  Uiso   1.00
N366   N     0.42901   0.66081   0.85178   0.00000  Uiso   1.00
N367   N     0.67679   0.00063   0.89554   0.00000  Uiso   1.00
N368   N     0.16775   0.93271   0.05474   0.00000  Uiso   1.00
