data_job_06525
_audit_creation_date              2018-12-19
_audit_creation_method            'Materials Studio'
_symmetry_space_group_name_H-M    'P1'
_symmetry_Int_Tables_number       1
_symmetry_cell_setting            triclinic
loop_
_symmetry_equiv_pos_as_xyz
  x,y,z
_cell_length_a                    21.7310
_cell_length_b                    23.2800
_cell_length_c                    23.9532
_cell_angle_alpha                 115.2458
_cell_angle_beta                  116.2704
_cell_angle_gamma                 64.8996
loop_
_atom_site_label
_atom_site_type_symbol
_atom_site_fract_x
_atom_site_fract_y
_atom_site_fract_z
_atom_site_U_iso_or_equiv
_atom_site_adp_type
_atom_site_occupancy
C1     C     0.52694   0.97126   0.28503   0.00000  Uiso   1.00
C2     C     0.53680   0.95679   0.34532   0.00000  Uiso   1.00
C3     C     0.49563   0.92731   0.34913   0.00000  Uiso   1.00
C4     C     0.51319   0.91838   0.40869   0.00000  Uiso   1.00
C5     C     0.51984   0.89292   0.49414   0.00000  Uiso   1.00
C6     C     0.51669   0.04548   0.30518   0.00000  Uiso   1.00
C7     C     0.45863   0.09057   0.27522   0.00000  Uiso   1.00
C8     C     0.45927   0.15631   0.30098   0.00000  Uiso   1.00
C9     C     0.43473   0.26853   0.32408   0.00000  Uiso   1.00
C10    C     0.59887   0.93657   0.27242   0.00000  Uiso   1.00
C11    C     0.60990   0.89010   0.21492   0.00000  Uiso   1.00
C12    C     0.67973   0.86415   0.21309   0.00000  Uiso   1.00
C13    C     0.78278   0.80728   0.18533   0.00000  Uiso   1.00
C14    C     0.63133   0.00782   0.38402   0.00000  Uiso   1.00
C15    C     0.59350   0.97665   0.39909   0.00000  Uiso   1.00
C16    C     0.61112   0.96776   0.45866   0.00000  Uiso   1.00
C17    C     0.56999   0.93827   0.46255   0.00000  Uiso   1.00
C18    C     0.57339   0.06534   0.35894   0.00000  Uiso   1.00
C19    C     0.57412   0.13102   0.38475   0.00000  Uiso   1.00
C20    C     0.51607   0.17620   0.35485   0.00000  Uiso   1.00
C21    C     0.65557   0.95643   0.32619   0.00000  Uiso   1.00
C22    C     0.72539   0.93055   0.32445   0.00000  Uiso   1.00
C23    C     0.73653   0.88405   0.26696   0.00000  Uiso   1.00
H24    H     0.48280   0.95580   0.24317   0.00000  Uiso   1.00
H25    H     0.45176   0.91195   0.30751   0.00000  Uiso   1.00
H26    H     0.41476   0.07519   0.23361   0.00000  Uiso   1.00
H27    H     0.56601   0.87475   0.17332   0.00000  Uiso   1.00
H28    H     0.44232   0.87212   0.40257   0.00000  Uiso   1.00
H29    H     0.36433   0.21630   0.24674   0.00000  Uiso   1.00
H30    H     0.68327   0.79363   0.11960   0.00000  Uiso   1.00
H31    H     0.67547   0.02328   0.42588   0.00000  Uiso   1.00
H32    H     0.65500   0.98313   0.50026   0.00000  Uiso   1.00
H33    H     0.61800   0.14637   0.42636   0.00000  Uiso   1.00
H34    H     0.76925   0.94593   0.36607   0.00000  Uiso   1.00
H35    H     0.60728   0.92989   0.55901   0.00000  Uiso   1.00
H36    H     0.52929   0.27408   0.40317   0.00000  Uiso   1.00
H37    H     0.84823   0.85141   0.27604   0.00000  Uiso   1.00
O38    O     0.50784   0.87340   0.52643   0.00000  Uiso   1.00
O39    O     0.40553   0.32495   0.32197   0.00000  Uiso   1.00
O40    O     0.82397   0.77042   0.15517   0.00000  Uiso   1.00
N41    N     0.48397   0.89121   0.42918   0.00000  Uiso   1.00
N42    N     0.41104   0.21301   0.28349   0.00000  Uiso   1.00
N43    N     0.70922   0.81786   0.16462   0.00000  Uiso   1.00
N44    N     0.57273   0.92230   0.51336   0.00000  Uiso   1.00
N45    N     0.49980   0.24410   0.36767   0.00000  Uiso   1.00
N46    N     0.79798   0.84895   0.24880   0.00000  Uiso   1.00
C47    C     0.53037   0.77118   0.99880   0.00000  Uiso   1.00
C48    C     0.54495   0.83741   0.02109   0.00000  Uiso   1.00
C49    C     0.50678   0.89818   0.05335   0.00000  Uiso   1.00
C50    C     0.52850   0.95299   0.06958   0.00000  Uiso   1.00
C51    C     0.54232   0.05672   0.10652   0.00000  Uiso   1.00
C52    C     0.51873   0.74395   0.92575   0.00000  Uiso   1.00
C53    C     0.45851   0.72613   0.87786   0.00000  Uiso   1.00
C54    C     0.45816   0.70226   0.81382   0.00000  Uiso   1.00
C55    C     0.43129   0.66085   0.70276   0.00000  Uiso   1.00
C56    C     0.60037   0.72483   0.02997   0.00000  Uiso   1.00
C57    C     0.60881   0.69091   0.06969   0.00000  Uiso   1.00
C58    C     0.67721   0.65092   0.09339   0.00000  Uiso   1.00
C59    C     0.77711   0.57982   0.14413   0.00000  Uiso   1.00
C60    C     0.63682   0.76046   0.97023   0.00000  Uiso   1.00
C61    C     0.60277   0.83159   0.00557   0.00000  Uiso   1.00
C62    C     0.62455   0.88632   0.02175   0.00000  Uiso   1.00
C63    C     0.58642   0.94716   0.05404   0.00000  Uiso   1.00
C64    C     0.57654   0.73813   0.91023   0.00000  Uiso   1.00
C65    C     0.57629   0.71427   0.84625   0.00000  Uiso   1.00
C66    C     0.51609   0.69642   0.79828   0.00000  Uiso   1.00
C67    C     0.65820   0.71900   0.01445   0.00000  Uiso   1.00
C68    C     0.72659   0.67906   0.03808   0.00000  Uiso   1.00
C69    C     0.73513   0.64509   0.07784   0.00000  Uiso   1.00
H70    H     0.48535   0.77571   0.01087   0.00000  Uiso   1.00
H71    H     0.46203   0.90266   0.06535   0.00000  Uiso   1.00
H72    H     0.41378   0.73063   0.88988   0.00000  Uiso   1.00
H73    H     0.56406   0.69542   0.08169   0.00000  Uiso   1.00
H74    H     0.46166   0.04085   0.11888   0.00000  Uiso   1.00
H75    H     0.35992   0.67810   0.74890   0.00000  Uiso   1.00
H76    H     0.67681   0.60385   0.15336   0.00000  Uiso   1.00
H77    H     0.68183   0.75593   0.95815   0.00000  Uiso   1.00
H78    H     0.66930   0.88180   0.00973   0.00000  Uiso   1.00
H79    H     0.62104   0.70977   0.83426   0.00000  Uiso   1.00
H80    H     0.77132   0.67456   0.02607   0.00000  Uiso   1.00
H81    H     0.62988   0.02392   0.07374   0.00000  Uiso   1.00
H82    H     0.52814   0.66117   0.70376   0.00000  Uiso   1.00
H83    H     0.84504   0.58692   0.10821   0.00000  Uiso   1.00
O84    O     0.53396   0.11555   0.13118   0.00000  Uiso   1.00
O85    O     0.40049   0.63962   0.64578   0.00000  Uiso   1.00
O86    O     0.81625   0.54221   0.17642   0.00000  Uiso   1.00
N87    N     0.50298   0.01959   0.10119   0.00000  Uiso   1.00
N88    N     0.40786   0.68045   0.75528   0.00000  Uiso   1.00
N89    N     0.70412   0.61102   0.13340   0.00000  Uiso   1.00
N90    N     0.59350   0.01048   0.07690   0.00000  Uiso   1.00
N91    N     0.49838   0.67134   0.73099   0.00000  Uiso   1.00
N92    N     0.79464   0.60191   0.10911   0.00000  Uiso   1.00
C93    C     0.49614   0.70615   0.21294   0.00000  Uiso   1.00
C94    C     0.49154   0.66958   0.14175   0.00000  Uiso   1.00
C95    C     0.44320   0.69325   0.08912   0.00000  Uiso   1.00
C96    C     0.44765   0.65225   0.02783   0.00000  Uiso   1.00
C97    C     0.43273   0.60494   0.91855   0.00000  Uiso   1.00
C98    C     0.48828   0.66001   0.23774   0.00000  Uiso   1.00
C99    C     0.43721   0.67565   0.26583   0.00000  Uiso   1.00
C100   C     0.43893   0.62661   0.28536   0.00000  Uiso   1.00
C101   C     0.41898   0.56447   0.32515   0.00000  Uiso   1.00
C102   C     0.57292   0.71011   0.24888   0.00000  Uiso   1.00
C103   C     0.59302   0.76787   0.28633   0.00000  Uiso   1.00
C104   C     0.66601   0.76100   0.31525   0.00000  Uiso   1.00
C105   C     0.77749   0.77664   0.37232   0.00000  Uiso   1.00
C106   C     0.59002   0.59124   0.19770   0.00000  Uiso   1.00
C107   C     0.54253   0.60716   0.13347   0.00000  Uiso   1.00
C108   C     0.54707   0.56612   0.07225   0.00000  Uiso   1.00
C109   C     0.49874   0.58973   0.01954   0.00000  Uiso   1.00
C110   C     0.53927   0.59760   0.22947   0.00000  Uiso   1.00
C111   C     0.54108   0.54852   0.24896   0.00000  Uiso   1.00
C112   C     0.49001   0.56408   0.27706   0.00000  Uiso   1.00
C113   C     0.62392   0.64770   0.24060   0.00000  Uiso   1.00
C114   C     0.69689   0.64074   0.26946   0.00000  Uiso   1.00
C115   C     0.71710   0.69847   0.30695   0.00000  Uiso   1.00
H116   H     0.45644   0.75474   0.21939   0.00000  Uiso   1.00
H117   H     0.40374   0.74155   0.09555   0.00000  Uiso   1.00
H118   H     0.39776   0.72396   0.27223   0.00000  Uiso   1.00
H119   H     0.55355   0.81616   0.29273   0.00000  Uiso   1.00
H120   H     0.36778   0.69940   0.95459   0.00000  Uiso   1.00
H121   H     0.35518   0.66231   0.32716   0.00000  Uiso   1.00
H122   H     0.68370   0.85673   0.37039   0.00000  Uiso   1.00
H123   H     0.62972   0.54265   0.19125   0.00000  Uiso   1.00
H124   H     0.58653   0.51782   0.06586   0.00000  Uiso   1.00
H125   H     0.58055   0.50023   0.24255   0.00000  Uiso   1.00
H126   H     0.73634   0.59243   0.26305   0.00000  Uiso   1.00
H127   H     0.51614   0.51781   0.93050   0.00000  Uiso   1.00
H128   H     0.50354   0.48072   0.30307   0.00000  Uiso   1.00
H129   H     0.83206   0.67514   0.34630   0.00000  Uiso   1.00
O130   O     0.41040   0.59609   0.86056   0.00000  Uiso   1.00
O131   O     0.39389   0.54744   0.34938   0.00000  Uiso   1.00
O132   O     0.82489   0.80251   0.40609   0.00000  Uiso   1.00
N133   N     0.40863   0.66007   0.96613   0.00000  Uiso   1.00
N134   N     0.39685   0.62540   0.31445   0.00000  Uiso   1.00
N135   N     0.70398   0.80716   0.35488   0.00000  Uiso   1.00
N136   N     0.48847   0.56236   0.95316   0.00000  Uiso   1.00
N137   N     0.47668   0.52768   0.30149   0.00000  Uiso   1.00
N138   N     0.78381   0.70945   0.34192   0.00000  Uiso   1.00
C139   C     0.77077   0.43108   0.80470   0.00000  Uiso   1.00
C140   C     0.77642   0.49910   0.81794   0.00000  Uiso   1.00
C141   C     0.72935   0.54359   0.78241   0.00000  Uiso   1.00
C142   C     0.74382   0.60324   0.80230   0.00000  Uiso   1.00
C143   C     0.74354   0.70666   0.81474   0.00000  Uiso   1.00
C144   C     0.76917   0.43119   0.86776   0.00000  Uiso   1.00
C145   C     0.71600   0.41857   0.87410   0.00000  Uiso   1.00
C146   C     0.72437   0.42105   0.93594   0.00000  Uiso   1.00
C147   C     0.71285   0.41898   0.02570   0.00000  Uiso   1.00
C148   C     0.84169   0.38134   0.79593   0.00000  Uiso   1.00
C149   C     0.84950   0.32679   0.74190   0.00000  Uiso   1.00
C150   C     0.91892   0.28728   0.74328   0.00000  Uiso   1.00
C151   C     0.02000   0.20780   0.72153   0.00000  Uiso   1.00
C152   C     0.88018   0.45790   0.90322   0.00000  Uiso   1.00
C153   C     0.83585   0.51367   0.87145   0.00000  Uiso   1.00
C154   C     0.85040   0.57326   0.89141   0.00000  Uiso   1.00
C155   C     0.80335   0.61783   0.85591   0.00000  Uiso   1.00
C156   C     0.82859   0.44576   0.92127   0.00000  Uiso   1.00
C157   C     0.83705   0.44825   0.98310   0.00000  Uiso   1.00
C158   C     0.78390   0.43564   0.98955   0.00000  Uiso   1.00
C159   C     0.90112   0.39590   0.84945   0.00000  Uiso   1.00
C160   C     0.97054   0.35646   0.85090   0.00000  Uiso   1.00
C161   C     0.97846   0.30187   0.79689   0.00000  Uiso   1.00
H162   H     0.72450   0.41974   0.76304   0.00000  Uiso   1.00
H163   H     0.68336   0.53230   0.74100   0.00000  Uiso   1.00
H164   H     0.67002   0.40729   0.83268   0.00000  Uiso   1.00
H165   H     0.80350   0.31553   0.70050   0.00000  Uiso   1.00
H166   H     0.66394   0.66353   0.74018   0.00000  Uiso   1.00
H167   H     0.63582   0.39993   0.93349   0.00000  Uiso   1.00
H168   H     0.91728   0.20642   0.65476   0.00000  Uiso   1.00
H169   H     0.92645   0.46924   0.94489   0.00000  Uiso   1.00
H170   H     0.89639   0.58452   0.93282   0.00000  Uiso   1.00
H171   H     0.88304   0.45952   0.02450   0.00000  Uiso   1.00
H172   H     0.01652   0.36775   0.89232   0.00000  Uiso   1.00
H173   H     0.83684   0.70592   0.89587   0.00000  Uiso   1.00
H174   H     0.80872   0.44231   0.08918   0.00000  Uiso   1.00
H175   H     0.09018   0.24881   0.81045   0.00000  Uiso   1.00
O176   O     0.72696   0.75968   0.80682   0.00000  Uiso   1.00
O177   O     0.69007   0.41382   0.06043   0.00000  Uiso   1.00
O178   O     0.05934   0.15995   0.69474   0.00000  Uiso   1.00
N179   N     0.70877   0.65768   0.77846   0.00000  Uiso   1.00
N180   N     0.68247   0.41124   0.95920   0.00000  Uiso   1.00
N181   N     0.94561   0.23031   0.69862   0.00000  Uiso   1.00
N182   N     0.80180   0.68049   0.86224   0.00000  Uiso   1.00
N183   N     0.77550   0.43404   0.04298   0.00000  Uiso   1.00
N184   N     0.03865   0.25312   0.78240   0.00000  Uiso   1.00
C185   C     0.76000   0.23677   0.45635   0.00000  Uiso   1.00
C186   C     0.74897   0.20656   0.49533   0.00000  Uiso   1.00
C187   C     0.69235   0.23211   0.51967   0.00000  Uiso   1.00
C188   C     0.69194   0.19712   0.55406   0.00000  Uiso   1.00
C189   C     0.66654   0.15908   0.61310   0.00000  Uiso   1.00
C190   C     0.76544   0.18265   0.39260   0.00000  Uiso   1.00
C191   C     0.72267   0.18811   0.33056   0.00000  Uiso   1.00
C192   C     0.73613   0.13299   0.27848   0.00000  Uiso   1.00
C193   C     0.73633   0.05784   0.17802   0.00000  Uiso   1.00
C194   C     0.83408   0.24738   0.49330   0.00000  Uiso   1.00
C195   C     0.84902   0.30725   0.51592   0.00000  Uiso   1.00
C196   C     0.92027   0.30663   0.54860   0.00000  Uiso   1.00
C197   C     0.02704   0.33198   0.60449   0.00000  Uiso   1.00
C198   C     0.85995   0.12919   0.47414   0.00000  Uiso   1.00
C199   C     0.80326   0.14813   0.50499   0.00000  Uiso   1.00
C200   C     0.80294   0.11309   0.53936   0.00000  Uiso   1.00
C201   C     0.74633   0.13858   0.56375   0.00000  Uiso   1.00
C202   C     0.81972   0.12422   0.40226   0.00000  Uiso   1.00
C203   C     0.83325   0.06908   0.35025   0.00000  Uiso   1.00
C204   C     0.79051   0.07445   0.28816   0.00000  Uiso   1.00
C205   C     0.88837   0.18895   0.50296   0.00000  Uiso   1.00
C206   C     0.95960   0.18823   0.53561   0.00000  Uiso   1.00
C207   C     0.97466   0.24809   0.55828   0.00000  Uiso   1.00
H208   H     0.71773   0.28226   0.44882   0.00000  Uiso   1.00
H209   H     0.65035   0.27733   0.51218   0.00000  Uiso   1.00
H210   H     0.68067   0.23333   0.32310   0.00000  Uiso   1.00
H211   H     0.80700   0.35246   0.50843   0.00000  Uiso   1.00
H212   H     0.59956   0.24608   0.58666   0.00000  Uiso   1.00
H213   H     0.66351   0.15332   0.18799   0.00000  Uiso   1.00
H214   H     0.92991   0.40452   0.57879   0.00000  Uiso   1.00
H215   H     0.90222   0.08370   0.48166   0.00000  Uiso   1.00
H216   H     0.84495   0.06787   0.54683   0.00000  Uiso   1.00
H217   H     0.87527   0.02387   0.35775   0.00000  Uiso   1.00
H218   H     0.00160   0.14300   0.54308   0.00000  Uiso   1.00
H219   H     0.75751   0.07607   0.61479   0.00000  Uiso   1.00
H220   H     0.82146   0.98331   0.21611   0.00000  Uiso   1.00
H221   H     0.08785   0.23451   0.60691   0.00000  Uiso   1.00
O222   O     0.63753   0.15423   0.64298   0.00000  Uiso   1.00
O223   O     0.72143   0.03254   0.11993   0.00000  Uiso   1.00
O224   O     0.07093   0.36211   0.63265   0.00000  Uiso   1.00
N225   N     0.64460   0.20825   0.58435   0.00000  Uiso   1.00
N226   N     0.70438   0.12152   0.21161   0.00000  Uiso   1.00
N227   N     0.95344   0.35637   0.57696   0.00000  Uiso   1.00
N228   N     0.72959   0.11677   0.59948   0.00000  Uiso   1.00
N229   N     0.78937   0.03003   0.22674   0.00000  Uiso   1.00
N230   N     0.03843   0.26489   0.59209   0.00000  Uiso   1.00
C231   C     0.77464   0.56449   0.59861   0.00000  Uiso   1.00
C232   C     0.77986   0.51568   0.53252   0.00000  Uiso   1.00
C233   C     0.73233   0.47912   0.48791   0.00000  Uiso   1.00
C234   C     0.74645   0.43719   0.43021   0.00000  Uiso   1.00
C235   C     0.74548   0.36221   0.32949   0.00000  Uiso   1.00
C236   C     0.77364   0.63040   0.59866   0.00000  Uiso   1.00
C237   C     0.72088   0.69031   0.60966   0.00000  Uiso   1.00
C238   C     0.72977   0.74496   0.60764   0.00000  Uiso   1.00
C239   C     0.71916   0.84810   0.60964   0.00000  Uiso   1.00
C240   C     0.84552   0.54092   0.64880   0.00000  Uiso   1.00
C241   C     0.85321   0.52560   0.70197   0.00000  Uiso   1.00
C242   C     0.92263   0.50492   0.74218   0.00000  Uiso   1.00
C243   C     0.02364   0.46912   0.82202   0.00000  Uiso   1.00
C244   C     0.88423   0.55504   0.57547   0.00000  Uiso   1.00
C245   C     0.83938   0.51055   0.51995   0.00000  Uiso   1.00
C246   C     0.85358   0.46866   0.46230   0.00000  Uiso   1.00
C247   C     0.80608   0.43205   0.41762   0.00000  Uiso   1.00
C248   C     0.83316   0.62527   0.58608   0.00000  Uiso   1.00
C249   C     0.84213   0.67985   0.58405   0.00000  Uiso   1.00
C250   C     0.78940   0.73982   0.59505   0.00000  Uiso   1.00
C251   C     0.90505   0.53578   0.63622   0.00000  Uiso   1.00
C252   C     0.97446   0.51514   0.67636   0.00000  Uiso   1.00
C253   C     0.98226   0.49978   0.72958   0.00000  Uiso   1.00
H254   H     0.72830   0.56849   0.60840   0.00000  Uiso   1.00
H255   H     0.68627   0.48311   0.49766   0.00000  Uiso   1.00
H256   H     0.67483   0.69427   0.61939   0.00000  Uiso   1.00
H257   H     0.80714   0.52957   0.71168   0.00000  Uiso   1.00
H258   H     0.66591   0.38620   0.36932   0.00000  Uiso   1.00
H259   H     0.64179   0.83144   0.62603   0.00000  Uiso   1.00
H260   H     0.92080   0.48416   0.82065   0.00000  Uiso   1.00
H261   H     0.93058   0.55105   0.56568   0.00000  Uiso   1.00
H262   H     0.89965   0.46470   0.45259   0.00000  Uiso   1.00
H263   H     0.88820   0.67586   0.57432   0.00000  Uiso   1.00
H264   H     0.02051   0.51117   0.66661   0.00000  Uiso   1.00
H265   H     0.83909   0.37127   0.33274   0.00000  Uiso   1.00
H266   H     0.81498   0.81651   0.58946   0.00000  Uiso   1.00
H267   H     0.09398   0.46923   0.78407   0.00000  Uiso   1.00
O268   O     0.72849   0.32227   0.27740   0.00000  Uiso   1.00
O269   O     0.69686   0.90641   0.61421   0.00000  Uiso   1.00
O270   O     0.06291   0.45078   0.86953   0.00000  Uiso   1.00
N271   N     0.71092   0.39453   0.37624   0.00000  Uiso   1.00
N272   N     0.68837   0.81080   0.61624   0.00000  Uiso   1.00
N273   N     0.94921   0.48614   0.79820   0.00000  Uiso   1.00
N274   N     0.80411   0.38649   0.35656   0.00000  Uiso   1.00
N275   N     0.78156   0.80276   0.59655   0.00000  Uiso   1.00
N276   N     0.04240   0.47810   0.77851   0.00000  Uiso   1.00
C277   C     0.47306   0.02874   0.71497   0.00000  Uiso   1.00
C278   C     0.46320   0.04321   0.65468   0.00000  Uiso   1.00
C279   C     0.50437   0.07269   0.65087   0.00000  Uiso   1.00
C280   C     0.48681   0.08162   0.59131   0.00000  Uiso   1.00
C281   C     0.48016   0.10708   0.50586   0.00000  Uiso   1.00
C282   C     0.48331   0.95452   0.69482   0.00000  Uiso   1.00
C283   C     0.54137   0.90943   0.72478   0.00000  Uiso   1.00
C284   C     0.54073   0.84369   0.69902   0.00000  Uiso   1.00
C285   C     0.56527   0.73147   0.67592   0.00000  Uiso   1.00
C286   C     0.40113   0.06343   0.72758   0.00000  Uiso   1.00
C287   C     0.39010   0.10990   0.78508   0.00000  Uiso   1.00
C288   C     0.32027   0.13585   0.78691   0.00000  Uiso   1.00
C289   C     0.21722   0.19272   0.81467   0.00000  Uiso   1.00
C290   C     0.36867   0.99218   0.61598   0.00000  Uiso   1.00
C291   C     0.40650   0.02335   0.60091   0.00000  Uiso   1.00
C292   C     0.38888   0.03224   0.54134   0.00000  Uiso   1.00
C293   C     0.43001   0.06173   0.53745   0.00000  Uiso   1.00
C294   C     0.42661   0.93466   0.64106   0.00000  Uiso   1.00
C295   C     0.42588   0.86898   0.61525   0.00000  Uiso   1.00
C296   C     0.48393   0.82380   0.64515   0.00000  Uiso   1.00
C297   C     0.34443   0.04357   0.67381   0.00000  Uiso   1.00
C298   C     0.27461   0.06945   0.67555   0.00000  Uiso   1.00
C299   C     0.26347   0.11595   0.73304   0.00000  Uiso   1.00
H300   H     0.51720   0.04420   0.75683   0.00000  Uiso   1.00
H301   H     0.54824   0.08805   0.69249   0.00000  Uiso   1.00
H302   H     0.58524   0.92481   0.76639   0.00000  Uiso   1.00
H303   H     0.43399   0.12525   0.82668   0.00000  Uiso   1.00
H304   H     0.55768   0.12788   0.59743   0.00000  Uiso   1.00
H305   H     0.63567   0.78370   0.75326   0.00000  Uiso   1.00
H306   H     0.31673   0.20637   0.88040   0.00000  Uiso   1.00
H307   H     0.32453   0.97672   0.57412   0.00000  Uiso   1.00
H308   H     0.34500   0.01687   0.49974   0.00000  Uiso   1.00
H309   H     0.38200   0.85363   0.57364   0.00000  Uiso   1.00
H310   H     0.23075   0.05407   0.63393   0.00000  Uiso   1.00
H311   H     0.39272   0.07011   0.44099   0.00000  Uiso   1.00
H312   H     0.47071   0.72592   0.59683   0.00000  Uiso   1.00
H313   H     0.15177   0.14859   0.72396   0.00000  Uiso   1.00
O314   O     0.49216   0.12660   0.47357   0.00000  Uiso   1.00
O315   O     0.59447   0.67505   0.67803   0.00000  Uiso   1.00
O316   O     0.17603   0.22958   0.84483   0.00000  Uiso   1.00
N317   N     0.51603   0.10879   0.57082   0.00000  Uiso   1.00
N318   N     0.58896   0.78699   0.71651   0.00000  Uiso   1.00
N319   N     0.29078   0.18214   0.83538   0.00000  Uiso   1.00
N320   N     0.42727   0.07770   0.48664   0.00000  Uiso   1.00
N321   N     0.50020   0.75590   0.63233   0.00000  Uiso   1.00
N322   N     0.20202   0.15105   0.75120   0.00000  Uiso   1.00
C323   C     0.46963   0.22882   0.00120   0.00000  Uiso   1.00
C324   C     0.45505   0.16259   0.97891   0.00000  Uiso   1.00
C325   C     0.49322   0.10182   0.94665   0.00000  Uiso   1.00
C326   C     0.47150   0.04701   0.93042   0.00000  Uiso   1.00
C327   C     0.45768   0.94328   0.89348   0.00000  Uiso   1.00
C328   C     0.48127   0.25605   0.07425   0.00000  Uiso   1.00
C329   C     0.54149   0.27387   0.12214   0.00000  Uiso   1.00
C330   C     0.54184   0.29774   0.18618   0.00000  Uiso   1.00
C331   C     0.56871   0.33915   0.29724   0.00000  Uiso   1.00
C332   C     0.39963   0.27517   0.97003   0.00000  Uiso   1.00
C333   C     0.39119   0.30909   0.93031   0.00000  Uiso   1.00
C334   C     0.32279   0.34908   0.90661   0.00000  Uiso   1.00
C335   C     0.22289   0.42018   0.85587   0.00000  Uiso   1.00
C336   C     0.36318   0.23954   0.02977   0.00000  Uiso   1.00
C337   C     0.39723   0.16841   0.99443   0.00000  Uiso   1.00
C338   C     0.37545   0.11368   0.97825   0.00000  Uiso   1.00
C339   C     0.41358   0.05284   0.94596   0.00000  Uiso   1.00
C340   C     0.42346   0.26187   0.08977   0.00000  Uiso   1.00
C341   C     0.42371   0.28573   0.15375   0.00000  Uiso   1.00
C342   C     0.48391   0.30358   0.20172   0.00000  Uiso   1.00
C343   C     0.34180   0.28100   0.98555   0.00000  Uiso   1.00
C344   C     0.27341   0.32094   0.96192   0.00000  Uiso   1.00
C345   C     0.26487   0.35491   0.92216   0.00000  Uiso   1.00
H346   H     0.51465   0.22429   0.98913   0.00000  Uiso   1.00
H347   H     0.53797   0.09734   0.93465   0.00000  Uiso   1.00
H348   H     0.58622   0.26937   0.11012   0.00000  Uiso   1.00
H349   H     0.43594   0.30458   0.91831   0.00000  Uiso   1.00
H350   H     0.53834   0.95915   0.88112   0.00000  Uiso   1.00
H351   H     0.64008   0.32190   0.25110   0.00000  Uiso   1.00
H352   H     0.32319   0.39615   0.84664   0.00000  Uiso   1.00
H353   H     0.31817   0.24407   0.04185   0.00000  Uiso   1.00
H354   H     0.33070   0.11820   0.99027   0.00000  Uiso   1.00
H355   H     0.37896   0.29023   0.16574   0.00000  Uiso   1.00
H356   H     0.22868   0.32544   0.97393   0.00000  Uiso   1.00
H357   H     0.37012   0.97608   0.92626   0.00000  Uiso   1.00
H358   H     0.47186   0.33883   0.29624   0.00000  Uiso   1.00
H359   H     0.15496   0.41308   0.89179   0.00000  Uiso   1.00
O360   O     0.46604   0.88445   0.86882   0.00000  Uiso   1.00
O361   O     0.59951   0.36038   0.35422   0.00000  Uiso   1.00
O362   O     0.18375   0.45779   0.82358   0.00000  Uiso   1.00
N363   N     0.49702   0.98041   0.89881   0.00000  Uiso   1.00
N364   N     0.59214   0.31955   0.24472   0.00000  Uiso   1.00
N365   N     0.29588   0.38898   0.86660   0.00000  Uiso   1.00
N366   N     0.40650   0.98952   0.92310   0.00000  Uiso   1.00
N367   N     0.50162   0.32866   0.26901   0.00000  Uiso   1.00
N368   N     0.20536   0.39809   0.89089   0.00000  Uiso   1.00
C369   C     0.50386   0.29385   0.78706   0.00000  Uiso   1.00
C370   C     0.50846   0.33042   0.85825   0.00000  Uiso   1.00
C371   C     0.55680   0.30675   0.91088   0.00000  Uiso   1.00
C372   C     0.55235   0.34775   0.97217   0.00000  Uiso   1.00
C373   C     0.56727   0.39506   0.08145   0.00000  Uiso   1.00
C374   C     0.51172   0.33999   0.76226   0.00000  Uiso   1.00
C375   C     0.56279   0.32435   0.73417   0.00000  Uiso   1.00
C376   C     0.56107   0.37339   0.71464   0.00000  Uiso   1.00
C377   C     0.58102   0.43553   0.67485   0.00000  Uiso   1.00
C378   C     0.42708   0.28989   0.75112   0.00000  Uiso   1.00
C379   C     0.40698   0.23213   0.71367   0.00000  Uiso   1.00
C380   C     0.33399   0.23900   0.68475   0.00000  Uiso   1.00
C381   C     0.22251   0.22336   0.62768   0.00000  Uiso   1.00
C382   C     0.40998   0.40876   0.80230   0.00000  Uiso   1.00
C383   C     0.45747   0.39284   0.86653   0.00000  Uiso   1.00
C384   C     0.45293   0.43388   0.92775   0.00000  Uiso   1.00
C385   C     0.50126   0.41027   0.98046   0.00000  Uiso   1.00
C386   C     0.46073   0.40240   0.77053   0.00000  Uiso   1.00
C387   C     0.45892   0.45148   0.75104   0.00000  Uiso   1.00
C388   C     0.50999   0.43592   0.72294   0.00000  Uiso   1.00
C389   C     0.37608   0.35230   0.75940   0.00000  Uiso   1.00
C390   C     0.30311   0.35926   0.73054   0.00000  Uiso   1.00
C391   C     0.28290   0.30153   0.69305   0.00000  Uiso   1.00
H392   H     0.54356   0.24526   0.78061   0.00000  Uiso   1.00
H393   H     0.59626   0.25845   0.90445   0.00000  Uiso   1.00
H394   H     0.60224   0.27604   0.72777   0.00000  Uiso   1.00
H395   H     0.44645   0.18384   0.70727   0.00000  Uiso   1.00
H396   H     0.63222   0.30060   0.04541   0.00000  Uiso   1.00
H397   H     0.64482   0.33769   0.67284   0.00000  Uiso   1.00
H398   H     0.31630   0.14327   0.62961   0.00000  Uiso   1.00
H399   H     0.37028   0.45735   0.80875   0.00000  Uiso   1.00
H400   H     0.41347   0.48218   0.93414   0.00000  Uiso   1.00
H401   H     0.41945   0.49977   0.75745   0.00000  Uiso   1.00
H402   H     0.26366   0.40757   0.73695   0.00000  Uiso   1.00
H403   H     0.48386   0.48219   0.06950   0.00000  Uiso   1.00
H404   H     0.49646   0.51928   0.69693   0.00000  Uiso   1.00
H405   H     0.16794   0.32486   0.65370   0.00000  Uiso   1.00
O406   O     0.58960   0.40391   0.13944   0.00000  Uiso   1.00
O407   O     0.60611   0.45256   0.65062   0.00000  Uiso   1.00
O408   O     0.17511   0.19749   0.59391   0.00000  Uiso   1.00
N409   N     0.59137   0.33993   0.03387   0.00000  Uiso   1.00
N410   N     0.60315   0.37460   0.68555   0.00000  Uiso   1.00
N411   N     0.29602   0.19284   0.64512   0.00000  Uiso   1.00
N412   N     0.51153   0.43764   0.04684   0.00000  Uiso   1.00
N413   N     0.52332   0.47232   0.69851   0.00000  Uiso   1.00
N414   N     0.21619   0.29055   0.65808   0.00000  Uiso   1.00
C415   C     0.22923   0.56892   0.19530   0.00000  Uiso   1.00
C416   C     0.22358   0.50090   0.18206   0.00000  Uiso   1.00
C417   C     0.27065   0.45641   0.21759   0.00000  Uiso   1.00
C418   C     0.25618   0.39676   0.19770   0.00000  Uiso   1.00
C419   C     0.25646   0.29334   0.18526   0.00000  Uiso   1.00
C420   C     0.23083   0.56881   0.13224   0.00000  Uiso   1.00
C421   C     0.28400   0.58143   0.12590   0.00000  Uiso   1.00
C422   C     0.27563   0.57895   0.06406   0.00000  Uiso   1.00
C423   C     0.28715   0.58102   0.97430   0.00000  Uiso   1.00
C424   C     0.15831   0.61866   0.20407   0.00000  Uiso   1.00
C425   C     0.15050   0.67321   0.25810   0.00000  Uiso   1.00
C426   C     0.08108   0.71272   0.25672   0.00000  Uiso   1.00
C427   C     0.98000   0.79220   0.27847   0.00000  Uiso   1.00
C428   C     0.11982   0.54210   0.09678   0.00000  Uiso   1.00
C429   C     0.16415   0.48633   0.12855   0.00000  Uiso   1.00
C430   C     0.14960   0.42674   0.10859   0.00000  Uiso   1.00
C431   C     0.19665   0.38217   0.14409   0.00000  Uiso   1.00
C432   C     0.17141   0.55424   0.07873   0.00000  Uiso   1.00
C433   C     0.16295   0.55175   0.01690   0.00000  Uiso   1.00
C434   C     0.21610   0.56436   0.01045   0.00000  Uiso   1.00
C435   C     0.09888   0.60410   0.15055   0.00000  Uiso   1.00
C436   C     0.02946   0.64354   0.14910   0.00000  Uiso   1.00
C437   C     0.02154   0.69813   0.20311   0.00000  Uiso   1.00
H438   H     0.27550   0.58026   0.23696   0.00000  Uiso   1.00
H439   H     0.31664   0.46770   0.25900   0.00000  Uiso   1.00
H440   H     0.32998   0.59271   0.16732   0.00000  Uiso   1.00
H441   H     0.19650   0.68447   0.29950   0.00000  Uiso   1.00
H442   H     0.33606   0.33647   0.25982   0.00000  Uiso   1.00
H443   H     0.36418   0.60007   0.06651   0.00000  Uiso   1.00
H444   H     0.08272   0.79358   0.34524   0.00000  Uiso   1.00
H445   H     0.07355   0.53076   0.05511   0.00000  Uiso   1.00
H446   H     0.10361   0.41548   0.06718   0.00000  Uiso   1.00
H447   H     0.11696   0.54048   0.97550   0.00000  Uiso   1.00
H448   H     0.98348   0.63225   0.10768   0.00000  Uiso   1.00
H449   H     0.16316   0.29408   0.10413   0.00000  Uiso   1.00
H450   H     0.19128   0.55769   0.91082   0.00000  Uiso   1.00
H451   H     0.90982   0.75119   0.18955   0.00000  Uiso   1.00
O452   O     0.27304   0.24032   0.19318   0.00000  Uiso   1.00
O453   O     0.30993   0.58618   0.93957   0.00000  Uiso   1.00
O454   O     0.94066   0.84005   0.30526   0.00000  Uiso   1.00
N455   N     0.29123   0.34232   0.22154   0.00000  Uiso   1.00
N456   N     0.31753   0.58876   0.04080   0.00000  Uiso   1.00
N457   N     0.05439   0.76969   0.30138   0.00000  Uiso   1.00
N458   N     0.19820   0.31951   0.13776   0.00000  Uiso   1.00
N459   N     0.22450   0.56596   0.95702   0.00000  Uiso   1.00
N460   N     0.96135   0.74688   0.21760   0.00000  Uiso   1.00
C461   C     0.24000   0.76323   0.54365   0.00000  Uiso   1.00
C462   C     0.25103   0.79344   0.50467   0.00000  Uiso   1.00
C463   C     0.30765   0.76789   0.48033   0.00000  Uiso   1.00
C464   C     0.30806   0.80288   0.44594   0.00000  Uiso   1.00
C465   C     0.33346   0.84092   0.38690   0.00000  Uiso   1.00
C466   C     0.23456   0.81735   0.60740   0.00000  Uiso   1.00
C467   C     0.27733   0.81189   0.66944   0.00000  Uiso   1.00
C468   C     0.26387   0.86701   0.72152   0.00000  Uiso   1.00
C469   C     0.26367   0.94216   0.82198   0.00000  Uiso   1.00
C470   C     0.16592   0.75262   0.50670   0.00000  Uiso   1.00
C471   C     0.15098   0.69275   0.48408   0.00000  Uiso   1.00
C472   C     0.07973   0.69337   0.45140   0.00000  Uiso   1.00
C473   C     0.97296   0.66802   0.39551   0.00000  Uiso   1.00
C474   C     0.14005   0.87081   0.52586   0.00000  Uiso   1.00
C475   C     0.19674   0.85187   0.49501   0.00000  Uiso   1.00
C476   C     0.19706   0.88691   0.46064   0.00000  Uiso   1.00
C477   C     0.25367   0.86142   0.43625   0.00000  Uiso   1.00
C478   C     0.18028   0.87578   0.59774   0.00000  Uiso   1.00
C479   C     0.16675   0.93092   0.64975   0.00000  Uiso   1.00
C480   C     0.20949   0.92555   0.71184   0.00000  Uiso   1.00
C481   C     0.11163   0.81105   0.49704   0.00000  Uiso   1.00
C482   C     0.04040   0.81177   0.46439   0.00000  Uiso   1.00
C483   C     0.02534   0.75191   0.44172   0.00000  Uiso   1.00
H484   H     0.28227   0.71774   0.55118   0.00000  Uiso   1.00
H485   H     0.34965   0.72267   0.48782   0.00000  Uiso   1.00
H486   H     0.31933   0.76667   0.67690   0.00000  Uiso   1.00
H487   H     0.19300   0.64754   0.49157   0.00000  Uiso   1.00
H488   H     0.40044   0.75392   0.41334   0.00000  Uiso   1.00
H489   H     0.33649   0.84668   0.81201   0.00000  Uiso   1.00
H490   H     0.07009   0.59548   0.42121   0.00000  Uiso   1.00
H491   H     0.09778   0.91630   0.51834   0.00000  Uiso   1.00
H492   H     0.15505   0.93213   0.45317   0.00000  Uiso   1.00
H493   H     0.12473   0.97613   0.64225   0.00000  Uiso   1.00
H494   H     0.99840   0.85700   0.45692   0.00000  Uiso   1.00
H495   H     0.24249   0.92393   0.38521   0.00000  Uiso   1.00
H496   H     0.17854   0.01669   0.78389   0.00000  Uiso   1.00
H497   H     0.91215   0.76549   0.39309   0.00000  Uiso   1.00
O498   O     0.36247   0.84577   0.35702   0.00000  Uiso   1.00
O499   O     0.27857   0.96746   0.88007   0.00000  Uiso   1.00
O500   O     0.92907   0.63789   0.36735   0.00000  Uiso   1.00
N501   N     0.35540   0.79175   0.41565   0.00000  Uiso   1.00
N502   N     0.29562   0.87848   0.78839   0.00000  Uiso   1.00
N503   N     0.04656   0.64363   0.42304   0.00000  Uiso   1.00
N504   N     0.27041   0.88323   0.40052   0.00000  Uiso   1.00
N505   N     0.21063   0.96997   0.77326   0.00000  Uiso   1.00
N506   N     0.96157   0.73511   0.40791   0.00000  Uiso   1.00
C507   C     0.22536   0.43551   0.40139   0.00000  Uiso   1.00
C508   C     0.22014   0.48432   0.46748   0.00000  Uiso   1.00
C509   C     0.26767   0.52088   0.51209   0.00000  Uiso   1.00
C510   C     0.25355   0.56281   0.56979   0.00000  Uiso   1.00
C511   C     0.25452   0.63779   0.67051   0.00000  Uiso   1.00
C512   C     0.22636   0.36960   0.40134   0.00000  Uiso   1.00
C513   C     0.27912   0.30969   0.39034   0.00000  Uiso   1.00
C514   C     0.27023   0.25504   0.39236   0.00000  Uiso   1.00
C515   C     0.28084   0.15190   0.39036   0.00000  Uiso   1.00
C516   C     0.15448   0.45908   0.35120   0.00000  Uiso   1.00
C517   C     0.14679   0.47440   0.29803   0.00000  Uiso   1.00
C518   C     0.07737   0.49508   0.25782   0.00000  Uiso   1.00
C519   C     0.97636   0.53088   0.17798   0.00000  Uiso   1.00
C520   C     0.11577   0.44496   0.42453   0.00000  Uiso   1.00
C521   C     0.16062   0.48945   0.48005   0.00000  Uiso   1.00
C522   C     0.14642   0.53134   0.53770   0.00000  Uiso   1.00
C523   C     0.19392   0.56795   0.58238   0.00000  Uiso   1.00
C524   C     0.16684   0.37473   0.41392   0.00000  Uiso   1.00
C525   C     0.15787   0.32015   0.41595   0.00000  Uiso   1.00
C526   C     0.21060   0.26018   0.40495   0.00000  Uiso   1.00
C527   C     0.09495   0.46422   0.36378   0.00000  Uiso   1.00
C528   C     0.02554   0.48486   0.32364   0.00000  Uiso   1.00
C529   C     0.01774   0.50022   0.27042   0.00000  Uiso   1.00
H530   H     0.27170   0.43151   0.39160   0.00000  Uiso   1.00
H531   H     0.31373   0.51689   0.50234   0.00000  Uiso   1.00
H532   H     0.32517   0.30573   0.38061   0.00000  Uiso   1.00
H533   H     0.19286   0.47043   0.28832   0.00000  Uiso   1.00
H534   H     0.33409   0.61380   0.63068   0.00000  Uiso   1.00
H535   H     0.35821   0.16856   0.37397   0.00000  Uiso   1.00
H536   H     0.07920   0.51584   0.17935   0.00000  Uiso   1.00
H537   H     0.06942   0.44895   0.43432   0.00000  Uiso   1.00
H538   H     0.10035   0.53530   0.54741   0.00000  Uiso   1.00
H539   H     0.11180   0.32414   0.42568   0.00000  Uiso   1.00
H540   H     0.97949   0.48883   0.33339   0.00000  Uiso   1.00
H541   H     0.16091   0.62873   0.66726   0.00000  Uiso   1.00
H542   H     0.18502   0.18349   0.41054   0.00000  Uiso   1.00
H543   H     0.90602   0.53077   0.21593   0.00000  Uiso   1.00
O544   O     0.27151   0.67773   0.72260   0.00000  Uiso   1.00
O545   O     0.30314   0.09359   0.38579   0.00000  Uiso   1.00
O546   O     0.93709   0.54922   0.13047   0.00000  Uiso   1.00
N547   N     0.28908   0.60547   0.62376   0.00000  Uiso   1.00
N548   N     0.31163   0.18920   0.38376   0.00000  Uiso   1.00
N549   N     0.05079   0.51386   0.20180   0.00000  Uiso   1.00
N550   N     0.19589   0.61351   0.64344   0.00000  Uiso   1.00
N551   N     0.21844   0.19724   0.40345   0.00000  Uiso   1.00
N552   N     0.95760   0.52190   0.22149   0.00000  Uiso   1.00
