data_job_04598
_audit_creation_date              2018-12-19
_audit_creation_method            'Materials Studio'
_symmetry_space_group_name_H-M    'P1'
_symmetry_Int_Tables_number       1
_symmetry_cell_setting            triclinic
loop_
_symmetry_equiv_pos_as_xyz
  x,y,z
_cell_length_a                    12.3121
_cell_length_b                    16.9283
_cell_length_c                    35.3031
_cell_angle_alpha                 90.0000
_cell_angle_beta                  133.9055
_cell_angle_gamma                 90.0000
loop_
_atom_site_label
_atom_site_type_symbol
_atom_site_fract_x
_atom_site_fract_y
_atom_site_fract_z
_atom_site_U_iso_or_equiv
_atom_site_adp_type
_atom_site_occupancy
C1     C     0.66130   0.85727   0.12709   0.00000  Uiso   1.00
C2     C     0.64508   0.84338   0.08069   0.00000  Uiso   1.00
C3     C     0.71489   0.88695   0.06927   0.00000  Uiso   1.00
C4     C     0.68557   0.86490   0.02502   0.00000  Uiso   1.00
C5     C     0.67488   0.85299   0.95776   0.00000  Uiso   1.00
C6     C     0.50182   0.86919   0.10360   0.00000  Uiso   1.00
C7     C     0.45119   0.93447   0.11146   0.00000  Uiso   1.00
C8     C     0.30128   0.93415   0.08650   0.00000  Uiso   1.00
C9     C     0.06821   0.96229   0.05485   0.00000  Uiso   1.00
C10    C     0.71622   0.77932   0.15705   0.00000  Uiso   1.00
C11    C     0.84585   0.76902   0.20985   0.00000  Uiso   1.00
C12    C     0.87642   0.69304   0.22990   0.00000  Uiso   1.00
C13    C     0.97625   0.58163   0.28124   0.00000  Uiso   1.00
C14    C     0.48508   0.74063   0.06881   0.00000  Uiso   1.00
C15    C     0.54936   0.78002   0.04903   0.00000  Uiso   1.00
C16    C     0.51993   0.75790   0.00479   0.00000  Uiso   1.00
C17    C     0.58969   0.80143   0.99331   0.00000  Uiso   1.00
C18    C     0.40610   0.80585   0.07195   0.00000  Uiso   1.00
C19    C     0.25623   0.80542   0.04698   0.00000  Uiso   1.00
C20    C     0.20539   0.87068   0.05479   0.00000  Uiso   1.00
C21    C     0.62051   0.71596   0.12540   0.00000  Uiso   1.00
C22    C     0.65088   0.63998   0.14537   0.00000  Uiso   1.00
C23    C     0.78053   0.62957   0.19819   0.00000  Uiso   1.00
H24    H     0.73581   0.90659   0.15174   0.00000  Uiso   1.00
H25    H     0.78895   0.93598   0.09377   0.00000  Uiso   1.00
H26    H     0.52529   0.98348   0.13596   0.00000  Uiso   1.00
H27    H     0.91989   0.81806   0.23433   0.00000  Uiso   1.00
H28    H     0.80561   0.94063   0.01554   0.00000  Uiso   1.00
H29    H     0.24970   0.04079   0.10450   0.00000  Uiso   1.00
H30    H     0.08177   0.69197   0.31195   0.00000  Uiso   1.00
H31    H     0.41055   0.69131   0.04417   0.00000  Uiso   1.00
H32    H     0.44585   0.70888   0.98030   0.00000  Uiso   1.00
H33    H     0.18219   0.75639   0.02249   0.00000  Uiso   1.00
H34    H     0.57679   0.59097   0.12086   0.00000  Uiso   1.00
H35    H     0.52713   0.75631   0.92344   0.00000  Uiso   1.00
H36    H     0.97122   0.85647   0.01241   0.00000  Uiso   1.00
H37    H     0.80330   0.50765   0.21985   0.00000  Uiso   1.00
O38    O     0.69542   0.86393   0.92941   0.00000  Uiso   1.00
O39    O     0.96610   0.99532   0.04614   0.00000  Uiso   1.00
O40    O     0.05776   0.53768   0.31830   0.00000  Uiso   1.00
N41    N     0.73525   0.89483   0.00263   0.00000  Uiso   1.00
N42    N     0.21550   0.98848   0.08581   0.00000  Uiso   1.00
N43    N     0.99340   0.66237   0.27975   0.00000  Uiso   1.00
N44    N     0.58540   0.79565   0.95308   0.00000  Uiso   1.00
N45    N     0.06565   0.88930   0.03625   0.00000  Uiso   1.00
N46    N     0.84356   0.56318   0.23020   0.00000  Uiso   1.00
C47    C     0.18507   0.94954   0.68442   0.00000  Uiso   1.00
C48    C     0.18587   0.94905   0.64142   0.00000  Uiso   1.00
C49    C     0.29169   0.98590   0.64408   0.00000  Uiso   1.00
C50    C     0.27264   0.97851   0.60060   0.00000  Uiso   1.00
C51    C     0.29218   0.98427   0.54059   0.00000  Uiso   1.00
C52    C     0.03201   0.98256   0.65907   0.00000  Uiso   1.00
C53    C     0.00848   0.04760   0.67658   0.00000  Uiso   1.00
C54    C     0.85990   0.06841   0.64795   0.00000  Uiso   1.00
C55    C     0.64058   0.12617   0.61537   0.00000  Uiso   1.00
C56    C     0.18517   0.86311   0.69661   0.00000  Uiso   1.00
C57    C     0.29039   0.82771   0.74569   0.00000  Uiso   1.00
C58    C     0.27074   0.74795   0.74867   0.00000  Uiso   1.00
C59    C     0.28922   0.62025   0.77438   0.00000  Uiso   1.00
C60    C     0.96305   0.87087   0.60247   0.00000  Uiso   1.00
C61    C     0.06528   0.90631   0.59691   0.00000  Uiso   1.00
C62    C     0.04606   0.89886   0.55341   0.00000  Uiso   1.00
C63    C     0.15184   0.93570   0.55601   0.00000  Uiso   1.00
C64    C     0.91142   0.93983   0.61456   0.00000  Uiso   1.00
C65    C     0.76285   0.96055   0.58590   0.00000  Uiso   1.00
C66    C     0.73910   0.02560   0.60336   0.00000  Uiso   1.00
C67    C     0.06458   0.82038   0.65210   0.00000  Uiso   1.00
C68    C     0.04476   0.74066   0.65501   0.00000  Uiso   1.00
C69    C     0.14993   0.70514   0.70408   0.00000  Uiso   1.00
H70    H     0.27894   0.98282   0.71908   0.00000  Uiso   1.00
H71    H     0.38499   0.01898   0.67854   0.00000  Uiso   1.00
H72    H     0.10182   0.08065   0.71103   0.00000  Uiso   1.00
H73    H     0.38369   0.86080   0.78012   0.00000  Uiso   1.00
H74    H     0.44935   0.04025   0.61395   0.00000  Uiso   1.00
H75    H     0.85228   0.17027   0.68247   0.00000  Uiso   1.00
H76    H     0.44665   0.70667   0.82818   0.00000  Uiso   1.00
H77    H     0.86916   0.83760   0.56781   0.00000  Uiso   1.00
H78    H     0.95273   0.86579   0.51897   0.00000  Uiso   1.00
H79    H     0.66956   0.92746   0.55146   0.00000  Uiso   1.00
H80    H     0.95143   0.70761   0.62056   0.00000  Uiso   1.00
H81    H     0.09851   0.91591   0.48444   0.00000  Uiso   1.00
H82    H     0.50143   0.04594   0.55296   0.00000  Uiso   1.00
H83    H     0.09581   0.58234   0.69866   0.00000  Uiso   1.00
O84    O     0.33626   0.99927   0.51979   0.00000  Uiso   1.00
O85    O     0.55293   0.16985   0.60969   0.00000  Uiso   1.00
O86    O     0.33274   0.56161   0.80085   0.00000  Uiso   1.00
N87    N     0.35533   0.00710   0.59018   0.00000  Uiso   1.00
N88    N     0.79710   0.12868   0.65423   0.00000  Uiso   1.00
N89    N     0.35277   0.69525   0.79046   0.00000  Uiso   1.00
N90    N     0.16654   0.94020   0.52049   0.00000  Uiso   1.00
N91    N     0.60831   0.06178   0.58455   0.00000  Uiso   1.00
N92    N     0.16398   0.62835   0.72077   0.00000  Uiso   1.00
C93    C     0.33870   0.35727   0.37291   0.00000  Uiso   1.00
C94    C     0.35492   0.34338   0.41931   0.00000  Uiso   1.00
C95    C     0.28511   0.38695   0.43073   0.00000  Uiso   1.00
C96    C     0.31443   0.36490   0.47498   0.00000  Uiso   1.00
C97    C     0.32512   0.35299   0.54224   0.00000  Uiso   1.00
C98    C     0.49818   0.36919   0.39640   0.00000  Uiso   1.00
C99    C     0.54881   0.43447   0.38854   0.00000  Uiso   1.00
C100   C     0.69872   0.43415   0.41350   0.00000  Uiso   1.00
C101   C     0.93179   0.46229   0.44515   0.00000  Uiso   1.00
C102   C     0.28378   0.27932   0.34295   0.00000  Uiso   1.00
C103   C     0.15415   0.26902   0.29015   0.00000  Uiso   1.00
C104   C     0.12358   0.19304   0.27010   0.00000  Uiso   1.00
C105   C     0.02375   0.08163   0.21876   0.00000  Uiso   1.00
C106   C     0.51492   0.24063   0.43119   0.00000  Uiso   1.00
C107   C     0.45064   0.28002   0.45097   0.00000  Uiso   1.00
C108   C     0.48007   0.25790   0.49521   0.00000  Uiso   1.00
C109   C     0.41031   0.30143   0.50669   0.00000  Uiso   1.00
C110   C     0.59390   0.30585   0.42805   0.00000  Uiso   1.00
C111   C     0.74377   0.30542   0.45302   0.00000  Uiso   1.00
C112   C     0.79461   0.37068   0.44521   0.00000  Uiso   1.00
C113   C     0.37949   0.21596   0.37460   0.00000  Uiso   1.00
C114   C     0.34912   0.13998   0.35463   0.00000  Uiso   1.00
C115   C     0.21947   0.12957   0.30181   0.00000  Uiso   1.00
H116   H     0.26419   0.40659   0.34826   0.00000  Uiso   1.00
H117   H     0.21105   0.43598   0.40623   0.00000  Uiso   1.00
H118   H     0.47471   0.48348   0.36404   0.00000  Uiso   1.00
H119   H     0.08011   0.31806   0.26567   0.00000  Uiso   1.00
H120   H     0.19439   0.44063   0.48446   0.00000  Uiso   1.00
H121   H     0.75030   0.54079   0.39550   0.00000  Uiso   1.00
H122   H     0.91823   0.19197   0.18805   0.00000  Uiso   1.00
H123   H     0.58945   0.19131   0.45583   0.00000  Uiso   1.00
H124   H     0.55415   0.20888   0.51970   0.00000  Uiso   1.00
H125   H     0.81781   0.25639   0.47751   0.00000  Uiso   1.00
H126   H     0.42321   0.09097   0.37914   0.00000  Uiso   1.00
H127   H     0.47287   0.25631   0.57656   0.00000  Uiso   1.00
H128   H     0.02878   0.35647   0.48759   0.00000  Uiso   1.00
H129   H     0.19670   0.00765   0.28015   0.00000  Uiso   1.00
O130   O     0.30458   0.36393   0.57059   0.00000  Uiso   1.00
O131   O     0.03390   0.49532   0.45386   0.00000  Uiso   1.00
O132   O     0.94224   0.03768   0.18170   0.00000  Uiso   1.00
N133   N     0.26475   0.39483   0.49737   0.00000  Uiso   1.00
N134   N     0.78450   0.48848   0.41419   0.00000  Uiso   1.00
N135   N     0.00660   0.16237   0.22025   0.00000  Uiso   1.00
N136   N     0.41460   0.29565   0.54692   0.00000  Uiso   1.00
N137   N     0.93435   0.38930   0.46375   0.00000  Uiso   1.00
N138   N     0.15644   0.06318   0.26980   0.00000  Uiso   1.00
C139   C     0.81493   0.44954   0.81558   0.00000  Uiso   1.00
C140   C     0.81413   0.44905   0.85858   0.00000  Uiso   1.00
C141   C     0.70831   0.48590   0.85592   0.00000  Uiso   1.00
C142   C     0.72736   0.47851   0.89940   0.00000  Uiso   1.00
C143   C     0.70782   0.48427   0.95941   0.00000  Uiso   1.00
C144   C     0.96799   0.48256   0.84093   0.00000  Uiso   1.00
C145   C     0.99152   0.54760   0.82342   0.00000  Uiso   1.00
C146   C     0.14010   0.56841   0.85205   0.00000  Uiso   1.00
C147   C     0.35942   0.62617   0.88463   0.00000  Uiso   1.00
C148   C     0.81483   0.36311   0.80339   0.00000  Uiso   1.00
C149   C     0.70961   0.32771   0.75431   0.00000  Uiso   1.00
C150   C     0.72926   0.24795   0.75133   0.00000  Uiso   1.00
C151   C     0.71078   0.12025   0.72562   0.00000  Uiso   1.00
C152   C     0.03695   0.37087   0.89753   0.00000  Uiso   1.00
C153   C     0.93472   0.40631   0.90309   0.00000  Uiso   1.00
C154   C     0.95394   0.39886   0.94659   0.00000  Uiso   1.00
C155   C     0.84816   0.43570   0.94399   0.00000  Uiso   1.00
C156   C     0.08858   0.43983   0.88544   0.00000  Uiso   1.00
C157   C     0.23715   0.46055   0.91410   0.00000  Uiso   1.00
C158   C     0.26090   0.52560   0.89664   0.00000  Uiso   1.00
C159   C     0.93542   0.32038   0.84790   0.00000  Uiso   1.00
C160   C     0.95524   0.24066   0.84499   0.00000  Uiso   1.00
C161   C     0.85007   0.20514   0.79592   0.00000  Uiso   1.00
H162   H     0.72106   0.48282   0.78092   0.00000  Uiso   1.00
H163   H     0.61501   0.51898   0.82146   0.00000  Uiso   1.00
H164   H     0.89818   0.58065   0.78897   0.00000  Uiso   1.00
H165   H     0.61631   0.36080   0.71988   0.00000  Uiso   1.00
H166   H     0.55065   0.54025   0.88605   0.00000  Uiso   1.00
H167   H     0.14772   0.67027   0.81753   0.00000  Uiso   1.00
H168   H     0.55335   0.20667   0.67182   0.00000  Uiso   1.00
H169   H     0.13084   0.33760   0.93219   0.00000  Uiso   1.00
H170   H     0.04727   0.36579   0.98103   0.00000  Uiso   1.00
H171   H     0.33044   0.42746   0.94854   0.00000  Uiso   1.00
H172   H     0.04857   0.20761   0.87944   0.00000  Uiso   1.00
H173   H     0.90149   0.41591   0.01556   0.00000  Uiso   1.00
H174   H     0.49857   0.54594   0.94704   0.00000  Uiso   1.00
H175   H     0.90419   0.08234   0.80134   0.00000  Uiso   1.00
O176   O     0.66374   0.49927   0.98021   0.00000  Uiso   1.00
O177   O     0.44707   0.66985   0.89031   0.00000  Uiso   1.00
O178   O     0.66726   0.06161   0.69915   0.00000  Uiso   1.00
N179   N     0.64467   0.50710   0.90982   0.00000  Uiso   1.00
N180   N     0.20290   0.62868   0.84577   0.00000  Uiso   1.00
N181   N     0.64723   0.19525   0.70954   0.00000  Uiso   1.00
N182   N     0.83346   0.44020   0.97951   0.00000  Uiso   1.00
N183   N     0.39169   0.56178   0.91545   0.00000  Uiso   1.00
N184   N     0.83602   0.12835   0.77923   0.00000  Uiso   1.00
C185   C     0.33870   0.14273   0.87291   0.00000  Uiso   1.00
C186   C     0.35492   0.15662   0.91931   0.00000  Uiso   1.00
C187   C     0.28511   0.11305   0.93073   0.00000  Uiso   1.00
C188   C     0.31443   0.13510   0.97498   0.00000  Uiso   1.00
C189   C     0.32512   0.14701   0.04224   0.00000  Uiso   1.00
C190   C     0.49818   0.13081   0.89640   0.00000  Uiso   1.00
C191   C     0.54881   0.06553   0.88854   0.00000  Uiso   1.00
C192   C     0.69872   0.06585   0.91350   0.00000  Uiso   1.00
C193   C     0.93179   0.03771   0.94515   0.00000  Uiso   1.00
C194   C     0.28378   0.22068   0.84295   0.00000  Uiso   1.00
C195   C     0.15415   0.23098   0.79015   0.00000  Uiso   1.00
C196   C     0.12358   0.30696   0.77010   0.00000  Uiso   1.00
C197   C     0.02375   0.41837   0.71876   0.00000  Uiso   1.00
C198   C     0.51492   0.25937   0.93119   0.00000  Uiso   1.00
C199   C     0.45064   0.21998   0.95097   0.00000  Uiso   1.00
C200   C     0.48007   0.24210   0.99521   0.00000  Uiso   1.00
C201   C     0.41031   0.19857   0.00669   0.00000  Uiso   1.00
C202   C     0.59390   0.19415   0.92805   0.00000  Uiso   1.00
C203   C     0.74377   0.19458   0.95302   0.00000  Uiso   1.00
C204   C     0.79461   0.12932   0.94521   0.00000  Uiso   1.00
C205   C     0.37949   0.28404   0.87460   0.00000  Uiso   1.00
C206   C     0.34912   0.36002   0.85463   0.00000  Uiso   1.00
C207   C     0.21947   0.37043   0.80181   0.00000  Uiso   1.00
H208   H     0.26419   0.09341   0.84826   0.00000  Uiso   1.00
H209   H     0.21105   0.06402   0.90623   0.00000  Uiso   1.00
H210   H     0.47471   0.01652   0.86404   0.00000  Uiso   1.00
H211   H     0.08011   0.18194   0.76567   0.00000  Uiso   1.00
H212   H     0.19439   0.05937   0.98446   0.00000  Uiso   1.00
H213   H     0.75030   0.95921   0.89550   0.00000  Uiso   1.00
H214   H     0.91823   0.30803   0.68805   0.00000  Uiso   1.00
H215   H     0.58945   0.30869   0.95583   0.00000  Uiso   1.00
H216   H     0.55415   0.29112   0.01970   0.00000  Uiso   1.00
H217   H     0.81781   0.24361   0.97751   0.00000  Uiso   1.00
H218   H     0.42321   0.40903   0.87914   0.00000  Uiso   1.00
H219   H     0.47287   0.24369   0.07656   0.00000  Uiso   1.00
H220   H     0.02878   0.14353   0.98759   0.00000  Uiso   1.00
H221   H     0.19670   0.49235   0.78015   0.00000  Uiso   1.00
O222   O     0.30458   0.13607   0.07059   0.00000  Uiso   1.00
O223   O     0.03390   0.00468   0.95386   0.00000  Uiso   1.00
O224   O     0.94224   0.46232   0.68170   0.00000  Uiso   1.00
N225   N     0.26475   0.10517   0.99737   0.00000  Uiso   1.00
N226   N     0.78450   0.01152   0.91419   0.00000  Uiso   1.00
N227   N     0.00660   0.33763   0.72025   0.00000  Uiso   1.00
N228   N     0.41460   0.20435   0.04692   0.00000  Uiso   1.00
N229   N     0.93435   0.11070   0.96375   0.00000  Uiso   1.00
N230   N     0.15644   0.43682   0.76980   0.00000  Uiso   1.00
C231   C     0.81493   0.05046   0.31558   0.00000  Uiso   1.00
C232   C     0.81413   0.05095   0.35858   0.00000  Uiso   1.00
C233   C     0.70831   0.01410   0.35592   0.00000  Uiso   1.00
C234   C     0.72736   0.02149   0.39940   0.00000  Uiso   1.00
C235   C     0.70782   0.01573   0.45941   0.00000  Uiso   1.00
C236   C     0.96799   0.01744   0.34093   0.00000  Uiso   1.00
C237   C     0.99152   0.95240   0.32342   0.00000  Uiso   1.00
C238   C     0.14010   0.93159   0.35205   0.00000  Uiso   1.00
C239   C     0.35942   0.87383   0.38463   0.00000  Uiso   1.00
C240   C     0.81483   0.13689   0.30339   0.00000  Uiso   1.00
C241   C     0.70961   0.17229   0.25431   0.00000  Uiso   1.00
C242   C     0.72926   0.25205   0.25133   0.00000  Uiso   1.00
C243   C     0.71078   0.37975   0.22562   0.00000  Uiso   1.00
C244   C     0.03695   0.12913   0.39753   0.00000  Uiso   1.00
C245   C     0.93472   0.09369   0.40309   0.00000  Uiso   1.00
C246   C     0.95394   0.10114   0.44659   0.00000  Uiso   1.00
C247   C     0.84816   0.06430   0.44399   0.00000  Uiso   1.00
C248   C     0.08858   0.06017   0.38544   0.00000  Uiso   1.00
C249   C     0.23715   0.03945   0.41410   0.00000  Uiso   1.00
C250   C     0.26090   0.97440   0.39664   0.00000  Uiso   1.00
C251   C     0.93542   0.17962   0.34790   0.00000  Uiso   1.00
C252   C     0.95524   0.25934   0.34499   0.00000  Uiso   1.00
C253   C     0.85007   0.29486   0.29592   0.00000  Uiso   1.00
H254   H     0.72106   0.01718   0.28092   0.00000  Uiso   1.00
H255   H     0.61501   0.98102   0.32146   0.00000  Uiso   1.00
H256   H     0.89818   0.91935   0.28897   0.00000  Uiso   1.00
H257   H     0.61631   0.13920   0.21988   0.00000  Uiso   1.00
H258   H     0.55065   0.95975   0.38605   0.00000  Uiso   1.00
H259   H     0.14772   0.82973   0.31753   0.00000  Uiso   1.00
H260   H     0.55335   0.29333   0.17182   0.00000  Uiso   1.00
H261   H     0.13084   0.16240   0.43219   0.00000  Uiso   1.00
H262   H     0.04727   0.13421   0.48103   0.00000  Uiso   1.00
H263   H     0.33044   0.07254   0.44854   0.00000  Uiso   1.00
H264   H     0.04857   0.29239   0.37944   0.00000  Uiso   1.00
H265   H     0.90149   0.08409   0.51556   0.00000  Uiso   1.00
H266   H     0.49857   0.95406   0.44704   0.00000  Uiso   1.00
H267   H     0.90419   0.41766   0.30134   0.00000  Uiso   1.00
O268   O     0.66374   0.00073   0.48021   0.00000  Uiso   1.00
O269   O     0.44707   0.83015   0.39031   0.00000  Uiso   1.00
O270   O     0.66726   0.43839   0.19915   0.00000  Uiso   1.00
N271   N     0.64467   0.99290   0.40982   0.00000  Uiso   1.00
N272   N     0.20290   0.87132   0.34577   0.00000  Uiso   1.00
N273   N     0.64723   0.30475   0.20954   0.00000  Uiso   1.00
N274   N     0.83346   0.05980   0.47951   0.00000  Uiso   1.00
N275   N     0.39169   0.93822   0.41545   0.00000  Uiso   1.00
N276   N     0.83602   0.37165   0.27923   0.00000  Uiso   1.00
C277   C     0.66130   0.64273   0.62709   0.00000  Uiso   1.00
C278   C     0.64508   0.65662   0.58069   0.00000  Uiso   1.00
C279   C     0.71489   0.61305   0.56927   0.00000  Uiso   1.00
C280   C     0.68557   0.63510   0.52502   0.00000  Uiso   1.00
C281   C     0.67488   0.64701   0.45776   0.00000  Uiso   1.00
C282   C     0.50182   0.63081   0.60360   0.00000  Uiso   1.00
C283   C     0.45119   0.56553   0.61146   0.00000  Uiso   1.00
C284   C     0.30128   0.56585   0.58650   0.00000  Uiso   1.00
C285   C     0.06821   0.53771   0.55485   0.00000  Uiso   1.00
C286   C     0.71622   0.72068   0.65705   0.00000  Uiso   1.00
C287   C     0.84585   0.73098   0.70985   0.00000  Uiso   1.00
C288   C     0.87642   0.80696   0.72990   0.00000  Uiso   1.00
C289   C     0.97625   0.91837   0.78124   0.00000  Uiso   1.00
C290   C     0.48508   0.75937   0.56881   0.00000  Uiso   1.00
C291   C     0.54936   0.71998   0.54903   0.00000  Uiso   1.00
C292   C     0.51993   0.74210   0.50479   0.00000  Uiso   1.00
C293   C     0.58969   0.69857   0.49331   0.00000  Uiso   1.00
C294   C     0.40610   0.69415   0.57195   0.00000  Uiso   1.00
C295   C     0.25623   0.69458   0.54698   0.00000  Uiso   1.00
C296   C     0.20539   0.62932   0.55479   0.00000  Uiso   1.00
C297   C     0.62051   0.78404   0.62540   0.00000  Uiso   1.00
C298   C     0.65088   0.86002   0.64537   0.00000  Uiso   1.00
C299   C     0.78053   0.87043   0.69819   0.00000  Uiso   1.00
H300   H     0.73581   0.59341   0.65174   0.00000  Uiso   1.00
H301   H     0.78895   0.56402   0.59377   0.00000  Uiso   1.00
H302   H     0.52529   0.51652   0.63596   0.00000  Uiso   1.00
H303   H     0.91989   0.68194   0.73433   0.00000  Uiso   1.00
H304   H     0.80561   0.55937   0.51554   0.00000  Uiso   1.00
H305   H     0.24970   0.45921   0.60450   0.00000  Uiso   1.00
H306   H     0.08177   0.80803   0.81195   0.00000  Uiso   1.00
H307   H     0.41055   0.80869   0.54417   0.00000  Uiso   1.00
H308   H     0.44585   0.79112   0.48030   0.00000  Uiso   1.00
H309   H     0.18219   0.74361   0.52249   0.00000  Uiso   1.00
H310   H     0.57679   0.90903   0.62086   0.00000  Uiso   1.00
H311   H     0.52713   0.74369   0.42344   0.00000  Uiso   1.00
H312   H     0.97122   0.64353   0.51241   0.00000  Uiso   1.00
H313   H     0.80330   0.99235   0.71985   0.00000  Uiso   1.00
O314   O     0.69542   0.63607   0.42941   0.00000  Uiso   1.00
O315   O     0.96610   0.50468   0.54614   0.00000  Uiso   1.00
O316   O     0.05776   0.96232   0.81830   0.00000  Uiso   1.00
N317   N     0.73525   0.60517   0.50263   0.00000  Uiso   1.00
N318   N     0.21550   0.51152   0.58581   0.00000  Uiso   1.00
N319   N     0.99340   0.83763   0.77975   0.00000  Uiso   1.00
N320   N     0.58540   0.70435   0.45308   0.00000  Uiso   1.00
N321   N     0.06565   0.61070   0.53625   0.00000  Uiso   1.00
N322   N     0.84356   0.93682   0.73020   0.00000  Uiso   1.00
C323   C     0.18507   0.55046   0.18442   0.00000  Uiso   1.00
C324   C     0.18587   0.55095   0.14142   0.00000  Uiso   1.00
C325   C     0.29169   0.51410   0.14408   0.00000  Uiso   1.00
C326   C     0.27264   0.52149   0.10060   0.00000  Uiso   1.00
C327   C     0.29218   0.51573   0.04059   0.00000  Uiso   1.00
C328   C     0.03201   0.51744   0.15907   0.00000  Uiso   1.00
C329   C     0.00848   0.45240   0.17658   0.00000  Uiso   1.00
C330   C     0.85990   0.43159   0.14795   0.00000  Uiso   1.00
C331   C     0.64058   0.37383   0.11537   0.00000  Uiso   1.00
C332   C     0.18517   0.63689   0.19661   0.00000  Uiso   1.00
C333   C     0.29039   0.67229   0.24569   0.00000  Uiso   1.00
C334   C     0.27074   0.75205   0.24867   0.00000  Uiso   1.00
C335   C     0.28922   0.87975   0.27438   0.00000  Uiso   1.00
C336   C     0.96305   0.62913   0.10247   0.00000  Uiso   1.00
C337   C     0.06528   0.59369   0.09691   0.00000  Uiso   1.00
C338   C     0.04606   0.60114   0.05341   0.00000  Uiso   1.00
C339   C     0.15184   0.56430   0.05601   0.00000  Uiso   1.00
C340   C     0.91142   0.56017   0.11456   0.00000  Uiso   1.00
C341   C     0.76285   0.53945   0.08590   0.00000  Uiso   1.00
C342   C     0.73910   0.47440   0.10336   0.00000  Uiso   1.00
C343   C     0.06458   0.67962   0.15210   0.00000  Uiso   1.00
C344   C     0.04476   0.75934   0.15501   0.00000  Uiso   1.00
C345   C     0.14993   0.79486   0.20408   0.00000  Uiso   1.00
H346   H     0.27894   0.51718   0.21908   0.00000  Uiso   1.00
H347   H     0.38499   0.48102   0.17854   0.00000  Uiso   1.00
H348   H     0.10182   0.41935   0.21103   0.00000  Uiso   1.00
H349   H     0.38369   0.63920   0.28012   0.00000  Uiso   1.00
H350   H     0.44935   0.45975   0.11395   0.00000  Uiso   1.00
H351   H     0.85228   0.32973   0.18247   0.00000  Uiso   1.00
H352   H     0.44665   0.79333   0.32818   0.00000  Uiso   1.00
H353   H     0.86916   0.66240   0.06781   0.00000  Uiso   1.00
H354   H     0.95273   0.63421   0.01897   0.00000  Uiso   1.00
H355   H     0.66956   0.57254   0.05146   0.00000  Uiso   1.00
H356   H     0.95143   0.79239   0.12056   0.00000  Uiso   1.00
H357   H     0.09851   0.58409   0.98444   0.00000  Uiso   1.00
H358   H     0.50143   0.45406   0.05296   0.00000  Uiso   1.00
H359   H     0.09581   0.91766   0.19866   0.00000  Uiso   1.00
O360   O     0.33626   0.50073   0.01979   0.00000  Uiso   1.00
O361   O     0.55293   0.33015   0.10969   0.00000  Uiso   1.00
O362   O     0.33274   0.93839   0.30085   0.00000  Uiso   1.00
N363   N     0.35533   0.49290   0.09018   0.00000  Uiso   1.00
N364   N     0.79710   0.37132   0.15423   0.00000  Uiso   1.00
N365   N     0.35277   0.80475   0.29046   0.00000  Uiso   1.00
N366   N     0.16654   0.55980   0.02049   0.00000  Uiso   1.00
N367   N     0.60831   0.43822   0.08455   0.00000  Uiso   1.00
N368   N     0.16398   0.87165   0.22077   0.00000  Uiso   1.00
