data_job_06451
_audit_creation_date              2018-12-19
_audit_creation_method            'Materials Studio'
_symmetry_space_group_name_H-M    'P1'
_symmetry_Int_Tables_number       1
_symmetry_cell_setting            triclinic
loop_
_symmetry_equiv_pos_as_xyz
  x,y,z
_cell_length_a                    8.9400
_cell_length_b                    24.7970
_cell_length_c                    24.8385
_cell_angle_alpha                 61.3330
_cell_angle_beta                  83.9240
_cell_angle_gamma                 96.0637
loop_
_atom_site_label
_atom_site_type_symbol
_atom_site_fract_x
_atom_site_fract_y
_atom_site_fract_z
_atom_site_U_iso_or_equiv
_atom_site_adp_type
_atom_site_occupancy
C1     C     0.04725   0.41355   0.85567   0.00000  Uiso   1.00
C2     C     0.08083   0.45627   0.78509   0.00000  Uiso   1.00
C3     C     0.99336   0.45292   0.74348   0.00000  Uiso   1.00
C4     C     0.04334   0.49625   0.68074   0.00000  Uiso   1.00
C5     C     0.07533   0.55572   0.57423   0.00000  Uiso   1.00
C6     C     0.18974   0.38482   0.87268   0.00000  Uiso   1.00
C7     C     0.19382   0.32138   0.90474   0.00000  Uiso   1.00
C8     C     0.33548   0.30456   0.91573   0.00000  Uiso   1.00
C9     C     0.53653   0.25309   0.94526   0.00000  Uiso   1.00
C10    C     0.03861   0.45636   0.88357   0.00000  Uiso   1.00
C11    C     0.91565   0.45308   0.92479   0.00000  Uiso   1.00
C12    C     0.93008   0.49648   0.94496   0.00000  Uiso   1.00
C13    C     0.89649   0.55610   0.99139   0.00000  Uiso   1.00
C14    C     0.29155   0.49645   0.81821   0.00000  Uiso   1.00
C15    C     0.21353   0.50130   0.76475   0.00000  Uiso   1.00
C16    C     0.26364   0.54465   0.70204   0.00000  Uiso   1.00
C17    C     0.17626   0.54136   0.66035   0.00000  Uiso   1.00
C18    C     0.32243   0.42984   0.85234   0.00000  Uiso   1.00
C19    C     0.46410   0.41311   0.86330   0.00000  Uiso   1.00
C20    C     0.46841   0.34967   0.89535   0.00000  Uiso   1.00
C21    C     0.17130   0.50139   0.86322   0.00000  Uiso   1.00
C22    C     0.18593   0.54481   0.88334   0.00000  Uiso   1.00
C23    C     0.06301   0.54159   0.92458   0.00000  Uiso   1.00
H24    H     0.94395   0.37849   0.87151   0.00000  Uiso   1.00
H25    H     0.89068   0.41806   0.75925   0.00000  Uiso   1.00
H26    H     0.09112   0.28655   0.92048   0.00000  Uiso   1.00
H27    H     0.81298   0.41822   0.94052   0.00000  Uiso   1.00
H28    H     0.89018   0.48179   0.62581   0.00000  Uiso   1.00
H29    H     0.31279   0.20447   0.96579   0.00000  Uiso   1.00
H30    H     0.72629   0.48214   0.00806   0.00000  Uiso   1.00
H31    H     0.39486   0.53151   0.80238   0.00000  Uiso   1.00
H32    H     0.36633   0.57949   0.68632   0.00000  Uiso   1.00
H33    H     0.56676   0.44797   0.84755   0.00000  Uiso   1.00
H34    H     0.28863   0.57965   0.86759   0.00000  Uiso   1.00
H35    H     0.27624   0.61280   0.56661   0.00000  Uiso   1.00
H36    H     0.69884   0.33549   0.90660   0.00000  Uiso   1.00
H37    H     0.11234   0.61316   0.94887   0.00000  Uiso   1.00
O38    O     0.05634   0.57608   0.52111   0.00000  Uiso   1.00
O39    O     0.61077   0.21226   0.96717   0.00000  Uiso   1.00
O40    O     0.84130   0.57655   0.02262   0.00000  Uiso   1.00
N41    N     0.98494   0.50605   0.62780   0.00000  Uiso   1.00
N42    N     0.38005   0.24677   0.94566   0.00000  Uiso   1.00
N43    N     0.83174   0.50636   0.98519   0.00000  Uiso   1.00
N44    N     0.19267   0.57655   0.59595   0.00000  Uiso   1.00
N45    N     0.58779   0.31727   0.91381   0.00000  Uiso   1.00
N46    N     0.03947   0.57686   0.95334   0.00000  Uiso   1.00
C47    C     0.62168   0.73052   0.41284   0.00000  Uiso   1.00
C48    C     0.61541   0.75853   0.45572   0.00000  Uiso   1.00
C49    C     0.53137   0.80389   0.45169   0.00000  Uiso   1.00
C50    C     0.54088   0.82339   0.49530   0.00000  Uiso   1.00
C51    C     0.51745   0.87072   0.55487   0.00000  Uiso   1.00
C52    C     0.79024   0.74140   0.38554   0.00000  Uiso   1.00
C53    C     0.85319   0.77235   0.32251   0.00000  Uiso   1.00
C54    C     0.00987   0.77743   0.30704   0.00000  Uiso   1.00
C55    C     0.25786   0.79812   0.25766   0.00000  Uiso   1.00
C56    C     0.57339   0.66009   0.45523   0.00000  Uiso   1.00
C57    C     0.45403   0.62266   0.45079   0.00000  Uiso   1.00
C58    C     0.42816   0.55927   0.49398   0.00000  Uiso   1.00
C59    C     0.33945   0.45371   0.55280   0.00000  Uiso   1.00
C60    C     0.78801   0.68450   0.49744   0.00000  Uiso   1.00
C61    C     0.70576   0.73354   0.50167   0.00000  Uiso   1.00
C62    C     0.71539   0.75298   0.54529   0.00000  Uiso   1.00
C63    C     0.63137   0.79835   0.54133   0.00000  Uiso   1.00
C64    C     0.88058   0.71641   0.43149   0.00000  Uiso   1.00
C65    C     0.03721   0.72144   0.41611   0.00000  Uiso   1.00
C66    C     0.10038   0.75239   0.35307   0.00000  Uiso   1.00
C67    C     0.66373   0.63509   0.50118   0.00000  Uiso   1.00
C68    C     0.63805   0.57175   0.54439   0.00000  Uiso   1.00
C69    C     0.51867   0.53423   0.54001   0.00000  Uiso   1.00
H70    H     0.55135   0.74997   0.37706   0.00000  Uiso   1.00
H71    H     0.46148   0.82322   0.41612   0.00000  Uiso   1.00
H72    H     0.78324   0.79168   0.28696   0.00000  Uiso   1.00
H73    H     0.38414   0.64202   0.41522   0.00000  Uiso   1.00
H74    H     0.40172   0.89342   0.47968   0.00000  Uiso   1.00
H75    H     0.08017   0.82690   0.20734   0.00000  Uiso   1.00
H76    H     0.23859   0.51130   0.47779   0.00000  Uiso   1.00
H77    H     0.85835   0.66504   0.53321   0.00000  Uiso   1.00
H78    H     0.78531   0.73363   0.58084   0.00000  Uiso   1.00
H79    H     0.10708   0.70209   0.45168   0.00000  Uiso   1.00
H80    H     0.70798   0.55242   0.57994   0.00000  Uiso   1.00
H81    H     0.66456   0.82071   0.61337   0.00000  Uiso   1.00
H82    H     0.34302   0.75418   0.34102   0.00000  Uiso   1.00
H83    H     0.50143   0.43859   0.61148   0.00000  Uiso   1.00
O84    O     0.47960   0.90373   0.57503   0.00000  Uiso   1.00
O85    O     0.36969   0.81644   0.21772   0.00000  Uiso   1.00
O86    O     0.26555   0.40239   0.57256   0.00000  Uiso   1.00
N87    N     0.47358   0.86689   0.50461   0.00000  Uiso   1.00
N88    N     0.10789   0.80470   0.24999   0.00000  Uiso   1.00
N89    N     0.32111   0.50964   0.50284   0.00000  Uiso   1.00
N90    N     0.61501   0.82776   0.57655   0.00000  Uiso   1.00
N91    N     0.24933   0.76557   0.32193   0.00000  Uiso   1.00
N92    N     0.46254   0.47051   0.57477   0.00000  Uiso   1.00
C93    C     0.89656   0.85733   0.73011   0.00000  Uiso   1.00
C94    C     0.86437   0.78661   0.75779   0.00000  Uiso   1.00
C95    C     0.73860   0.74594   0.80210   0.00000  Uiso   1.00
C96    C     0.73003   0.68288   0.82147   0.00000  Uiso   1.00
C97    C     0.66287   0.57635   0.86814   0.00000  Uiso   1.00
C98    C     0.05429   0.87307   0.74249   0.00000  Uiso   1.00
C99    C     0.08820   0.90510   0.77391   0.00000  Uiso   1.00
C100   C     0.23950   0.91483   0.78038   0.00000  Uiso   1.00
C101   C     0.46721   0.94256   0.80325   0.00000  Uiso   1.00
C102   C     0.91385   0.88512   0.65965   0.00000  Uiso   1.00
C103   C     0.82970   0.92730   0.62142   0.00000  Uiso   1.00
C104   C     0.86279   0.94719   0.55814   0.00000  Uiso   1.00
C105   C     0.87244   0.99364   0.45239   0.00000  Uiso   1.00
C106   C     0.10497   0.81766   0.68572   0.00000  Uiso   1.00
C107   C     0.97758   0.76506   0.73368   0.00000  Uiso   1.00
C108   C     0.96918   0.70205   0.75299   0.00000  Uiso   1.00
C109   C     0.84342   0.66129   0.79732   0.00000  Uiso   1.00
C110   C     0.16749   0.85152   0.71838   0.00000  Uiso   1.00
C111   C     0.31878   0.86121   0.72480   0.00000  Uiso   1.00
C112   C     0.35291   0.89324   0.75623   0.00000  Uiso   1.00
C113   C     0.02705   0.86357   0.63554   0.00000  Uiso   1.00
C114   C     0.06028   0.88340   0.57231   0.00000  Uiso   1.00
C115   C     0.97619   0.92560   0.53399   0.00000  Uiso   1.00
H116   H     0.80844   0.87411   0.74888   0.00000  Uiso   1.00
H117   H     0.65103   0.76264   0.82075   0.00000  Uiso   1.00
H118   H     0.00058   0.92178   0.79256   0.00000  Uiso   1.00
H119   H     0.74211   0.94397   0.64009   0.00000  Uiso   1.00
H120   H     0.52647   0.62954   0.88981   0.00000  Uiso   1.00
H121   H     0.26351   0.96511   0.83035   0.00000  Uiso   1.00
H122   H     0.71849   0.01192   0.50884   0.00000  Uiso   1.00
H123   H     0.19311   0.80088   0.66695   0.00000  Uiso   1.00
H124   H     0.05680   0.68539   0.73432   0.00000  Uiso   1.00
H125   H     0.40635   0.84453   0.70613   0.00000  Uiso   1.00
H126   H     0.14789   0.86672   0.55367   0.00000  Uiso   1.00
H127   H     0.85581   0.56684   0.81967   0.00000  Uiso   1.00
H128   H     0.59286   0.90242   0.76020   0.00000  Uiso   1.00
H129   H     0.04784   0.94922   0.43870   0.00000  Uiso   1.00
O130   O     0.59456   0.52354   0.90055   0.00000  Uiso   1.00
O131   O     0.56153   0.96381   0.82252   0.00000  Uiso   1.00
O132   O     0.84648   0.02520   0.40072   0.00000  Uiso   1.00
N133   N     0.62267   0.63064   0.86405   0.00000  Uiso   1.00
N134   N     0.31176   0.94437   0.80846   0.00000  Uiso   1.00
N135   N     0.80224   0.98814   0.50788   0.00000  Uiso   1.00
N136   N     0.79989   0.59690   0.82630   0.00000  Uiso   1.00
N137   N     0.48897   0.91063   0.77071   0.00000  Uiso   1.00
N138   N     0.97945   0.95440   0.47013   0.00000  Uiso   1.00
C139   C     0.54728   0.14431   0.58620   0.00000  Uiso   1.00
C140   C     0.58087   0.21500   0.54348   0.00000  Uiso   1.00
C141   C     0.49341   0.25670   0.54679   0.00000  Uiso   1.00
C142   C     0.54340   0.31954   0.50349   0.00000  Uiso   1.00
C143   C     0.57541   0.42621   0.44403   0.00000  Uiso   1.00
C144   C     0.68977   0.12728   0.61488   0.00000  Uiso   1.00
C145   C     0.69386   0.09523   0.67820   0.00000  Uiso   1.00
C146   C     0.83552   0.08422   0.69500   0.00000  Uiso   1.00
C147   C     0.03658   0.05467   0.74638   0.00000  Uiso   1.00
C148   C     0.53861   0.11630   0.54351   0.00000  Uiso   1.00
C149   C     0.41563   0.07500   0.54683   0.00000  Uiso   1.00
C150   C     0.43004   0.05473   0.50355   0.00000  Uiso   1.00
C151   C     0.39641   0.00814   0.44411   0.00000  Uiso   1.00
C152   C     0.79155   0.18175   0.50342   0.00000  Uiso   1.00
C153   C     0.71355   0.23533   0.49853   0.00000  Uiso   1.00
C154   C     0.76368   0.29812   0.45521   0.00000  Uiso   1.00
C155   C     0.67631   0.33991   0.45844   0.00000  Uiso   1.00
C156   C     0.82244   0.14761   0.56992   0.00000  Uiso   1.00
C157   C     0.96413   0.13665   0.58662   0.00000  Uiso   1.00
C158   C     0.96844   0.10459   0.64996   0.00000  Uiso   1.00
C159   C     0.67129   0.13664   0.49854   0.00000  Uiso   1.00
C160   C     0.68590   0.11642   0.45525   0.00000  Uiso   1.00
C161   C     0.56296   0.07510   0.45851   0.00000  Uiso   1.00
H162   H     0.44398   0.12847   0.62120   0.00000  Uiso   1.00
H163   H     0.39075   0.24095   0.58159   0.00000  Uiso   1.00
H164   H     0.59116   0.07949   0.71298   0.00000  Uiso   1.00
H165   H     0.31297   0.05927   0.58163   0.00000  Uiso   1.00
H166   H     0.39027   0.37461   0.51787   0.00000  Uiso   1.00
H167   H     0.81285   0.03416   0.79491   0.00000  Uiso   1.00
H168   H     0.22623   0.99152   0.51793   0.00000  Uiso   1.00
H169   H     0.89486   0.19758   0.46842   0.00000  Uiso   1.00
H170   H     0.86636   0.31384   0.42042   0.00000  Uiso   1.00
H171   H     0.06678   0.15239   0.55182   0.00000  Uiso   1.00
H172   H     0.78859   0.13217   0.42046   0.00000  Uiso   1.00
H173   H     0.77630   0.43378   0.38706   0.00000  Uiso   1.00
H174   H     0.19888   0.09332   0.66411   0.00000  Uiso   1.00
H175   H     0.61226   0.05068   0.38712   0.00000  Uiso   1.00
O176   O     0.55643   0.47943   0.42366   0.00000  Uiso   1.00
O177   O     0.11083   0.03276   0.78714   0.00000  Uiso   1.00
O178   O     0.34120   0.97682   0.42374   0.00000  Uiso   1.00
N179   N     0.48501   0.37258   0.49366   0.00000  Uiso   1.00
N180   N     0.88011   0.05428   0.75268   0.00000  Uiso   1.00
N181   N     0.33168   0.01441   0.49374   0.00000  Uiso   1.00
N182   N     0.69273   0.40442   0.42327   0.00000  Uiso   1.00
N183   N     0.08783   0.08612   0.68230   0.00000  Uiso   1.00
N184   N     0.53940   0.04624   0.42335   0.00000  Uiso   1.00
C185   C     0.12171   0.58746   0.26946   0.00000  Uiso   1.00
C186   C     0.11541   0.54445   0.24156   0.00000  Uiso   1.00
C187   C     0.03136   0.54844   0.19630   0.00000  Uiso   1.00
C188   C     0.04084   0.50472   0.17688   0.00000  Uiso   1.00
C189   C     0.01738   0.44497   0.12973   0.00000  Uiso   1.00
C190   C     0.29028   0.61480   0.25856   0.00000  Uiso   1.00
C191   C     0.35324   0.67793   0.22761   0.00000  Uiso   1.00
C192   C     0.50993   0.69342   0.22252   0.00000  Uiso   1.00
C193   C     0.75793   0.74288   0.20181   0.00000  Uiso   1.00
C194   C     0.07343   0.54505   0.33978   0.00000  Uiso   1.00
C195   C     0.95408   0.54955   0.37713   0.00000  Uiso   1.00
C196   C     0.92822   0.50633   0.44042   0.00000  Uiso   1.00
C197   C     0.83953   0.44749   0.54582   0.00000  Uiso   1.00
C198   C     0.28802   0.50271   0.31546   0.00000  Uiso   1.00
C199   C     0.20575   0.49843   0.26654   0.00000  Uiso   1.00
C200   C     0.21536   0.45468   0.24719   0.00000  Uiso   1.00
C201   C     0.13133   0.45861   0.20191   0.00000  Uiso   1.00
C202   C     0.38061   0.56877   0.28355   0.00000  Uiso   1.00
C203   C     0.53724   0.58417   0.27851   0.00000  Uiso   1.00
C204   C     0.60043   0.64731   0.24755   0.00000  Uiso   1.00
C205   C     0.16376   0.49902   0.36477   0.00000  Uiso   1.00
C206   C     0.13809   0.45579   0.42802   0.00000  Uiso   1.00
C207   C     0.01872   0.46022   0.46545   0.00000  Uiso   1.00
H208   H     0.05139   0.62329   0.25001   0.00000  Uiso   1.00
H209   H     0.96147   0.58407   0.17697   0.00000  Uiso   1.00
H210   H     0.28330   0.71354   0.20829   0.00000  Uiso   1.00
H211   H     0.88421   0.58517   0.35778   0.00000  Uiso   1.00
H212   H     0.90166   0.52030   0.10700   0.00000  Uiso   1.00
H213   H     0.58024   0.79329   0.17305   0.00000  Uiso   1.00
H214   H     0.73868   0.52261   0.48828   0.00000  Uiso   1.00
H215   H     0.35836   0.46688   0.33491   0.00000  Uiso   1.00
H216   H     0.28528   0.41907   0.26653   0.00000  Uiso   1.00
H217   H     0.60711   0.54854   0.29785   0.00000  Uiso   1.00
H218   H     0.20802   0.42018   0.44734   0.00000  Uiso   1.00
H219   H     0.16449   0.38638   0.17968   0.00000  Uiso   1.00
H220   H     0.84307   0.65937   0.24574   0.00000  Uiso   1.00
H221   H     0.00150   0.38869   0.56097   0.00000  Uiso   1.00
O222   O     0.97950   0.42473   0.09681   0.00000  Uiso   1.00
O223   O     0.86976   0.78288   0.18348   0.00000  Uiso   1.00
O224   O     0.76565   0.42775   0.59705   0.00000  Uiso   1.00
N225   N     0.97352   0.49534   0.13350   0.00000  Uiso   1.00
N226   N     0.60796   0.75057   0.19524   0.00000  Uiso   1.00
N227   N     0.82119   0.49751   0.48996   0.00000  Uiso   1.00
N228   N     0.11494   0.42328   0.17261   0.00000  Uiso   1.00
N229   N     0.74938   0.67850   0.23436   0.00000  Uiso   1.00
N230   N     0.96261   0.42545   0.52907   0.00000  Uiso   1.00
C231   C     0.39650   0.26963   0.14296   0.00000  Uiso   1.00
C232   C     0.36433   0.24196   0.21356   0.00000  Uiso   1.00
C233   C     0.23856   0.19761   0.25419   0.00000  Uiso   1.00
C234   C     0.23000   0.17826   0.31713   0.00000  Uiso   1.00
C235   C     0.16286   0.13161   0.42349   0.00000  Uiso   1.00
C236   C     0.55422   0.25721   0.12727   0.00000  Uiso   1.00
C237   C     0.58811   0.22568   0.09534   0.00000  Uiso   1.00
C238   C     0.73940   0.21917   0.08563   0.00000  Uiso   1.00
C239   C     0.96709   0.19622   0.05798   0.00000  Uiso   1.00
C240   C     0.41381   0.34022   0.11516   0.00000  Uiso   1.00
C241   C     0.32966   0.37849   0.07303   0.00000  Uiso   1.00
C242   C     0.36276   0.44188   0.05312   0.00000  Uiso   1.00
C243   C     0.37243   0.54782   0.00666   0.00000  Uiso   1.00
C244   C     0.60494   0.31415   0.18249   0.00000  Uiso   1.00
C245   C     0.47755   0.26615   0.23503   0.00000  Uiso   1.00
C246   C     0.46918   0.24687   0.29793   0.00000  Uiso   1.00
C247   C     0.34341   0.20249   0.33864   0.00000  Uiso   1.00
C248   C     0.66744   0.28139   0.14874   0.00000  Uiso   1.00
C249   C     0.81872   0.27493   0.13907   0.00000  Uiso   1.00
C250   C     0.85283   0.24340   0.10714   0.00000  Uiso   1.00
C251   C     0.52702   0.36440   0.13663   0.00000  Uiso   1.00
C252   C     0.56027   0.42775   0.11677   0.00000  Uiso   1.00
C253   C     0.47618   0.46611   0.07463   0.00000  Uiso   1.00
H254   H     0.30837   0.25080   0.12625   0.00000  Uiso   1.00
H255   H     0.15097   0.17890   0.23756   0.00000  Uiso   1.00
H256   H     0.50047   0.20697   0.07873   0.00000  Uiso   1.00
H257   H     0.24206   0.35976   0.05643   0.00000  Uiso   1.00
H258   H     0.02644   0.10984   0.37044   0.00000  Uiso   1.00
H259   H     0.76337   0.16904   0.03551   0.00000  Uiso   1.00
H260   H     0.21846   0.49123   0.98849   0.00000  Uiso   1.00
H261   H     0.69309   0.33298   0.19921   0.00000  Uiso   1.00
H262   H     0.55681   0.26559   0.31453   0.00000  Uiso   1.00
H263   H     0.90631   0.29366   0.15569   0.00000  Uiso   1.00
H264   H     0.64789   0.44645   0.13340   0.00000  Uiso   1.00
H265   H     0.35583   0.18019   0.43291   0.00000  Uiso   1.00
H266   H     0.09277   0.23940   0.09798   0.00000  Uiso   1.00
H267   H     0.54785   0.56159   0.05096   0.00000  Uiso   1.00
O268   O     0.09457   0.09918   0.47622   0.00000  Uiso   1.00
O269   O     0.06140   0.17687   0.03680   0.00000  Uiso   1.00
O270   O     0.34648   0.59957   0.97511   0.00000  Uiso   1.00
N271   N     0.12265   0.13565   0.36931   0.00000  Uiso   1.00
N272   N     0.81163   0.19100   0.05618   0.00000  Uiso   1.00
N273   N     0.30221   0.49222   0.01221   0.00000  Uiso   1.00
N274   N     0.29989   0.17351   0.40293   0.00000  Uiso   1.00
N275   N     0.98888   0.22885   0.08980   0.00000  Uiso   1.00
N276   N     0.47945   0.53008   0.04583   0.00000  Uiso   1.00
