data_job_04233
_audit_creation_date              2018-12-19
_audit_creation_method            'Materials Studio'
_symmetry_space_group_name_H-M    'P1'
_symmetry_Int_Tables_number       1
_symmetry_cell_setting            triclinic
loop_
_symmetry_equiv_pos_as_xyz
  x,y,z
_cell_length_a                    27.4756
_cell_length_b                    7.5324
_cell_length_c                    12.7653
_cell_angle_alpha                 90.0000
_cell_angle_beta                  125.0940
_cell_angle_gamma                 90.0000
loop_
_atom_site_label
_atom_site_type_symbol
_atom_site_fract_x
_atom_site_fract_y
_atom_site_fract_z
_atom_site_U_iso_or_equiv
_atom_site_adp_type
_atom_site_occupancy
C1     C     0.33613   0.21235   0.79768   0.00000  Uiso   1.00
C2     C     0.38164   0.29056   0.77838   0.00000  Uiso   1.00
C3     C     0.41991   0.19418   0.76218   0.00000  Uiso   1.00
C4     C     0.45823   0.29042   0.74594   0.00000  Uiso   1.00
C5     C     0.52892   0.38357   0.71603   0.00000  Uiso   1.00
C6     C     0.35056   0.29056   0.92275   0.00000  Uiso   1.00
C7     C     0.36270   0.19417   0.02793   0.00000  Uiso   1.00
C8     C     0.37484   0.29041   0.13323   0.00000  Uiso   1.00
C9     C     0.39723   0.38356   0.32743   0.00000  Uiso   1.00
C10    C     0.27619   0.29051   0.69192   0.00000  Uiso   1.00
C11    C     0.22578   0.19409   0.60302   0.00000  Uiso   1.00
C12    C     0.17531   0.29030   0.51398   0.00000  Uiso   1.00
C13    C     0.08222   0.38338   0.34977   0.00000  Uiso   1.00
C14    C     0.33611   0.55465   0.79766   0.00000  Uiso   1.00
C15    C     0.38163   0.47648   0.77837   0.00000  Uiso   1.00
C16    C     0.41989   0.57289   0.76215   0.00000  Uiso   1.00
C17    C     0.45822   0.47667   0.74592   0.00000  Uiso   1.00
C18    C     0.35055   0.47647   0.92275   0.00000  Uiso   1.00
C19    C     0.36268   0.57288   0.02791   0.00000  Uiso   1.00
C20    C     0.37483   0.47667   0.13322   0.00000  Uiso   1.00
C21    C     0.27617   0.47644   0.69190   0.00000  Uiso   1.00
C22    C     0.22576   0.57281   0.60299   0.00000  Uiso   1.00
C23    C     0.17530   0.47656   0.51397   0.00000  Uiso   1.00
H24    H     0.33614   0.06761   0.79770   0.00000  Uiso   1.00
H25    H     0.41991   0.05030   0.76220   0.00000  Uiso   1.00
H26    H     0.36270   0.05029   0.02791   0.00000  Uiso   1.00
H27    H     0.22581   0.05022   0.60306   0.00000  Uiso   1.00
H28    H     0.51280   0.11310   0.72289   0.00000  Uiso   1.00
H29    H     0.39214   0.11309   0.28313   0.00000  Uiso   1.00
H30    H     0.10348   0.11293   0.38725   0.00000  Uiso   1.00
H31    H     0.33610   0.69940   0.79765   0.00000  Uiso   1.00
H32    H     0.41988   0.71677   0.76214   0.00000  Uiso   1.00
H33    H     0.36266   0.71676   0.02786   0.00000  Uiso   1.00
H34    H     0.22577   0.71668   0.60301   0.00000  Uiso   1.00
H35    H     0.51278   0.65404   0.72285   0.00000  Uiso   1.00
H36    H     0.39211   0.65402   0.28309   0.00000  Uiso   1.00
H37    H     0.10345   0.65386   0.38721   0.00000  Uiso   1.00
O38    O     0.56791   0.38359   0.69956   0.00000  Uiso   1.00
O39    O     0.40959   0.38357   0.43456   0.00000  Uiso   1.00
O40    O     0.03088   0.38336   0.25918   0.00000  Uiso   1.00
N41    N     0.50129   0.23803   0.72773   0.00000  Uiso   1.00
N42    N     0.38849   0.23801   0.25153   0.00000  Uiso   1.00
N43    N     0.11861   0.23786   0.41397   0.00000  Uiso   1.00
N44    N     0.50128   0.52910   0.72770   0.00000  Uiso   1.00
N45    N     0.38847   0.52908   0.25150   0.00000  Uiso   1.00
N46    N     0.11859   0.52893   0.41395   0.00000  Uiso   1.00
C47    C     0.82684   0.21230   0.90378   0.00000  Uiso   1.00
C48    C     0.87236   0.29047   0.88452   0.00000  Uiso   1.00
C49    C     0.91064   0.19407   0.86833   0.00000  Uiso   1.00
C50    C     0.94897   0.29027   0.85214   0.00000  Uiso   1.00
C51    C     0.01968   0.38337   0.82229   0.00000  Uiso   1.00
C52    C     0.84126   0.29048   0.02885   0.00000  Uiso   1.00
C53    C     0.85337   0.19407   0.13400   0.00000  Uiso   1.00
C54    C     0.86552   0.29029   0.23930   0.00000  Uiso   1.00
C55    C     0.88789   0.38340   0.43350   0.00000  Uiso   1.00
C56    C     0.76690   0.29052   0.79800   0.00000  Uiso   1.00
C57    C     0.71649   0.19415   0.70907   0.00000  Uiso   1.00
C58    C     0.66603   0.29040   0.62003   0.00000  Uiso   1.00
C59    C     0.57296   0.38357   0.45580   0.00000  Uiso   1.00
C60    C     0.82685   0.55459   0.90381   0.00000  Uiso   1.00
C61    C     0.87237   0.47639   0.88454   0.00000  Uiso   1.00
C62    C     0.91066   0.57278   0.86836   0.00000  Uiso   1.00
C63    C     0.94898   0.47653   0.85215   0.00000  Uiso   1.00
C64    C     0.84127   0.47639   0.02887   0.00000  Uiso   1.00
C65    C     0.85339   0.57278   0.13404   0.00000  Uiso   1.00
C66    C     0.86553   0.47654   0.23933   0.00000  Uiso   1.00
C67    C     0.76691   0.47644   0.79802   0.00000  Uiso   1.00
C68    C     0.71652   0.57286   0.70911   0.00000  Uiso   1.00
C69    C     0.66604   0.47666   0.62005   0.00000  Uiso   1.00
H70    H     0.82683   0.06755   0.90377   0.00000  Uiso   1.00
H71    H     0.91062   0.05018   0.86833   0.00000  Uiso   1.00
H72    H     0.85336   0.05019   0.13396   0.00000  Uiso   1.00
H73    H     0.71650   0.05027   0.70909   0.00000  Uiso   1.00
H74    H     0.00354   0.11292   0.82909   0.00000  Uiso   1.00
H75    H     0.88278   0.11293   0.38916   0.00000  Uiso   1.00
H76    H     0.59419   0.11310   0.49325   0.00000  Uiso   1.00
H77    H     0.82686   0.69935   0.90383   0.00000  Uiso   1.00
H78    H     0.91065   0.71665   0.86838   0.00000  Uiso   1.00
H79    H     0.85339   0.71665   0.13402   0.00000  Uiso   1.00
H80    H     0.71654   0.71674   0.70915   0.00000  Uiso   1.00
H81    H     0.00357   0.65385   0.82914   0.00000  Uiso   1.00
H82    H     0.88280   0.65386   0.38921   0.00000  Uiso   1.00
H83    H     0.59422   0.65404   0.49330   0.00000  Uiso   1.00
O84    O     0.05869   0.38337   0.80585   0.00000  Uiso   1.00
O85    O     0.90024   0.38338   0.54062   0.00000  Uiso   1.00
O86    O     0.52163   0.38361   0.36520   0.00000  Uiso   1.00
N87    N     0.99204   0.23785   0.83394   0.00000  Uiso   1.00
N88    N     0.87914   0.23787   0.35758   0.00000  Uiso   1.00
N89    N     0.60933   0.23802   0.52000   0.00000  Uiso   1.00
N90    N     0.99205   0.52892   0.83397   0.00000  Uiso   1.00
N91    N     0.87916   0.52894   0.35761   0.00000  Uiso   1.00
N92    N     0.60935   0.52909   0.52002   0.00000  Uiso   1.00
C93    C     0.66387   0.71235   0.20232   0.00000  Uiso   1.00
C94    C     0.61836   0.79056   0.22162   0.00000  Uiso   1.00
C95    C     0.58009   0.69418   0.23782   0.00000  Uiso   1.00
C96    C     0.54177   0.79042   0.25406   0.00000  Uiso   1.00
C97    C     0.47108   0.88357   0.28397   0.00000  Uiso   1.00
C98    C     0.64944   0.79056   0.07725   0.00000  Uiso   1.00
C99    C     0.63730   0.69417   0.97207   0.00000  Uiso   1.00
C100   C     0.62516   0.79041   0.86677   0.00000  Uiso   1.00
C101   C     0.60277   0.88356   0.67257   0.00000  Uiso   1.00
C102   C     0.72381   0.79051   0.30808   0.00000  Uiso   1.00
C103   C     0.77422   0.69409   0.39698   0.00000  Uiso   1.00
C104   C     0.82469   0.79030   0.48602   0.00000  Uiso   1.00
C105   C     0.91778   0.88338   0.65023   0.00000  Uiso   1.00
C106   C     0.66389   0.05465   0.20234   0.00000  Uiso   1.00
C107   C     0.61837   0.97648   0.22163   0.00000  Uiso   1.00
C108   C     0.58011   0.07289   0.23785   0.00000  Uiso   1.00
C109   C     0.54178   0.97667   0.25408   0.00000  Uiso   1.00
C110   C     0.64945   0.97647   0.07725   0.00000  Uiso   1.00
C111   C     0.63732   0.07288   0.97209   0.00000  Uiso   1.00
C112   C     0.62517   0.97667   0.86678   0.00000  Uiso   1.00
C113   C     0.72383   0.97644   0.30810   0.00000  Uiso   1.00
C114   C     0.77424   0.07281   0.39701   0.00000  Uiso   1.00
C115   C     0.82470   0.97656   0.48603   0.00000  Uiso   1.00
H116   H     0.66386   0.56761   0.20230   0.00000  Uiso   1.00
H117   H     0.58009   0.55030   0.23780   0.00000  Uiso   1.00
H118   H     0.63730   0.55029   0.97209   0.00000  Uiso   1.00
H119   H     0.77419   0.55022   0.39694   0.00000  Uiso   1.00
H120   H     0.48720   0.61310   0.27711   0.00000  Uiso   1.00
H121   H     0.60786   0.61309   0.71687   0.00000  Uiso   1.00
H122   H     0.89652   0.61293   0.61275   0.00000  Uiso   1.00
H123   H     0.66390   0.19940   0.20235   0.00000  Uiso   1.00
H124   H     0.58012   0.21677   0.23786   0.00000  Uiso   1.00
H125   H     0.63734   0.21676   0.97214   0.00000  Uiso   1.00
H126   H     0.77423   0.21668   0.39699   0.00000  Uiso   1.00
H127   H     0.48722   0.15404   0.27715   0.00000  Uiso   1.00
H128   H     0.60789   0.15402   0.71691   0.00000  Uiso   1.00
H129   H     0.89655   0.15386   0.61279   0.00000  Uiso   1.00
O130   O     0.43209   0.88359   0.30044   0.00000  Uiso   1.00
O131   O     0.59041   0.88357   0.56544   0.00000  Uiso   1.00
O132   O     0.96912   0.88336   0.74082   0.00000  Uiso   1.00
N133   N     0.49871   0.73803   0.27227   0.00000  Uiso   1.00
N134   N     0.61151   0.73801   0.74847   0.00000  Uiso   1.00
N135   N     0.88139   0.73786   0.58603   0.00000  Uiso   1.00
N136   N     0.49872   0.02910   0.27230   0.00000  Uiso   1.00
N137   N     0.61153   0.02908   0.74850   0.00000  Uiso   1.00
N138   N     0.88141   0.02893   0.58605   0.00000  Uiso   1.00
C139   C     0.17316   0.71230   0.09622   0.00000  Uiso   1.00
C140   C     0.12764   0.79047   0.11548   0.00000  Uiso   1.00
C141   C     0.08936   0.69407   0.13167   0.00000  Uiso   1.00
C142   C     0.05103   0.79027   0.14786   0.00000  Uiso   1.00
C143   C     0.98032   0.88337   0.17771   0.00000  Uiso   1.00
C144   C     0.15874   0.79048   0.97115   0.00000  Uiso   1.00
C145   C     0.14663   0.69407   0.86600   0.00000  Uiso   1.00
C146   C     0.13448   0.79029   0.76070   0.00000  Uiso   1.00
C147   C     0.11211   0.88340   0.56650   0.00000  Uiso   1.00
C148   C     0.23310   0.79052   0.20200   0.00000  Uiso   1.00
C149   C     0.28351   0.69415   0.29093   0.00000  Uiso   1.00
C150   C     0.33397   0.79040   0.37997   0.00000  Uiso   1.00
C151   C     0.42704   0.88357   0.54420   0.00000  Uiso   1.00
C152   C     0.17315   0.05459   0.09619   0.00000  Uiso   1.00
C153   C     0.12763   0.97639   0.11546   0.00000  Uiso   1.00
C154   C     0.08934   0.07278   0.13164   0.00000  Uiso   1.00
C155   C     0.05102   0.97653   0.14785   0.00000  Uiso   1.00
C156   C     0.15873   0.97639   0.97113   0.00000  Uiso   1.00
C157   C     0.14661   0.07278   0.86596   0.00000  Uiso   1.00
C158   C     0.13447   0.97654   0.76067   0.00000  Uiso   1.00
C159   C     0.23309   0.97644   0.20198   0.00000  Uiso   1.00
C160   C     0.28348   0.07286   0.29089   0.00000  Uiso   1.00
C161   C     0.33396   0.97666   0.37995   0.00000  Uiso   1.00
H162   H     0.17317   0.56755   0.09623   0.00000  Uiso   1.00
H163   H     0.08938   0.55018   0.13167   0.00000  Uiso   1.00
H164   H     0.14664   0.55019   0.86604   0.00000  Uiso   1.00
H165   H     0.28350   0.55027   0.29091   0.00000  Uiso   1.00
H166   H     0.99646   0.61292   0.17091   0.00000  Uiso   1.00
H167   H     0.11722   0.61293   0.61084   0.00000  Uiso   1.00
H168   H     0.40581   0.61310   0.50675   0.00000  Uiso   1.00
H169   H     0.17314   0.19935   0.09617   0.00000  Uiso   1.00
H170   H     0.08935   0.21665   0.13162   0.00000  Uiso   1.00
H171   H     0.14661   0.21665   0.86598   0.00000  Uiso   1.00
H172   H     0.28346   0.21674   0.29085   0.00000  Uiso   1.00
H173   H     0.99643   0.15385   0.17086   0.00000  Uiso   1.00
H174   H     0.11720   0.15386   0.61079   0.00000  Uiso   1.00
H175   H     0.40578   0.15404   0.50670   0.00000  Uiso   1.00
O176   O     0.94131   0.88337   0.19415   0.00000  Uiso   1.00
O177   O     0.09976   0.88338   0.45938   0.00000  Uiso   1.00
O178   O     0.47837   0.88361   0.63480   0.00000  Uiso   1.00
N179   N     0.00796   0.73785   0.16606   0.00000  Uiso   1.00
N180   N     0.12086   0.73787   0.64242   0.00000  Uiso   1.00
N181   N     0.39067   0.73802   0.48000   0.00000  Uiso   1.00
N182   N     0.00795   0.02892   0.16603   0.00000  Uiso   1.00
N183   N     0.12084   0.02894   0.64239   0.00000  Uiso   1.00
N184   N     0.39065   0.02909   0.47998   0.00000  Uiso   1.00
