data_job_05924
_audit_creation_date              2018-12-19
_audit_creation_method            'Materials Studio'
_symmetry_space_group_name_H-M    'P1'
_symmetry_Int_Tables_number       1
_symmetry_cell_setting            triclinic
loop_
_symmetry_equiv_pos_as_xyz
  x,y,z
_cell_length_a                    16.0431
_cell_length_b                    15.6223
_cell_length_c                    14.1139
_cell_angle_alpha                 95.9696
_cell_angle_beta                  96.1709
_cell_angle_gamma                 92.9739
loop_
_atom_site_label
_atom_site_type_symbol
_atom_site_fract_x
_atom_site_fract_y
_atom_site_fract_z
_atom_site_U_iso_or_equiv
_atom_site_adp_type
_atom_site_occupancy
C1     C     0.45934   0.79766   0.14739   0.00000  Uiso   1.00
C2     C     0.36871   0.82346   0.14118   0.00000  Uiso   1.00
C3     C     0.33985   0.89405   0.19314   0.00000  Uiso   1.00
C4     C     0.25466   0.90660   0.17721   0.00000  Uiso   1.00
C5     C     0.12218   0.95517   0.17757   0.00000  Uiso   1.00
C6     C     0.45707   0.70507   0.17268   0.00000  Uiso   1.00
C7     C     0.50252   0.67612   0.25110   0.00000  Uiso   1.00
C8     C     0.49172   0.58901   0.26167   0.00000  Uiso   1.00
C9     C     0.49647   0.45377   0.31089   0.00000  Uiso   1.00
C10    C     0.48375   0.79368   0.04562   0.00000  Uiso   1.00
C11    C     0.55164   0.83922   0.01721   0.00000  Uiso   1.00
C12    C     0.56332   0.82669   0.92081   0.00000  Uiso   1.00
C13    C     0.60949   0.82903   0.77276   0.00000  Uiso   1.00
C14    C     0.35938   0.69441   0.02671   0.00000  Uiso   1.00
C15    C     0.31441   0.76738   0.07564   0.00000  Uiso   1.00
C16    C     0.22924   0.77982   0.05962   0.00000  Uiso   1.00
C17    C     0.20026   0.85042   0.11154   0.00000  Uiso   1.00
C18    C     0.40277   0.64899   0.10713   0.00000  Uiso   1.00
C19    C     0.39191   0.56190   0.11758   0.00000  Uiso   1.00
C20    C     0.43732   0.53283   0.19601   0.00000  Uiso   1.00
C21    C     0.42945   0.73760   0.98007   0.00000  Uiso   1.00
C22    C     0.44103   0.72500   0.88369   0.00000  Uiso   1.00
C23    C     0.50893   0.77051   0.85515   0.00000  Uiso   1.00
H24    H     0.50162   0.84131   0.19843   0.00000  Uiso   1.00
H25    H     0.38189   0.93743   0.24387   0.00000  Uiso   1.00
H26    H     0.54454   0.71953   0.30181   0.00000  Uiso   1.00
H27    H     0.59365   0.88261   0.06796   0.00000  Uiso   1.00
H28    H     0.22519   0.01924   0.26536   0.00000  Uiso   1.00
H29    H     0.56817   0.55980   0.38753   0.00000  Uiso   1.00
H30    H     0.67174   0.90367   0.89441   0.00000  Uiso   1.00
H31    H     0.31710   0.65075   0.97568   0.00000  Uiso   1.00
H32    H     0.18724   0.73642   0.00889   0.00000  Uiso   1.00
H33    H     0.34989   0.51852   0.06684   0.00000  Uiso   1.00
H34    H     0.39900   0.68160   0.83299   0.00000  Uiso   1.00
H35    H     0.06721   0.85609   0.07465   0.00000  Uiso   1.00
H36    H     0.41019   0.39665   0.19682   0.00000  Uiso   1.00
H37    H     0.51375   0.74052   0.70370   0.00000  Uiso   1.00
O38    O     0.06410   0.99744   0.19589   0.00000  Uiso   1.00
O39    O     0.51408   0.39467   0.35616   0.00000  Uiso   1.00
O40    O     0.64995   0.84582   0.70920   0.00000  Uiso   1.00
N41    N     0.20583   0.96910   0.21590   0.00000  Uiso   1.00
N42    N     0.52649   0.53955   0.33013   0.00000  Uiso   1.00
N43    N     0.62333   0.86102   0.86911   0.00000  Uiso   1.00
N44    N     0.12082   0.88131   0.11328   0.00000  Uiso   1.00
N45    N     0.44148   0.45176   0.22751   0.00000  Uiso   1.00
N46    N     0.53832   0.77323   0.76649   0.00000  Uiso   1.00
C47    C     0.12600   0.46258   0.81293   0.00000  Uiso   1.00
C48    C     0.12356   0.37000   0.83821   0.00000  Uiso   1.00
C49    C     0.16910   0.34094   0.91649   0.00000  Uiso   1.00
C50    C     0.15814   0.25384   0.92708   0.00000  Uiso   1.00
C51    C     0.16269   0.11858   0.97625   0.00000  Uiso   1.00
C52    C     0.15014   0.45851   0.71103   0.00000  Uiso   1.00
C53    C     0.21802   0.50389   0.68239   0.00000  Uiso   1.00
C54    C     0.22942   0.49131   0.58591   0.00000  Uiso   1.00
C55    C     0.27520   0.49352   0.43764   0.00000  Uiso   1.00
C56    C     0.03545   0.48866   0.80702   0.00000  Uiso   1.00
C57    C     0.00691   0.55939   0.85906   0.00000  Uiso   1.00
C58    C     0.92176   0.57220   0.84338   0.00000  Uiso   1.00
C59    C     0.78948   0.62121   0.84414   0.00000  Uiso   1.00
C60    C     0.02553   0.35959   0.69252   0.00000  Uiso   1.00
C61    C     0.06899   0.31406   0.77281   0.00000  Uiso   1.00
C62    C     0.05795   0.22698   0.78328   0.00000  Uiso   1.00
C63    C     0.10347   0.19780   0.86156   0.00000  Uiso   1.00
C64    C     0.09557   0.40257   0.64564   0.00000  Uiso   1.00
C65    C     0.10687   0.38993   0.54918   0.00000  Uiso   1.00
C66    C     0.17476   0.43527   0.52040   0.00000  Uiso   1.00
C67    C     0.98089   0.43271   0.74162   0.00000  Uiso   1.00
C68    C     0.89576   0.44543   0.72585   0.00000  Uiso   1.00
C69    C     0.86710   0.51616   0.77786   0.00000  Uiso   1.00
H70    H     0.16848   0.50614   0.86384   0.00000  Uiso   1.00
H71    H     0.21133   0.38425   0.96708   0.00000  Uiso   1.00
H72    H     0.26023   0.54718   0.73301   0.00000  Uiso   1.00
H73    H     0.04916   0.60266   0.90966   0.00000  Uiso   1.00
H74    H     0.23480   0.22443   0.05268   0.00000  Uiso   1.00
H75    H     0.33789   0.56800   0.55914   0.00000  Uiso   1.00
H76    H     0.89280   0.68501   0.93163   0.00000  Uiso   1.00
H77    H     0.98305   0.31604   0.64161   0.00000  Uiso   1.00
H78    H     0.01572   0.18371   0.73266   0.00000  Uiso   1.00
H79    H     0.06463   0.34664   0.49859   0.00000  Uiso   1.00
H80    H     0.85356   0.40213   0.67524   0.00000  Uiso   1.00
H81    H     0.07604   0.06167   0.86242   0.00000  Uiso   1.00
H82    H     0.17914   0.40524   0.36887   0.00000  Uiso   1.00
H83    H     0.73404   0.52224   0.74136   0.00000  Uiso   1.00
O84    O     0.18028   0.05943   0.02144   0.00000  Uiso   1.00
O85    O     0.31553   0.51019   0.37393   0.00000  Uiso   1.00
O86    O     0.73158   0.66370   0.86263   0.00000  Uiso   1.00
N87    N     0.19294   0.20429   0.99542   0.00000  Uiso   1.00
N88    N     0.28934   0.52550   0.53399   0.00000  Uiso   1.00
N89    N     0.87322   0.63490   0.88222   0.00000  Uiso   1.00
N90    N     0.10751   0.11671   0.89304   0.00000  Uiso   1.00
N91    N     0.20391   0.43791   0.43161   0.00000  Uiso   1.00
N92    N     0.78779   0.54732   0.77984   0.00000  Uiso   1.00
C93    C     0.79631   0.13041   0.48008   0.00000  Uiso   1.00
C94    C     0.82046   0.12617   0.37818   0.00000  Uiso   1.00
C95    C     0.88821   0.17164   0.34941   0.00000  Uiso   1.00
C96    C     0.89963   0.15890   0.25295   0.00000  Uiso   1.00
C97    C     0.94538   0.16090   0.10465   0.00000  Uiso   1.00
C98    C     0.70568   0.15621   0.47406   0.00000  Uiso   1.00
C99    C     0.67693   0.22693   0.52591   0.00000  Uiso   1.00
C100   C     0.59172   0.23946   0.51016   0.00000  Uiso   1.00
C101   C     0.45926   0.28807   0.51076   0.00000  Uiso   1.00
C102   C     0.79413   0.03792   0.50567   0.00000  Uiso   1.00
C103   C     0.83974   0.00919   0.58412   0.00000  Uiso   1.00
C104   C     0.82899   0.92213   0.59501   0.00000  Uiso   1.00
C105   C     0.83386   0.78708   0.64469   0.00000  Uiso   1.00
C106   C     0.69611   0.02691   0.35994   0.00000  Uiso   1.00
C107   C     0.76603   0.06996   0.31293   0.00000  Uiso   1.00
C108   C     0.77735   0.05713   0.21649   0.00000  Uiso   1.00
C109   C     0.84511   0.10258   0.18758   0.00000  Uiso   1.00
C110   C     0.65125   0.10000   0.40881   0.00000  Uiso   1.00
C111   C     0.56607   0.11242   0.39299   0.00000  Uiso   1.00
C112   C     0.53720   0.18314   0.44479   0.00000  Uiso   1.00
C113   C     0.73971   0.98170   0.44042   0.00000  Uiso   1.00
C114   C     0.72888   0.89468   0.45119   0.00000  Uiso   1.00
C115   C     0.77446   0.86581   0.52964   0.00000  Uiso   1.00
H116   H     0.83868   0.17418   0.53088   0.00000  Uiso   1.00
H117   H     0.93031   0.21515   0.39993   0.00000  Uiso   1.00
H118   H     0.71906   0.27042   0.57640   0.00000  Uiso   1.00
H119   H     0.88185   0.05271   0.63460   0.00000  Uiso   1.00
H120   H     0.00789   0.23580   0.22596   0.00000  Uiso   1.00
H121   H     0.56244   0.35233   0.59809   0.00000  Uiso   1.00
H122   H     0.90571   0.89325   0.72082   0.00000  Uiso   1.00
H123   H     0.65374   0.98314   0.30914   0.00000  Uiso   1.00
H124   H     0.73522   0.01363   0.16601   0.00000  Uiso   1.00
H125   H     0.52397   0.06890   0.34249   0.00000  Uiso   1.00
H126   H     0.68676   0.85119   0.40068   0.00000  Uiso   1.00
H127   H     0.84954   0.07225   0.03610   0.00000  Uiso   1.00
H128   H     0.40410   0.18877   0.40824   0.00000  Uiso   1.00
H129   H     0.74736   0.72969   0.53096   0.00000  Uiso   1.00
O130   O     0.98564   0.17755   0.04087   0.00000  Uiso   1.00
O131   O     0.40123   0.33041   0.52911   0.00000  Uiso   1.00
O132   O     0.85160   0.72811   0.69011   0.00000  Uiso   1.00
N133   N     0.95945   0.19311   0.20092   0.00000  Uiso   1.00
N134   N     0.54298   0.30206   0.54883   0.00000  Uiso   1.00
N135   N     0.86389   0.87287   0.66358   0.00000  Uiso   1.00
N136   N     0.87424   0.10510   0.09876   0.00000  Uiso   1.00
N137   N     0.45778   0.21405   0.44667   0.00000  Uiso   1.00
N138   N     0.77869   0.78486   0.56142   0.00000  Uiso   1.00
C139   C     0.54066   0.20234   0.85261   0.00000  Uiso   1.00
C140   C     0.63129   0.17654   0.85882   0.00000  Uiso   1.00
C141   C     0.66015   0.10595   0.80686   0.00000  Uiso   1.00
C142   C     0.74534   0.09340   0.82279   0.00000  Uiso   1.00
C143   C     0.87782   0.04483   0.82243   0.00000  Uiso   1.00
C144   C     0.54293   0.29493   0.82732   0.00000  Uiso   1.00
C145   C     0.49748   0.32388   0.74890   0.00000  Uiso   1.00
C146   C     0.50828   0.41099   0.73833   0.00000  Uiso   1.00
C147   C     0.50353   0.54623   0.68911   0.00000  Uiso   1.00
C148   C     0.51625   0.20632   0.95438   0.00000  Uiso   1.00
C149   C     0.44836   0.16078   0.98279   0.00000  Uiso   1.00
C150   C     0.43668   0.17331   0.07919   0.00000  Uiso   1.00
C151   C     0.39051   0.17097   0.22724   0.00000  Uiso   1.00
C152   C     0.64062   0.30559   0.97329   0.00000  Uiso   1.00
C153   C     0.68559   0.23262   0.92436   0.00000  Uiso   1.00
C154   C     0.77076   0.22018   0.94038   0.00000  Uiso   1.00
C155   C     0.79974   0.14958   0.88846   0.00000  Uiso   1.00
C156   C     0.59723   0.35101   0.89287   0.00000  Uiso   1.00
C157   C     0.60809   0.43810   0.88242   0.00000  Uiso   1.00
C158   C     0.56268   0.46717   0.80399   0.00000  Uiso   1.00
C159   C     0.57055   0.26240   0.01993   0.00000  Uiso   1.00
C160   C     0.55897   0.27500   0.11631   0.00000  Uiso   1.00
C161   C     0.49107   0.22949   0.14485   0.00000  Uiso   1.00
H162   H     0.49838   0.15869   0.80157   0.00000  Uiso   1.00
H163   H     0.61811   0.06257   0.75613   0.00000  Uiso   1.00
H164   H     0.45546   0.28047   0.69819   0.00000  Uiso   1.00
H165   H     0.40635   0.11739   0.93204   0.00000  Uiso   1.00
H166   H     0.77481   0.98076   0.73464   0.00000  Uiso   1.00
H167   H     0.43183   0.44020   0.61247   0.00000  Uiso   1.00
H168   H     0.32826   0.09633   0.10559   0.00000  Uiso   1.00
H169   H     0.68290   0.34925   0.02432   0.00000  Uiso   1.00
H170   H     0.81276   0.26358   0.99111   0.00000  Uiso   1.00
H171   H     0.65011   0.48148   0.93316   0.00000  Uiso   1.00
H172   H     0.60100   0.31840   0.16701   0.00000  Uiso   1.00
H173   H     0.93279   0.14391   0.92535   0.00000  Uiso   1.00
H174   H     0.58981   0.60335   0.80318   0.00000  Uiso   1.00
H175   H     0.48625   0.25948   0.29631   0.00000  Uiso   1.00
O176   O     0.93590   0.00256   0.80411   0.00000  Uiso   1.00
O177   O     0.48592   0.60533   0.64384   0.00000  Uiso   1.00
O178   O     0.35005   0.15418   0.29080   0.00000  Uiso   1.00
N179   N     0.79417   0.03090   0.78410   0.00000  Uiso   1.00
N180   N     0.47351   0.46045   0.66987   0.00000  Uiso   1.00
N181   N     0.37667   0.13898   0.13089   0.00000  Uiso   1.00
N182   N     0.87918   0.11869   0.88672   0.00000  Uiso   1.00
N183   N     0.55852   0.54824   0.77249   0.00000  Uiso   1.00
N184   N     0.46168   0.22677   0.23351   0.00000  Uiso   1.00
C185   C     0.87400   0.53742   0.18707   0.00000  Uiso   1.00
C186   C     0.87644   0.63000   0.16179   0.00000  Uiso   1.00
C187   C     0.83090   0.65906   0.08351   0.00000  Uiso   1.00
C188   C     0.84186   0.74616   0.07292   0.00000  Uiso   1.00
C189   C     0.83731   0.88142   0.02375   0.00000  Uiso   1.00
C190   C     0.84986   0.54149   0.28897   0.00000  Uiso   1.00
C191   C     0.78198   0.49611   0.31761   0.00000  Uiso   1.00
C192   C     0.77058   0.50869   0.41409   0.00000  Uiso   1.00
C193   C     0.72480   0.50648   0.56236   0.00000  Uiso   1.00
C194   C     0.96455   0.51134   0.19298   0.00000  Uiso   1.00
C195   C     0.99309   0.44061   0.14094   0.00000  Uiso   1.00
C196   C     0.07824   0.42780   0.15662   0.00000  Uiso   1.00
C197   C     0.21052   0.37879   0.15586   0.00000  Uiso   1.00
C198   C     0.97447   0.64041   0.30748   0.00000  Uiso   1.00
C199   C     0.93101   0.68594   0.22719   0.00000  Uiso   1.00
C200   C     0.94205   0.77302   0.21672   0.00000  Uiso   1.00
C201   C     0.89653   0.80220   0.13844   0.00000  Uiso   1.00
C202   C     0.90443   0.59743   0.35436   0.00000  Uiso   1.00
C203   C     0.89313   0.61007   0.45082   0.00000  Uiso   1.00
C204   C     0.82524   0.56473   0.47960   0.00000  Uiso   1.00
C205   C     0.01911   0.56729   0.25838   0.00000  Uiso   1.00
C206   C     0.10424   0.55457   0.27415   0.00000  Uiso   1.00
C207   C     0.13290   0.48384   0.22214   0.00000  Uiso   1.00
H208   H     0.83152   0.49386   0.13616   0.00000  Uiso   1.00
H209   H     0.78867   0.61575   0.03292   0.00000  Uiso   1.00
H210   H     0.73977   0.45282   0.26699   0.00000  Uiso   1.00
H211   H     0.95084   0.39734   0.09034   0.00000  Uiso   1.00
H212   H     0.76520   0.77557   0.94732   0.00000  Uiso   1.00
H213   H     0.66211   0.43200   0.44086   0.00000  Uiso   1.00
H214   H     0.10720   0.31499   0.06837   0.00000  Uiso   1.00
H215   H     0.01695   0.68396   0.35839   0.00000  Uiso   1.00
H216   H     0.98428   0.81629   0.26734   0.00000  Uiso   1.00
H217   H     0.93537   0.65336   0.50141   0.00000  Uiso   1.00
H218   H     0.14644   0.59787   0.32476   0.00000  Uiso   1.00
H219   H     0.92396   0.93833   0.13758   0.00000  Uiso   1.00
H220   H     0.82086   0.59476   0.63113   0.00000  Uiso   1.00
H221   H     0.26596   0.47776   0.25864   0.00000  Uiso   1.00
O222   O     0.81972   0.94057   0.97856   0.00000  Uiso   1.00
O223   O     0.68447   0.48981   0.62607   0.00000  Uiso   1.00
O224   O     0.26842   0.33630   0.13737   0.00000  Uiso   1.00
N225   N     0.80706   0.79571   0.00458   0.00000  Uiso   1.00
N226   N     0.71066   0.47450   0.46601   0.00000  Uiso   1.00
N227   N     0.12678   0.36510   0.11778   0.00000  Uiso   1.00
N228   N     0.89249   0.88329   0.10696   0.00000  Uiso   1.00
N229   N     0.79609   0.56209   0.56839   0.00000  Uiso   1.00
N230   N     0.21221   0.45268   0.22016   0.00000  Uiso   1.00
C231   C     0.20369   0.86959   0.51992   0.00000  Uiso   1.00
C232   C     0.17954   0.87383   0.62182   0.00000  Uiso   1.00
C233   C     0.11179   0.82836   0.65059   0.00000  Uiso   1.00
C234   C     0.10037   0.84110   0.74705   0.00000  Uiso   1.00
C235   C     0.05462   0.83910   0.89535   0.00000  Uiso   1.00
C236   C     0.29432   0.84379   0.52594   0.00000  Uiso   1.00
C237   C     0.32307   0.77307   0.47409   0.00000  Uiso   1.00
C238   C     0.40828   0.76054   0.48984   0.00000  Uiso   1.00
C239   C     0.54074   0.71194   0.48924   0.00000  Uiso   1.00
C240   C     0.20587   0.96208   0.49433   0.00000  Uiso   1.00
C241   C     0.16026   0.99081   0.41588   0.00000  Uiso   1.00
C242   C     0.17101   0.07787   0.40499   0.00000  Uiso   1.00
C243   C     0.16614   0.21292   0.35531   0.00000  Uiso   1.00
C244   C     0.30389   0.97309   0.64006   0.00000  Uiso   1.00
C245   C     0.23397   0.93004   0.68707   0.00000  Uiso   1.00
C246   C     0.22265   0.94287   0.78351   0.00000  Uiso   1.00
C247   C     0.15489   0.89742   0.81242   0.00000  Uiso   1.00
C248   C     0.34875   0.90000   0.59119   0.00000  Uiso   1.00
C249   C     0.43393   0.88758   0.60701   0.00000  Uiso   1.00
C250   C     0.46280   0.81686   0.55521   0.00000  Uiso   1.00
C251   C     0.26029   0.01830   0.55958   0.00000  Uiso   1.00
C252   C     0.27112   0.10532   0.54881   0.00000  Uiso   1.00
C253   C     0.22554   0.13419   0.47036   0.00000  Uiso   1.00
H254   H     0.16132   0.82582   0.46912   0.00000  Uiso   1.00
H255   H     0.06969   0.78485   0.60007   0.00000  Uiso   1.00
H256   H     0.28094   0.72958   0.42360   0.00000  Uiso   1.00
H257   H     0.11815   0.94729   0.36540   0.00000  Uiso   1.00
H258   H     0.99211   0.76420   0.77404   0.00000  Uiso   1.00
H259   H     0.43756   0.64767   0.40191   0.00000  Uiso   1.00
H260   H     0.09429   0.10675   0.27918   0.00000  Uiso   1.00
H261   H     0.34626   0.01686   0.69086   0.00000  Uiso   1.00
H262   H     0.26478   0.98637   0.83399   0.00000  Uiso   1.00
H263   H     0.47603   0.93110   0.65751   0.00000  Uiso   1.00
H264   H     0.31324   0.14881   0.59932   0.00000  Uiso   1.00
H265   H     0.15046   0.92775   0.96390   0.00000  Uiso   1.00
H266   H     0.59590   0.81123   0.59176   0.00000  Uiso   1.00
H267   H     0.25264   0.27031   0.46904   0.00000  Uiso   1.00
O268   O     0.01436   0.82245   0.95913   0.00000  Uiso   1.00
O269   O     0.59877   0.66959   0.47089   0.00000  Uiso   1.00
O270   O     0.14840   0.27189   0.30989   0.00000  Uiso   1.00
N271   N     0.04055   0.80689   0.79908   0.00000  Uiso   1.00
N272   N     0.45702   0.69794   0.45117   0.00000  Uiso   1.00
N273   N     0.13611   0.12713   0.33642   0.00000  Uiso   1.00
N274   N     0.12576   0.89490   0.90124   0.00000  Uiso   1.00
N275   N     0.54222   0.78595   0.55333   0.00000  Uiso   1.00
N276   N     0.22131   0.21514   0.43858   0.00000  Uiso   1.00
