data_job_03919
_audit_creation_date              2018-12-19
_audit_creation_method            'Materials Studio'
_symmetry_space_group_name_H-M    'P1'
_symmetry_Int_Tables_number       1
_symmetry_cell_setting            triclinic
loop_
_symmetry_equiv_pos_as_xyz
  x,y,z
_cell_length_a                    26.0945
_cell_length_b                    19.0290
_cell_length_c                    10.1854
_cell_angle_alpha                 90.0000
_cell_angle_beta                  90.0000
_cell_angle_gamma                 90.0000
loop_
_atom_site_label
_atom_site_type_symbol
_atom_site_fract_x
_atom_site_fract_y
_atom_site_fract_z
_atom_site_U_iso_or_equiv
_atom_site_adp_type
_atom_site_occupancy
C1     C     0.67013   0.51700   0.80319   0.00000  Uiso   1.00
C2     C     0.70604   0.56900   0.73603   0.00000  Uiso   1.00
C3     C     0.75918   0.56592   0.73682   0.00000  Uiso   1.00
C4     C     0.78511   0.61848   0.66956   0.00000  Uiso   1.00
C5     C     0.84488   0.69109   0.57532   0.00000  Uiso   1.00
C6     C     0.63646   0.56048   0.89471   0.00000  Uiso   1.00
C7     C     0.63108   0.55023   0.02891   0.00000  Uiso   1.00
C8     C     0.59844   0.59561   0.09523   0.00000  Uiso   1.00
C9     C     0.55014   0.65495   0.24732   0.00000  Uiso   1.00
C10    C     0.63470   0.48923   0.69603   0.00000  Uiso   1.00
C11    C     0.62783   0.41908   0.66320   0.00000  Uiso   1.00
C12    C     0.59369   0.40448   0.56226   0.00000  Uiso   1.00
C13    C     0.54267   0.35319   0.40587   0.00000  Uiso   1.00
C14    C     0.62170   0.61581   0.68234   0.00000  Uiso   1.00
C15    C     0.67974   0.62267   0.67039   0.00000  Uiso   1.00
C16    C     0.70560   0.67525   0.60311   0.00000  Uiso   1.00
C17    C     0.75876   0.67225   0.60380   0.00000  Uiso   1.00
C18    C     0.61015   0.61415   0.82907   0.00000  Uiso   1.00
C19    C     0.57750   0.65955   0.89520   0.00000  Uiso   1.00
C20    C     0.57208   0.64938   0.02947   0.00000  Uiso   1.00
C21    C     0.60839   0.54290   0.63038   0.00000  Uiso   1.00
C22    C     0.57425   0.52840   0.52948   0.00000  Uiso   1.00
C23    C     0.56734   0.45824   0.49650   0.00000  Uiso   1.00
H24    H     0.69061   0.47521   0.85430   0.00000  Uiso   1.00
H25    H     0.77952   0.52438   0.78764   0.00000  Uiso   1.00
H26    H     0.65144   0.50869   0.07968   0.00000  Uiso   1.00
H27    H     0.64819   0.37756   0.71402   0.00000  Uiso   1.00
H28    H     0.86649   0.60258   0.68483   0.00000  Uiso   1.00
H29    H     0.59642   0.56947   0.30060   0.00000  Uiso   1.00
H30    H     0.58957   0.29296   0.52954   0.00000  Uiso   1.00
H31    H     0.60122   0.65759   0.63123   0.00000  Uiso   1.00
H32    H     0.68523   0.71677   0.55232   0.00000  Uiso   1.00
H33    H     0.55715   0.70108   0.84437   0.00000  Uiso   1.00
H34    H     0.55391   0.56995   0.47871   0.00000  Uiso   1.00
H35    H     0.78997   0.75874   0.49384   0.00000  Uiso   1.00
H36    H     0.51989   0.72562   0.10961   0.00000  Uiso   1.00
H37    H     0.51305   0.44911   0.33855   0.00000  Uiso   1.00
O38    O     0.88511   0.71631   0.54148   0.00000  Uiso   1.00
O39    O     0.53078   0.67286   0.34935   0.00000  Uiso   1.00
O40    O     0.52179   0.31008   0.33773   0.00000  Uiso   1.00
N41    N     0.83695   0.63120   0.65068   0.00000  Uiso   1.00
N42    N     0.58446   0.60025   0.22640   0.00000  Uiso   1.00
N43    N     0.57805   0.34174   0.50554   0.00000  Uiso   1.00
N44    N     0.79578   0.71523   0.54791   0.00000  Uiso   1.00
N45    N     0.54328   0.68427   0.12363   0.00000  Uiso   1.00
N46    N     0.53687   0.42576   0.40277   0.00000  Uiso   1.00
C47    C     0.82987   0.48300   0.30319   0.00000  Uiso   1.00
C48    C     0.79396   0.43100   0.23603   0.00000  Uiso   1.00
C49    C     0.74082   0.43408   0.23682   0.00000  Uiso   1.00
C50    C     0.71489   0.38152   0.16956   0.00000  Uiso   1.00
C51    C     0.65512   0.30891   0.07532   0.00000  Uiso   1.00
C52    C     0.86354   0.43952   0.39471   0.00000  Uiso   1.00
C53    C     0.86892   0.44977   0.52891   0.00000  Uiso   1.00
C54    C     0.90156   0.40439   0.59523   0.00000  Uiso   1.00
C55    C     0.94986   0.34505   0.74732   0.00000  Uiso   1.00
C56    C     0.86530   0.51077   0.19603   0.00000  Uiso   1.00
C57    C     0.87217   0.58092   0.16320   0.00000  Uiso   1.00
C58    C     0.90631   0.59552   0.06226   0.00000  Uiso   1.00
C59    C     0.95733   0.64681   0.90587   0.00000  Uiso   1.00
C60    C     0.87830   0.38419   0.18234   0.00000  Uiso   1.00
C61    C     0.82026   0.37733   0.17039   0.00000  Uiso   1.00
C62    C     0.79440   0.32475   0.10311   0.00000  Uiso   1.00
C63    C     0.74124   0.32775   0.10380   0.00000  Uiso   1.00
C64    C     0.88985   0.38585   0.32907   0.00000  Uiso   1.00
C65    C     0.92250   0.34045   0.39520   0.00000  Uiso   1.00
C66    C     0.92792   0.35062   0.52947   0.00000  Uiso   1.00
C67    C     0.89161   0.45710   0.13038   0.00000  Uiso   1.00
C68    C     0.92575   0.47160   0.02948   0.00000  Uiso   1.00
C69    C     0.93266   0.54176   0.99650   0.00000  Uiso   1.00
H70    H     0.80939   0.52479   0.35430   0.00000  Uiso   1.00
H71    H     0.72048   0.47562   0.28764   0.00000  Uiso   1.00
H72    H     0.84856   0.49131   0.57968   0.00000  Uiso   1.00
H73    H     0.85181   0.62244   0.21402   0.00000  Uiso   1.00
H74    H     0.63351   0.39742   0.18483   0.00000  Uiso   1.00
H75    H     0.90358   0.43053   0.80060   0.00000  Uiso   1.00
H76    H     0.91043   0.70704   0.02954   0.00000  Uiso   1.00
H77    H     0.89878   0.34241   0.13123   0.00000  Uiso   1.00
H78    H     0.81477   0.28323   0.05232   0.00000  Uiso   1.00
H79    H     0.94285   0.29892   0.34437   0.00000  Uiso   1.00
H80    H     0.94609   0.43005   0.97871   0.00000  Uiso   1.00
H81    H     0.71003   0.24126   0.99384   0.00000  Uiso   1.00
H82    H     0.98011   0.27438   0.60961   0.00000  Uiso   1.00
H83    H     0.98695   0.55089   0.83855   0.00000  Uiso   1.00
O84    O     0.61489   0.28369   0.04148   0.00000  Uiso   1.00
O85    O     0.96922   0.32714   0.84935   0.00000  Uiso   1.00
O86    O     0.97821   0.68992   0.83773   0.00000  Uiso   1.00
N87    N     0.66305   0.36880   0.15068   0.00000  Uiso   1.00
N88    N     0.91554   0.39975   0.72640   0.00000  Uiso   1.00
N89    N     0.92195   0.65826   0.00554   0.00000  Uiso   1.00
N90    N     0.70422   0.28477   0.04791   0.00000  Uiso   1.00
N91    N     0.95672   0.31573   0.62363   0.00000  Uiso   1.00
N92    N     0.96313   0.57424   0.90277   0.00000  Uiso   1.00
C93    C     0.32987   0.01700   0.69681   0.00000  Uiso   1.00
C94    C     0.29396   0.06900   0.76397   0.00000  Uiso   1.00
C95    C     0.24082   0.06592   0.76318   0.00000  Uiso   1.00
C96    C     0.21489   0.11848   0.83044   0.00000  Uiso   1.00
C97    C     0.15512   0.19109   0.92468   0.00000  Uiso   1.00
C98    C     0.36354   0.06048   0.60529   0.00000  Uiso   1.00
C99    C     0.36892   0.05023   0.47109   0.00000  Uiso   1.00
C100   C     0.40156   0.09561   0.40477   0.00000  Uiso   1.00
C101   C     0.44986   0.15495   0.25268   0.00000  Uiso   1.00
C102   C     0.36530   0.98923   0.80397   0.00000  Uiso   1.00
C103   C     0.37217   0.91908   0.83680   0.00000  Uiso   1.00
C104   C     0.40631   0.90448   0.93774   0.00000  Uiso   1.00
C105   C     0.45733   0.85319   0.09413   0.00000  Uiso   1.00
C106   C     0.37830   0.11581   0.81766   0.00000  Uiso   1.00
C107   C     0.32026   0.12267   0.82961   0.00000  Uiso   1.00
C108   C     0.29440   0.17525   0.89689   0.00000  Uiso   1.00
C109   C     0.24124   0.17225   0.89620   0.00000  Uiso   1.00
C110   C     0.38985   0.11415   0.67093   0.00000  Uiso   1.00
C111   C     0.42250   0.15955   0.60480   0.00000  Uiso   1.00
C112   C     0.42792   0.14938   0.47053   0.00000  Uiso   1.00
C113   C     0.39161   0.04290   0.86962   0.00000  Uiso   1.00
C114   C     0.42575   0.02840   0.97052   0.00000  Uiso   1.00
C115   C     0.43266   0.95824   0.00350   0.00000  Uiso   1.00
H116   H     0.30939   0.97521   0.64570   0.00000  Uiso   1.00
H117   H     0.22048   0.02438   0.71236   0.00000  Uiso   1.00
H118   H     0.34856   0.00869   0.42032   0.00000  Uiso   1.00
H119   H     0.35181   0.87756   0.78598   0.00000  Uiso   1.00
H120   H     0.13351   0.10258   0.81517   0.00000  Uiso   1.00
H121   H     0.40358   0.06947   0.19940   0.00000  Uiso   1.00
H122   H     0.41043   0.79296   0.97046   0.00000  Uiso   1.00
H123   H     0.39878   0.15759   0.86877   0.00000  Uiso   1.00
H124   H     0.31477   0.21677   0.94768   0.00000  Uiso   1.00
H125   H     0.44285   0.20108   0.65563   0.00000  Uiso   1.00
H126   H     0.44609   0.06995   0.02129   0.00000  Uiso   1.00
H127   H     0.21003   0.25874   0.00616   0.00000  Uiso   1.00
H128   H     0.48011   0.22562   0.39039   0.00000  Uiso   1.00
H129   H     0.48695   0.94911   0.16145   0.00000  Uiso   1.00
O130   O     0.11489   0.21631   0.95852   0.00000  Uiso   1.00
O131   O     0.46922   0.17286   0.15065   0.00000  Uiso   1.00
O132   O     0.47821   0.81008   0.16227   0.00000  Uiso   1.00
N133   N     0.16305   0.13120   0.84932   0.00000  Uiso   1.00
N134   N     0.41554   0.10025   0.27360   0.00000  Uiso   1.00
N135   N     0.42195   0.84174   0.99446   0.00000  Uiso   1.00
N136   N     0.20422   0.21523   0.95209   0.00000  Uiso   1.00
N137   N     0.45672   0.18427   0.37637   0.00000  Uiso   1.00
N138   N     0.46313   0.92576   0.09723   0.00000  Uiso   1.00
C139   C     0.17013   0.98300   0.19681   0.00000  Uiso   1.00
C140   C     0.20604   0.93100   0.26397   0.00000  Uiso   1.00
C141   C     0.25918   0.93408   0.26318   0.00000  Uiso   1.00
C142   C     0.28511   0.88152   0.33044   0.00000  Uiso   1.00
C143   C     0.34488   0.80891   0.42468   0.00000  Uiso   1.00
C144   C     0.13646   0.93952   0.10529   0.00000  Uiso   1.00
C145   C     0.13108   0.94977   0.97109   0.00000  Uiso   1.00
C146   C     0.09844   0.90439   0.90477   0.00000  Uiso   1.00
C147   C     0.05014   0.84505   0.75268   0.00000  Uiso   1.00
C148   C     0.13470   0.01077   0.30397   0.00000  Uiso   1.00
C149   C     0.12783   0.08092   0.33680   0.00000  Uiso   1.00
C150   C     0.09369   0.09552   0.43774   0.00000  Uiso   1.00
C151   C     0.04267   0.14681   0.59413   0.00000  Uiso   1.00
C152   C     0.12170   0.88419   0.31766   0.00000  Uiso   1.00
C153   C     0.17974   0.87733   0.32961   0.00000  Uiso   1.00
C154   C     0.20560   0.82475   0.39689   0.00000  Uiso   1.00
C155   C     0.25876   0.82775   0.39620   0.00000  Uiso   1.00
C156   C     0.11015   0.88585   0.17093   0.00000  Uiso   1.00
C157   C     0.07750   0.84045   0.10480   0.00000  Uiso   1.00
C158   C     0.07208   0.85062   0.97053   0.00000  Uiso   1.00
C159   C     0.10839   0.95710   0.36962   0.00000  Uiso   1.00
C160   C     0.07425   0.97160   0.47052   0.00000  Uiso   1.00
C161   C     0.06734   0.04176   0.50350   0.00000  Uiso   1.00
H162   H     0.19061   0.02479   0.14570   0.00000  Uiso   1.00
H163   H     0.27952   0.97562   0.21236   0.00000  Uiso   1.00
H164   H     0.15144   0.99131   0.92032   0.00000  Uiso   1.00
H165   H     0.14819   0.12244   0.28598   0.00000  Uiso   1.00
H166   H     0.36649   0.89742   0.31517   0.00000  Uiso   1.00
H167   H     0.09642   0.93053   0.69940   0.00000  Uiso   1.00
H168   H     0.08957   0.20704   0.47046   0.00000  Uiso   1.00
H169   H     0.10122   0.84241   0.36877   0.00000  Uiso   1.00
H170   H     0.18523   0.78323   0.44768   0.00000  Uiso   1.00
H171   H     0.05715   0.79892   0.15563   0.00000  Uiso   1.00
H172   H     0.05391   0.93005   0.52129   0.00000  Uiso   1.00
H173   H     0.28997   0.74126   0.50616   0.00000  Uiso   1.00
H174   H     0.01989   0.77438   0.89039   0.00000  Uiso   1.00
H175   H     0.01305   0.05089   0.66145   0.00000  Uiso   1.00
O176   O     0.38511   0.78369   0.45852   0.00000  Uiso   1.00
O177   O     0.03078   0.82714   0.65065   0.00000  Uiso   1.00
O178   O     0.02179   0.18992   0.66227   0.00000  Uiso   1.00
N179   N     0.33695   0.86880   0.34932   0.00000  Uiso   1.00
N180   N     0.08446   0.89975   0.77360   0.00000  Uiso   1.00
N181   N     0.07805   0.15826   0.49446   0.00000  Uiso   1.00
N182   N     0.29578   0.78477   0.45209   0.00000  Uiso   1.00
N183   N     0.04328   0.81573   0.87637   0.00000  Uiso   1.00
N184   N     0.03687   0.07424   0.59723   0.00000  Uiso   1.00
C185   C     0.32987   0.48300   0.19681   0.00000  Uiso   1.00
C186   C     0.29396   0.43100   0.26397   0.00000  Uiso   1.00
C187   C     0.24082   0.43408   0.26318   0.00000  Uiso   1.00
C188   C     0.21489   0.38152   0.33044   0.00000  Uiso   1.00
C189   C     0.15512   0.30891   0.42468   0.00000  Uiso   1.00
C190   C     0.36354   0.43952   0.10529   0.00000  Uiso   1.00
C191   C     0.36892   0.44977   0.97109   0.00000  Uiso   1.00
C192   C     0.40156   0.40439   0.90477   0.00000  Uiso   1.00
C193   C     0.44986   0.34505   0.75268   0.00000  Uiso   1.00
C194   C     0.36530   0.51077   0.30397   0.00000  Uiso   1.00
C195   C     0.37217   0.58092   0.33680   0.00000  Uiso   1.00
C196   C     0.40631   0.59552   0.43774   0.00000  Uiso   1.00
C197   C     0.45733   0.64681   0.59413   0.00000  Uiso   1.00
C198   C     0.37830   0.38419   0.31766   0.00000  Uiso   1.00
C199   C     0.32026   0.37733   0.32961   0.00000  Uiso   1.00
C200   C     0.29440   0.32475   0.39689   0.00000  Uiso   1.00
C201   C     0.24124   0.32775   0.39620   0.00000  Uiso   1.00
C202   C     0.38985   0.38585   0.17093   0.00000  Uiso   1.00
C203   C     0.42250   0.34045   0.10480   0.00000  Uiso   1.00
C204   C     0.42792   0.35062   0.97053   0.00000  Uiso   1.00
C205   C     0.39161   0.45710   0.36962   0.00000  Uiso   1.00
C206   C     0.42575   0.47160   0.47052   0.00000  Uiso   1.00
C207   C     0.43266   0.54176   0.50350   0.00000  Uiso   1.00
H208   H     0.30939   0.52479   0.14570   0.00000  Uiso   1.00
H209   H     0.22048   0.47562   0.21236   0.00000  Uiso   1.00
H210   H     0.34856   0.49131   0.92032   0.00000  Uiso   1.00
H211   H     0.35181   0.62244   0.28598   0.00000  Uiso   1.00
H212   H     0.13351   0.39742   0.31517   0.00000  Uiso   1.00
H213   H     0.40358   0.43053   0.69940   0.00000  Uiso   1.00
H214   H     0.41043   0.70704   0.47046   0.00000  Uiso   1.00
H215   H     0.39878   0.34241   0.36877   0.00000  Uiso   1.00
H216   H     0.31477   0.28323   0.44768   0.00000  Uiso   1.00
H217   H     0.44285   0.29892   0.15563   0.00000  Uiso   1.00
H218   H     0.44609   0.43005   0.52129   0.00000  Uiso   1.00
H219   H     0.21003   0.24126   0.50616   0.00000  Uiso   1.00
H220   H     0.48011   0.27438   0.89039   0.00000  Uiso   1.00
H221   H     0.48695   0.55089   0.66145   0.00000  Uiso   1.00
O222   O     0.11489   0.28369   0.45852   0.00000  Uiso   1.00
O223   O     0.46922   0.32714   0.65065   0.00000  Uiso   1.00
O224   O     0.47821   0.68992   0.66227   0.00000  Uiso   1.00
N225   N     0.16305   0.36880   0.34932   0.00000  Uiso   1.00
N226   N     0.41554   0.39975   0.77360   0.00000  Uiso   1.00
N227   N     0.42195   0.65826   0.49446   0.00000  Uiso   1.00
N228   N     0.20422   0.28477   0.45209   0.00000  Uiso   1.00
N229   N     0.45672   0.31573   0.87637   0.00000  Uiso   1.00
N230   N     0.46313   0.57424   0.59723   0.00000  Uiso   1.00
C231   C     0.17013   0.51700   0.69681   0.00000  Uiso   1.00
C232   C     0.20604   0.56900   0.76397   0.00000  Uiso   1.00
C233   C     0.25918   0.56592   0.76318   0.00000  Uiso   1.00
C234   C     0.28511   0.61848   0.83044   0.00000  Uiso   1.00
C235   C     0.34488   0.69109   0.92468   0.00000  Uiso   1.00
C236   C     0.13646   0.56048   0.60529   0.00000  Uiso   1.00
C237   C     0.13108   0.55023   0.47109   0.00000  Uiso   1.00
C238   C     0.09844   0.59561   0.40477   0.00000  Uiso   1.00
C239   C     0.05014   0.65495   0.25268   0.00000  Uiso   1.00
C240   C     0.13470   0.48923   0.80397   0.00000  Uiso   1.00
C241   C     0.12783   0.41908   0.83680   0.00000  Uiso   1.00
C242   C     0.09369   0.40448   0.93774   0.00000  Uiso   1.00
C243   C     0.04267   0.35319   0.09413   0.00000  Uiso   1.00
C244   C     0.12170   0.61581   0.81766   0.00000  Uiso   1.00
C245   C     0.17974   0.62267   0.82961   0.00000  Uiso   1.00
C246   C     0.20560   0.67525   0.89689   0.00000  Uiso   1.00
C247   C     0.25876   0.67225   0.89620   0.00000  Uiso   1.00
C248   C     0.11015   0.61415   0.67093   0.00000  Uiso   1.00
C249   C     0.07750   0.65955   0.60480   0.00000  Uiso   1.00
C250   C     0.07208   0.64938   0.47053   0.00000  Uiso   1.00
C251   C     0.10839   0.54290   0.86962   0.00000  Uiso   1.00
C252   C     0.07425   0.52840   0.97052   0.00000  Uiso   1.00
C253   C     0.06734   0.45824   0.00350   0.00000  Uiso   1.00
H254   H     0.19061   0.47521   0.64570   0.00000  Uiso   1.00
H255   H     0.27952   0.52438   0.71236   0.00000  Uiso   1.00
H256   H     0.15144   0.50869   0.42032   0.00000  Uiso   1.00
H257   H     0.14819   0.37756   0.78598   0.00000  Uiso   1.00
H258   H     0.36649   0.60258   0.81517   0.00000  Uiso   1.00
H259   H     0.09642   0.56947   0.19940   0.00000  Uiso   1.00
H260   H     0.08957   0.29296   0.97046   0.00000  Uiso   1.00
H261   H     0.10122   0.65759   0.86877   0.00000  Uiso   1.00
H262   H     0.18523   0.71677   0.94768   0.00000  Uiso   1.00
H263   H     0.05715   0.70108   0.65563   0.00000  Uiso   1.00
H264   H     0.05391   0.56995   0.02129   0.00000  Uiso   1.00
H265   H     0.28997   0.75874   0.00616   0.00000  Uiso   1.00
H266   H     0.01989   0.72562   0.39039   0.00000  Uiso   1.00
H267   H     0.01305   0.44911   0.16145   0.00000  Uiso   1.00
O268   O     0.38511   0.71631   0.95852   0.00000  Uiso   1.00
O269   O     0.03078   0.67286   0.15065   0.00000  Uiso   1.00
O270   O     0.02179   0.31008   0.16227   0.00000  Uiso   1.00
N271   N     0.33695   0.63120   0.84932   0.00000  Uiso   1.00
N272   N     0.08446   0.60025   0.27360   0.00000  Uiso   1.00
N273   N     0.07805   0.34174   0.99446   0.00000  Uiso   1.00
N274   N     0.29578   0.71523   0.95209   0.00000  Uiso   1.00
N275   N     0.04328   0.68427   0.37637   0.00000  Uiso   1.00
N276   N     0.03687   0.42576   0.09723   0.00000  Uiso   1.00
C277   C     0.67013   0.98300   0.30319   0.00000  Uiso   1.00
C278   C     0.70604   0.93100   0.23603   0.00000  Uiso   1.00
C279   C     0.75918   0.93408   0.23682   0.00000  Uiso   1.00
C280   C     0.78511   0.88152   0.16956   0.00000  Uiso   1.00
C281   C     0.84488   0.80891   0.07532   0.00000  Uiso   1.00
C282   C     0.63646   0.93952   0.39471   0.00000  Uiso   1.00
C283   C     0.63108   0.94977   0.52891   0.00000  Uiso   1.00
C284   C     0.59844   0.90439   0.59523   0.00000  Uiso   1.00
C285   C     0.55014   0.84505   0.74732   0.00000  Uiso   1.00
C286   C     0.63470   0.01077   0.19603   0.00000  Uiso   1.00
C287   C     0.62783   0.08092   0.16320   0.00000  Uiso   1.00
C288   C     0.59369   0.09552   0.06226   0.00000  Uiso   1.00
C289   C     0.54267   0.14681   0.90587   0.00000  Uiso   1.00
C290   C     0.62170   0.88419   0.18234   0.00000  Uiso   1.00
C291   C     0.67974   0.87733   0.17039   0.00000  Uiso   1.00
C292   C     0.70560   0.82475   0.10311   0.00000  Uiso   1.00
C293   C     0.75876   0.82775   0.10380   0.00000  Uiso   1.00
C294   C     0.61015   0.88585   0.32907   0.00000  Uiso   1.00
C295   C     0.57750   0.84045   0.39520   0.00000  Uiso   1.00
C296   C     0.57208   0.85062   0.52947   0.00000  Uiso   1.00
C297   C     0.60839   0.95710   0.13038   0.00000  Uiso   1.00
C298   C     0.57425   0.97160   0.02948   0.00000  Uiso   1.00
C299   C     0.56734   0.04176   0.99650   0.00000  Uiso   1.00
H300   H     0.69061   0.02479   0.35430   0.00000  Uiso   1.00
H301   H     0.77952   0.97562   0.28764   0.00000  Uiso   1.00
H302   H     0.65144   0.99131   0.57968   0.00000  Uiso   1.00
H303   H     0.64819   0.12244   0.21402   0.00000  Uiso   1.00
H304   H     0.86649   0.89742   0.18483   0.00000  Uiso   1.00
H305   H     0.59642   0.93053   0.80060   0.00000  Uiso   1.00
H306   H     0.58957   0.20704   0.02954   0.00000  Uiso   1.00
H307   H     0.60122   0.84241   0.13123   0.00000  Uiso   1.00
H308   H     0.68523   0.78323   0.05232   0.00000  Uiso   1.00
H309   H     0.55715   0.79892   0.34437   0.00000  Uiso   1.00
H310   H     0.55391   0.93005   0.97871   0.00000  Uiso   1.00
H311   H     0.78997   0.74126   0.99384   0.00000  Uiso   1.00
H312   H     0.51989   0.77438   0.60961   0.00000  Uiso   1.00
H313   H     0.51305   0.05089   0.83855   0.00000  Uiso   1.00
O314   O     0.88511   0.78369   0.04148   0.00000  Uiso   1.00
O315   O     0.53078   0.82714   0.84935   0.00000  Uiso   1.00
O316   O     0.52179   0.18992   0.83773   0.00000  Uiso   1.00
N317   N     0.83695   0.86880   0.15068   0.00000  Uiso   1.00
N318   N     0.58446   0.89975   0.72640   0.00000  Uiso   1.00
N319   N     0.57805   0.15826   0.00554   0.00000  Uiso   1.00
N320   N     0.79578   0.78477   0.04791   0.00000  Uiso   1.00
N321   N     0.54328   0.81573   0.62363   0.00000  Uiso   1.00
N322   N     0.53687   0.07424   0.90277   0.00000  Uiso   1.00
C323   C     0.82987   0.01700   0.80319   0.00000  Uiso   1.00
C324   C     0.79396   0.06900   0.73603   0.00000  Uiso   1.00
C325   C     0.74082   0.06592   0.73682   0.00000  Uiso   1.00
C326   C     0.71489   0.11848   0.66956   0.00000  Uiso   1.00
C327   C     0.65512   0.19109   0.57532   0.00000  Uiso   1.00
C328   C     0.86354   0.06048   0.89471   0.00000  Uiso   1.00
C329   C     0.86892   0.05023   0.02891   0.00000  Uiso   1.00
C330   C     0.90156   0.09561   0.09523   0.00000  Uiso   1.00
C331   C     0.94986   0.15495   0.24732   0.00000  Uiso   1.00
C332   C     0.86530   0.98923   0.69603   0.00000  Uiso   1.00
C333   C     0.87217   0.91908   0.66320   0.00000  Uiso   1.00
C334   C     0.90631   0.90448   0.56226   0.00000  Uiso   1.00
C335   C     0.95733   0.85319   0.40587   0.00000  Uiso   1.00
C336   C     0.87830   0.11581   0.68234   0.00000  Uiso   1.00
C337   C     0.82026   0.12267   0.67039   0.00000  Uiso   1.00
C338   C     0.79440   0.17525   0.60311   0.00000  Uiso   1.00
C339   C     0.74124   0.17225   0.60380   0.00000  Uiso   1.00
C340   C     0.88985   0.11415   0.82907   0.00000  Uiso   1.00
C341   C     0.92250   0.15955   0.89520   0.00000  Uiso   1.00
C342   C     0.92792   0.14938   0.02947   0.00000  Uiso   1.00
C343   C     0.89161   0.04290   0.63038   0.00000  Uiso   1.00
C344   C     0.92575   0.02840   0.52948   0.00000  Uiso   1.00
C345   C     0.93266   0.95824   0.49650   0.00000  Uiso   1.00
H346   H     0.80939   0.97521   0.85430   0.00000  Uiso   1.00
H347   H     0.72048   0.02438   0.78764   0.00000  Uiso   1.00
H348   H     0.84856   0.00869   0.07968   0.00000  Uiso   1.00
H349   H     0.85181   0.87756   0.71402   0.00000  Uiso   1.00
H350   H     0.63351   0.10258   0.68483   0.00000  Uiso   1.00
H351   H     0.90358   0.06947   0.30060   0.00000  Uiso   1.00
H352   H     0.91043   0.79296   0.52954   0.00000  Uiso   1.00
H353   H     0.89878   0.15759   0.63123   0.00000  Uiso   1.00
H354   H     0.81477   0.21677   0.55232   0.00000  Uiso   1.00
H355   H     0.94285   0.20108   0.84437   0.00000  Uiso   1.00
H356   H     0.94609   0.06995   0.47871   0.00000  Uiso   1.00
H357   H     0.71003   0.25874   0.49384   0.00000  Uiso   1.00
H358   H     0.98011   0.22562   0.10961   0.00000  Uiso   1.00
H359   H     0.98695   0.94911   0.33855   0.00000  Uiso   1.00
O360   O     0.61489   0.21631   0.54148   0.00000  Uiso   1.00
O361   O     0.96922   0.17286   0.34935   0.00000  Uiso   1.00
O362   O     0.97821   0.81008   0.33773   0.00000  Uiso   1.00
N363   N     0.66305   0.13120   0.65068   0.00000  Uiso   1.00
N364   N     0.91554   0.10025   0.22640   0.00000  Uiso   1.00
N365   N     0.92195   0.84174   0.50554   0.00000  Uiso   1.00
N366   N     0.70422   0.21523   0.54791   0.00000  Uiso   1.00
N367   N     0.95672   0.18427   0.12363   0.00000  Uiso   1.00
N368   N     0.96313   0.92576   0.40277   0.00000  Uiso   1.00
