data_job_03143
_audit_creation_date              2018-12-19
_audit_creation_method            'Materials Studio'
_symmetry_space_group_name_H-M    'P1'
_symmetry_Int_Tables_number       1
_symmetry_cell_setting            triclinic
loop_
_symmetry_equiv_pos_as_xyz
  x,y,z
_cell_length_a                    11.8659
_cell_length_b                    15.8963
_cell_length_c                    30.8737
_cell_angle_alpha                 90.0000
_cell_angle_beta                  90.0000
_cell_angle_gamma                 90.0000
loop_
_atom_site_label
_atom_site_type_symbol
_atom_site_fract_x
_atom_site_fract_y
_atom_site_fract_z
_atom_site_U_iso_or_equiv
_atom_site_adp_type
_atom_site_occupancy
C1     C     0.91225   0.59459   0.85482   0.00000  Uiso   1.00
C2     C     0.89245   0.52429   0.82208   0.00000  Uiso   1.00
C3     C     0.84610   0.53395   0.78111   0.00000  Uiso   1.00
C4     C     0.83498   0.46187   0.75608   0.00000  Uiso   1.00
C5     C     0.79902   0.36469   0.70292   0.00000  Uiso   1.00
C6     C     0.84987   0.56846   0.89585   0.00000  Uiso   1.00
C7     C     0.76773   0.61526   0.91691   0.00000  Uiso   1.00
C8     C     0.72078   0.58037   0.95398   0.00000  Uiso   1.00
C9     C     0.61877   0.55180   0.01536   0.00000  Uiso   1.00
C10    C     0.03737   0.59154   0.86597   0.00000  Uiso   1.00
C11    C     0.11287   0.65775   0.86192   0.00000  Uiso   1.00
C12    C     0.22378   0.64228   0.87385   0.00000  Uiso   1.00
C13    C     0.41288   0.64954   0.88884   0.00000  Uiso   1.00
C14    C     0.97494   0.44942   0.88321   0.00000  Uiso   1.00
C15    C     0.92650   0.44544   0.83751   0.00000  Uiso   1.00
C16    C     0.91546   0.37332   0.81253   0.00000  Uiso   1.00
C17    C     0.86910   0.38287   0.77153   0.00000  Uiso   1.00
C18    C     0.88392   0.48961   0.91127   0.00000  Uiso   1.00
C19    C     0.83709   0.45464   0.94832   0.00000  Uiso   1.00
C20    C     0.75489   0.50137   0.96943   0.00000  Uiso   1.00
C21    C     0.07142   0.51268   0.88140   0.00000  Uiso   1.00
C22    C     0.18223   0.49712   0.89333   0.00000  Uiso   1.00
C23    C     0.25789   0.56329   0.88930   0.00000  Uiso   1.00
H24    H     0.88573   0.65599   0.84281   0.00000  Uiso   1.00
H25    H     0.81975   0.59498   0.76919   0.00000  Uiso   1.00
H26    H     0.74140   0.67629   0.90497   0.00000  Uiso   1.00
H27    H     0.08649   0.71876   0.84999   0.00000  Uiso   1.00
H28    H     0.76157   0.49256   0.69438   0.00000  Uiso   1.00
H29    H     0.59640   0.66402   0.98068   0.00000  Uiso   1.00
H30    H     0.32409   0.75358   0.86474   0.00000  Uiso   1.00
H31    H     0.00145   0.38802   0.89522   0.00000  Uiso   1.00
H32    H     0.94182   0.31231   0.82447   0.00000  Uiso   1.00
H33    H     0.86346   0.39362   0.96025   0.00000  Uiso   1.00
H34    H     0.20855   0.43609   0.90527   0.00000  Uiso   1.00
H35    H     0.86064   0.26314   0.73924   0.00000  Uiso   1.00
H36    H     0.69547   0.43460   0.02555   0.00000  Uiso   1.00
H37    H     0.42316   0.52415   0.90961   0.00000  Uiso   1.00
O38    O     0.76975   0.33288   0.66933   0.00000  Uiso   1.00
O39    O     0.55308   0.55783   0.04495   0.00000  Uiso   1.00
O40    O     0.50778   0.67533   0.89284   0.00000  Uiso   1.00
N41    N     0.79309   0.44896   0.71464   0.00000  Uiso   1.00
N42    N     0.63865   0.60926   0.98231   0.00000  Uiso   1.00
N43    N     0.31898   0.69300   0.87393   0.00000  Uiso   1.00
N44    N     0.84640   0.32551   0.73879   0.00000  Uiso   1.00
N45    N     0.69196   0.48581   0.00645   0.00000  Uiso   1.00
N46    N     0.37228   0.56954   0.89807   0.00000  Uiso   1.00
C47    C     0.58775   0.90541   0.35482   0.00000  Uiso   1.00
C48    C     0.60755   0.97571   0.32208   0.00000  Uiso   1.00
C49    C     0.65390   0.96605   0.28111   0.00000  Uiso   1.00
C50    C     0.66502   0.03813   0.25608   0.00000  Uiso   1.00
C51    C     0.70098   0.13531   0.20292   0.00000  Uiso   1.00
C52    C     0.65013   0.93154   0.39585   0.00000  Uiso   1.00
C53    C     0.73227   0.88474   0.41691   0.00000  Uiso   1.00
C54    C     0.77922   0.91963   0.45398   0.00000  Uiso   1.00
C55    C     0.88123   0.94820   0.51536   0.00000  Uiso   1.00
C56    C     0.46263   0.90846   0.36597   0.00000  Uiso   1.00
C57    C     0.38713   0.84225   0.36192   0.00000  Uiso   1.00
C58    C     0.27622   0.85772   0.37385   0.00000  Uiso   1.00
C59    C     0.08712   0.85046   0.38884   0.00000  Uiso   1.00
C60    C     0.52506   0.05058   0.38321   0.00000  Uiso   1.00
C61    C     0.57350   0.05456   0.33751   0.00000  Uiso   1.00
C62    C     0.58454   0.12668   0.31253   0.00000  Uiso   1.00
C63    C     0.63090   0.11713   0.27153   0.00000  Uiso   1.00
C64    C     0.61608   0.01039   0.41127   0.00000  Uiso   1.00
C65    C     0.66291   0.04536   0.44832   0.00000  Uiso   1.00
C66    C     0.74511   0.99863   0.46943   0.00000  Uiso   1.00
C67    C     0.42858   0.98732   0.38140   0.00000  Uiso   1.00
C68    C     0.31777   0.00288   0.39333   0.00000  Uiso   1.00
C69    C     0.24211   0.93671   0.38930   0.00000  Uiso   1.00
H70    H     0.61427   0.84401   0.34281   0.00000  Uiso   1.00
H71    H     0.68025   0.90502   0.26919   0.00000  Uiso   1.00
H72    H     0.75860   0.82371   0.40497   0.00000  Uiso   1.00
H73    H     0.41351   0.78124   0.34999   0.00000  Uiso   1.00
H74    H     0.73843   0.00744   0.19438   0.00000  Uiso   1.00
H75    H     0.90360   0.83598   0.48068   0.00000  Uiso   1.00
H76    H     0.17591   0.74642   0.36474   0.00000  Uiso   1.00
H77    H     0.49855   0.11198   0.39522   0.00000  Uiso   1.00
H78    H     0.55818   0.18769   0.32447   0.00000  Uiso   1.00
H79    H     0.63654   0.10638   0.46025   0.00000  Uiso   1.00
H80    H     0.29145   0.06391   0.40527   0.00000  Uiso   1.00
H81    H     0.63936   0.23686   0.23924   0.00000  Uiso   1.00
H82    H     0.80453   0.06540   0.52555   0.00000  Uiso   1.00
H83    H     0.07684   0.97585   0.40961   0.00000  Uiso   1.00
O84    O     0.73025   0.16712   0.16933   0.00000  Uiso   1.00
O85    O     0.94692   0.94217   0.54495   0.00000  Uiso   1.00
O86    O     0.99222   0.82467   0.39284   0.00000  Uiso   1.00
N87    N     0.70691   0.05104   0.21464   0.00000  Uiso   1.00
N88    N     0.86135   0.89074   0.48231   0.00000  Uiso   1.00
N89    N     0.18102   0.80700   0.37393   0.00000  Uiso   1.00
N90    N     0.65360   0.17449   0.23879   0.00000  Uiso   1.00
N91    N     0.80804   0.01419   0.50645   0.00000  Uiso   1.00
N92    N     0.12772   0.93046   0.39807   0.00000  Uiso   1.00
C93    C     0.08775   0.59459   0.64518   0.00000  Uiso   1.00
C94    C     0.10755   0.52429   0.67792   0.00000  Uiso   1.00
C95    C     0.15390   0.53395   0.71889   0.00000  Uiso   1.00
C96    C     0.16502   0.46187   0.74392   0.00000  Uiso   1.00
C97    C     0.20098   0.36469   0.79708   0.00000  Uiso   1.00
C98    C     0.15013   0.56846   0.60415   0.00000  Uiso   1.00
C99    C     0.23227   0.61526   0.58309   0.00000  Uiso   1.00
C100   C     0.27922   0.58037   0.54602   0.00000  Uiso   1.00
C101   C     0.38123   0.55180   0.48464   0.00000  Uiso   1.00
C102   C     0.96263   0.59154   0.63403   0.00000  Uiso   1.00
C103   C     0.88713   0.65775   0.63808   0.00000  Uiso   1.00
C104   C     0.77622   0.64228   0.62615   0.00000  Uiso   1.00
C105   C     0.58712   0.64954   0.61116   0.00000  Uiso   1.00
C106   C     0.02506   0.44942   0.61679   0.00000  Uiso   1.00
C107   C     0.07350   0.44544   0.66249   0.00000  Uiso   1.00
C108   C     0.08454   0.37332   0.68747   0.00000  Uiso   1.00
C109   C     0.13090   0.38287   0.72847   0.00000  Uiso   1.00
C110   C     0.11608   0.48961   0.58873   0.00000  Uiso   1.00
C111   C     0.16291   0.45464   0.55168   0.00000  Uiso   1.00
C112   C     0.24511   0.50137   0.53057   0.00000  Uiso   1.00
C113   C     0.92858   0.51268   0.61860   0.00000  Uiso   1.00
C114   C     0.81777   0.49712   0.60667   0.00000  Uiso   1.00
C115   C     0.74211   0.56329   0.61070   0.00000  Uiso   1.00
H116   H     0.11427   0.65599   0.65719   0.00000  Uiso   1.00
H117   H     0.18025   0.59498   0.73081   0.00000  Uiso   1.00
H118   H     0.25860   0.67629   0.59503   0.00000  Uiso   1.00
H119   H     0.91351   0.71876   0.65001   0.00000  Uiso   1.00
H120   H     0.23843   0.49256   0.80562   0.00000  Uiso   1.00
H121   H     0.40360   0.66402   0.51932   0.00000  Uiso   1.00
H122   H     0.67591   0.75358   0.63526   0.00000  Uiso   1.00
H123   H     0.99855   0.38802   0.60478   0.00000  Uiso   1.00
H124   H     0.05818   0.31231   0.67553   0.00000  Uiso   1.00
H125   H     0.13654   0.39362   0.53975   0.00000  Uiso   1.00
H126   H     0.79145   0.43609   0.59473   0.00000  Uiso   1.00
H127   H     0.13936   0.26314   0.76076   0.00000  Uiso   1.00
H128   H     0.30453   0.43460   0.47445   0.00000  Uiso   1.00
H129   H     0.57684   0.52415   0.59039   0.00000  Uiso   1.00
O130   O     0.23025   0.33288   0.83067   0.00000  Uiso   1.00
O131   O     0.44692   0.55783   0.45505   0.00000  Uiso   1.00
O132   O     0.49222   0.67533   0.60716   0.00000  Uiso   1.00
N133   N     0.20691   0.44896   0.78536   0.00000  Uiso   1.00
N134   N     0.36135   0.60926   0.51769   0.00000  Uiso   1.00
N135   N     0.68102   0.69300   0.62607   0.00000  Uiso   1.00
N136   N     0.15360   0.32551   0.76121   0.00000  Uiso   1.00
N137   N     0.30804   0.48581   0.49355   0.00000  Uiso   1.00
N138   N     0.62772   0.56954   0.60193   0.00000  Uiso   1.00
C139   C     0.41225   0.90541   0.14518   0.00000  Uiso   1.00
C140   C     0.39245   0.97571   0.17792   0.00000  Uiso   1.00
C141   C     0.34610   0.96605   0.21889   0.00000  Uiso   1.00
C142   C     0.33498   0.03813   0.24392   0.00000  Uiso   1.00
C143   C     0.29902   0.13531   0.29708   0.00000  Uiso   1.00
C144   C     0.34987   0.93154   0.10415   0.00000  Uiso   1.00
C145   C     0.26773   0.88474   0.08309   0.00000  Uiso   1.00
C146   C     0.22078   0.91963   0.04602   0.00000  Uiso   1.00
C147   C     0.11877   0.94820   0.98464   0.00000  Uiso   1.00
C148   C     0.53737   0.90846   0.13403   0.00000  Uiso   1.00
C149   C     0.61287   0.84225   0.13808   0.00000  Uiso   1.00
C150   C     0.72378   0.85772   0.12615   0.00000  Uiso   1.00
C151   C     0.91288   0.85046   0.11116   0.00000  Uiso   1.00
C152   C     0.47494   0.05058   0.11679   0.00000  Uiso   1.00
C153   C     0.42650   0.05456   0.16249   0.00000  Uiso   1.00
C154   C     0.41546   0.12668   0.18747   0.00000  Uiso   1.00
C155   C     0.36910   0.11713   0.22847   0.00000  Uiso   1.00
C156   C     0.38392   0.01039   0.08873   0.00000  Uiso   1.00
C157   C     0.33709   0.04536   0.05168   0.00000  Uiso   1.00
C158   C     0.25489   0.99863   0.03057   0.00000  Uiso   1.00
C159   C     0.57142   0.98732   0.11860   0.00000  Uiso   1.00
C160   C     0.68223   0.00288   0.10667   0.00000  Uiso   1.00
C161   C     0.75789   0.93671   0.11070   0.00000  Uiso   1.00
H162   H     0.38573   0.84401   0.15719   0.00000  Uiso   1.00
H163   H     0.31975   0.90502   0.23081   0.00000  Uiso   1.00
H164   H     0.24140   0.82371   0.09503   0.00000  Uiso   1.00
H165   H     0.58649   0.78124   0.15001   0.00000  Uiso   1.00
H166   H     0.26157   0.00744   0.30562   0.00000  Uiso   1.00
H167   H     0.09640   0.83598   0.01932   0.00000  Uiso   1.00
H168   H     0.82409   0.74642   0.13526   0.00000  Uiso   1.00
H169   H     0.50145   0.11198   0.10478   0.00000  Uiso   1.00
H170   H     0.44182   0.18769   0.17553   0.00000  Uiso   1.00
H171   H     0.36346   0.10638   0.03975   0.00000  Uiso   1.00
H172   H     0.70855   0.06391   0.09473   0.00000  Uiso   1.00
H173   H     0.36064   0.23686   0.26076   0.00000  Uiso   1.00
H174   H     0.19547   0.06540   0.97445   0.00000  Uiso   1.00
H175   H     0.92316   0.97585   0.09039   0.00000  Uiso   1.00
O176   O     0.26975   0.16712   0.33067   0.00000  Uiso   1.00
O177   O     0.05308   0.94217   0.95505   0.00000  Uiso   1.00
O178   O     0.00778   0.82467   0.10716   0.00000  Uiso   1.00
N179   N     0.29309   0.05104   0.28536   0.00000  Uiso   1.00
N180   N     0.13865   0.89074   0.01769   0.00000  Uiso   1.00
N181   N     0.81898   0.80700   0.12607   0.00000  Uiso   1.00
N182   N     0.34640   0.17449   0.26121   0.00000  Uiso   1.00
N183   N     0.19196   0.01419   0.99355   0.00000  Uiso   1.00
N184   N     0.87228   0.93046   0.10193   0.00000  Uiso   1.00
C185   C     0.08775   0.40541   0.14518   0.00000  Uiso   1.00
C186   C     0.10755   0.47571   0.17792   0.00000  Uiso   1.00
C187   C     0.15390   0.46605   0.21889   0.00000  Uiso   1.00
C188   C     0.16502   0.53813   0.24392   0.00000  Uiso   1.00
C189   C     0.20098   0.63531   0.29708   0.00000  Uiso   1.00
C190   C     0.15013   0.43154   0.10415   0.00000  Uiso   1.00
C191   C     0.23227   0.38474   0.08309   0.00000  Uiso   1.00
C192   C     0.27922   0.41963   0.04602   0.00000  Uiso   1.00
C193   C     0.38123   0.44820   0.98464   0.00000  Uiso   1.00
C194   C     0.96263   0.40846   0.13403   0.00000  Uiso   1.00
C195   C     0.88713   0.34225   0.13808   0.00000  Uiso   1.00
C196   C     0.77622   0.35772   0.12615   0.00000  Uiso   1.00
C197   C     0.58712   0.35046   0.11116   0.00000  Uiso   1.00
C198   C     0.02506   0.55058   0.11679   0.00000  Uiso   1.00
C199   C     0.07350   0.55456   0.16249   0.00000  Uiso   1.00
C200   C     0.08454   0.62668   0.18747   0.00000  Uiso   1.00
C201   C     0.13090   0.61713   0.22847   0.00000  Uiso   1.00
C202   C     0.11608   0.51039   0.08873   0.00000  Uiso   1.00
C203   C     0.16291   0.54536   0.05168   0.00000  Uiso   1.00
C204   C     0.24511   0.49863   0.03057   0.00000  Uiso   1.00
C205   C     0.92858   0.48732   0.11860   0.00000  Uiso   1.00
C206   C     0.81777   0.50288   0.10667   0.00000  Uiso   1.00
C207   C     0.74211   0.43671   0.11070   0.00000  Uiso   1.00
H208   H     0.11427   0.34401   0.15719   0.00000  Uiso   1.00
H209   H     0.18025   0.40502   0.23081   0.00000  Uiso   1.00
H210   H     0.25860   0.32371   0.09503   0.00000  Uiso   1.00
H211   H     0.91351   0.28124   0.15001   0.00000  Uiso   1.00
H212   H     0.23843   0.50744   0.30562   0.00000  Uiso   1.00
H213   H     0.40360   0.33598   0.01932   0.00000  Uiso   1.00
H214   H     0.67591   0.24642   0.13526   0.00000  Uiso   1.00
H215   H     0.99855   0.61198   0.10478   0.00000  Uiso   1.00
H216   H     0.05818   0.68769   0.17553   0.00000  Uiso   1.00
H217   H     0.13654   0.60638   0.03975   0.00000  Uiso   1.00
H218   H     0.79145   0.56391   0.09473   0.00000  Uiso   1.00
H219   H     0.13936   0.73686   0.26076   0.00000  Uiso   1.00
H220   H     0.30453   0.56540   0.97445   0.00000  Uiso   1.00
H221   H     0.57684   0.47585   0.09039   0.00000  Uiso   1.00
O222   O     0.23025   0.66712   0.33067   0.00000  Uiso   1.00
O223   O     0.44692   0.44217   0.95505   0.00000  Uiso   1.00
O224   O     0.49222   0.32467   0.10716   0.00000  Uiso   1.00
N225   N     0.20691   0.55104   0.28536   0.00000  Uiso   1.00
N226   N     0.36135   0.39074   0.01769   0.00000  Uiso   1.00
N227   N     0.68102   0.30700   0.12607   0.00000  Uiso   1.00
N228   N     0.15360   0.67449   0.26121   0.00000  Uiso   1.00
N229   N     0.30804   0.51419   0.99355   0.00000  Uiso   1.00
N230   N     0.62772   0.43046   0.10193   0.00000  Uiso   1.00
C231   C     0.41225   0.09459   0.64518   0.00000  Uiso   1.00
C232   C     0.39245   0.02429   0.67792   0.00000  Uiso   1.00
C233   C     0.34610   0.03395   0.71889   0.00000  Uiso   1.00
C234   C     0.33498   0.96187   0.74392   0.00000  Uiso   1.00
C235   C     0.29902   0.86469   0.79708   0.00000  Uiso   1.00
C236   C     0.34987   0.06846   0.60415   0.00000  Uiso   1.00
C237   C     0.26773   0.11526   0.58309   0.00000  Uiso   1.00
C238   C     0.22078   0.08037   0.54602   0.00000  Uiso   1.00
C239   C     0.11877   0.05180   0.48464   0.00000  Uiso   1.00
C240   C     0.53737   0.09154   0.63403   0.00000  Uiso   1.00
C241   C     0.61287   0.15775   0.63808   0.00000  Uiso   1.00
C242   C     0.72378   0.14228   0.62615   0.00000  Uiso   1.00
C243   C     0.91288   0.14954   0.61116   0.00000  Uiso   1.00
C244   C     0.47494   0.94942   0.61679   0.00000  Uiso   1.00
C245   C     0.42650   0.94544   0.66249   0.00000  Uiso   1.00
C246   C     0.41546   0.87332   0.68747   0.00000  Uiso   1.00
C247   C     0.36910   0.88287   0.72847   0.00000  Uiso   1.00
C248   C     0.38392   0.98961   0.58873   0.00000  Uiso   1.00
C249   C     0.33709   0.95464   0.55168   0.00000  Uiso   1.00
C250   C     0.25489   0.00137   0.53057   0.00000  Uiso   1.00
C251   C     0.57142   0.01268   0.61860   0.00000  Uiso   1.00
C252   C     0.68223   0.99712   0.60667   0.00000  Uiso   1.00
C253   C     0.75789   0.06329   0.61070   0.00000  Uiso   1.00
H254   H     0.38573   0.15599   0.65719   0.00000  Uiso   1.00
H255   H     0.31975   0.09498   0.73081   0.00000  Uiso   1.00
H256   H     0.24140   0.17629   0.59503   0.00000  Uiso   1.00
H257   H     0.58649   0.21876   0.65001   0.00000  Uiso   1.00
H258   H     0.26157   0.99256   0.80562   0.00000  Uiso   1.00
H259   H     0.09640   0.16402   0.51932   0.00000  Uiso   1.00
H260   H     0.82409   0.25358   0.63526   0.00000  Uiso   1.00
H261   H     0.50145   0.88802   0.60478   0.00000  Uiso   1.00
H262   H     0.44182   0.81231   0.67553   0.00000  Uiso   1.00
H263   H     0.36346   0.89362   0.53975   0.00000  Uiso   1.00
H264   H     0.70855   0.93609   0.59473   0.00000  Uiso   1.00
H265   H     0.36064   0.76314   0.76076   0.00000  Uiso   1.00
H266   H     0.19547   0.93460   0.47445   0.00000  Uiso   1.00
H267   H     0.92316   0.02415   0.59039   0.00000  Uiso   1.00
O268   O     0.26975   0.83288   0.83067   0.00000  Uiso   1.00
O269   O     0.05308   0.05783   0.45505   0.00000  Uiso   1.00
O270   O     0.00778   0.17533   0.60716   0.00000  Uiso   1.00
N271   N     0.29309   0.94896   0.78536   0.00000  Uiso   1.00
N272   N     0.13865   0.10926   0.51769   0.00000  Uiso   1.00
N273   N     0.81898   0.19300   0.62607   0.00000  Uiso   1.00
N274   N     0.34640   0.82551   0.76121   0.00000  Uiso   1.00
N275   N     0.19196   0.98581   0.49355   0.00000  Uiso   1.00
N276   N     0.87228   0.06954   0.60193   0.00000  Uiso   1.00
C277   C     0.91225   0.40541   0.35482   0.00000  Uiso   1.00
C278   C     0.89245   0.47571   0.32208   0.00000  Uiso   1.00
C279   C     0.84610   0.46605   0.28111   0.00000  Uiso   1.00
C280   C     0.83498   0.53813   0.25608   0.00000  Uiso   1.00
C281   C     0.79902   0.63531   0.20292   0.00000  Uiso   1.00
C282   C     0.84987   0.43154   0.39585   0.00000  Uiso   1.00
C283   C     0.76773   0.38474   0.41691   0.00000  Uiso   1.00
C284   C     0.72078   0.41963   0.45398   0.00000  Uiso   1.00
C285   C     0.61877   0.44820   0.51536   0.00000  Uiso   1.00
C286   C     0.03737   0.40846   0.36597   0.00000  Uiso   1.00
C287   C     0.11287   0.34225   0.36192   0.00000  Uiso   1.00
C288   C     0.22378   0.35772   0.37385   0.00000  Uiso   1.00
C289   C     0.41288   0.35046   0.38884   0.00000  Uiso   1.00
C290   C     0.97494   0.55058   0.38321   0.00000  Uiso   1.00
C291   C     0.92650   0.55456   0.33751   0.00000  Uiso   1.00
C292   C     0.91546   0.62668   0.31253   0.00000  Uiso   1.00
C293   C     0.86910   0.61713   0.27153   0.00000  Uiso   1.00
C294   C     0.88392   0.51039   0.41127   0.00000  Uiso   1.00
C295   C     0.83709   0.54536   0.44832   0.00000  Uiso   1.00
C296   C     0.75489   0.49863   0.46943   0.00000  Uiso   1.00
C297   C     0.07142   0.48732   0.38140   0.00000  Uiso   1.00
C298   C     0.18223   0.50288   0.39333   0.00000  Uiso   1.00
C299   C     0.25789   0.43671   0.38930   0.00000  Uiso   1.00
H300   H     0.88573   0.34401   0.34281   0.00000  Uiso   1.00
H301   H     0.81975   0.40502   0.26919   0.00000  Uiso   1.00
H302   H     0.74140   0.32371   0.40497   0.00000  Uiso   1.00
H303   H     0.08649   0.28124   0.34999   0.00000  Uiso   1.00
H304   H     0.76157   0.50744   0.19438   0.00000  Uiso   1.00
H305   H     0.59640   0.33598   0.48068   0.00000  Uiso   1.00
H306   H     0.32409   0.24642   0.36474   0.00000  Uiso   1.00
H307   H     0.00145   0.61198   0.39522   0.00000  Uiso   1.00
H308   H     0.94182   0.68769   0.32447   0.00000  Uiso   1.00
H309   H     0.86346   0.60638   0.46025   0.00000  Uiso   1.00
H310   H     0.20855   0.56391   0.40527   0.00000  Uiso   1.00
H311   H     0.86064   0.73686   0.23924   0.00000  Uiso   1.00
H312   H     0.69547   0.56540   0.52555   0.00000  Uiso   1.00
H313   H     0.42316   0.47585   0.40961   0.00000  Uiso   1.00
O314   O     0.76975   0.66712   0.16933   0.00000  Uiso   1.00
O315   O     0.55308   0.44217   0.54495   0.00000  Uiso   1.00
O316   O     0.50778   0.32467   0.39284   0.00000  Uiso   1.00
N317   N     0.79309   0.55104   0.21464   0.00000  Uiso   1.00
N318   N     0.63865   0.39074   0.48231   0.00000  Uiso   1.00
N319   N     0.31898   0.30700   0.37393   0.00000  Uiso   1.00
N320   N     0.84640   0.67449   0.23879   0.00000  Uiso   1.00
N321   N     0.69196   0.51419   0.50645   0.00000  Uiso   1.00
N322   N     0.37228   0.43046   0.39807   0.00000  Uiso   1.00
C323   C     0.58775   0.09459   0.85482   0.00000  Uiso   1.00
C324   C     0.60755   0.02429   0.82208   0.00000  Uiso   1.00
C325   C     0.65390   0.03395   0.78111   0.00000  Uiso   1.00
C326   C     0.66502   0.96187   0.75608   0.00000  Uiso   1.00
C327   C     0.70098   0.86469   0.70292   0.00000  Uiso   1.00
C328   C     0.65013   0.06846   0.89585   0.00000  Uiso   1.00
C329   C     0.73227   0.11526   0.91691   0.00000  Uiso   1.00
C330   C     0.77922   0.08037   0.95398   0.00000  Uiso   1.00
C331   C     0.88123   0.05180   0.01536   0.00000  Uiso   1.00
C332   C     0.46263   0.09154   0.86597   0.00000  Uiso   1.00
C333   C     0.38713   0.15775   0.86192   0.00000  Uiso   1.00
C334   C     0.27622   0.14228   0.87385   0.00000  Uiso   1.00
C335   C     0.08712   0.14954   0.88884   0.00000  Uiso   1.00
C336   C     0.52506   0.94942   0.88321   0.00000  Uiso   1.00
C337   C     0.57350   0.94544   0.83751   0.00000  Uiso   1.00
C338   C     0.58454   0.87332   0.81253   0.00000  Uiso   1.00
C339   C     0.63090   0.88287   0.77153   0.00000  Uiso   1.00
C340   C     0.61608   0.98961   0.91127   0.00000  Uiso   1.00
C341   C     0.66291   0.95464   0.94832   0.00000  Uiso   1.00
C342   C     0.74511   0.00137   0.96943   0.00000  Uiso   1.00
C343   C     0.42858   0.01268   0.88140   0.00000  Uiso   1.00
C344   C     0.31777   0.99712   0.89333   0.00000  Uiso   1.00
C345   C     0.24211   0.06329   0.88930   0.00000  Uiso   1.00
H346   H     0.61427   0.15599   0.84281   0.00000  Uiso   1.00
H347   H     0.68025   0.09498   0.76919   0.00000  Uiso   1.00
H348   H     0.75860   0.17629   0.90497   0.00000  Uiso   1.00
H349   H     0.41351   0.21876   0.84999   0.00000  Uiso   1.00
H350   H     0.73843   0.99256   0.69438   0.00000  Uiso   1.00
H351   H     0.90360   0.16402   0.98068   0.00000  Uiso   1.00
H352   H     0.17591   0.25358   0.86474   0.00000  Uiso   1.00
H353   H     0.49855   0.88802   0.89522   0.00000  Uiso   1.00
H354   H     0.55818   0.81231   0.82447   0.00000  Uiso   1.00
H355   H     0.63654   0.89362   0.96025   0.00000  Uiso   1.00
H356   H     0.29145   0.93609   0.90527   0.00000  Uiso   1.00
H357   H     0.63936   0.76314   0.73924   0.00000  Uiso   1.00
H358   H     0.80453   0.93460   0.02555   0.00000  Uiso   1.00
H359   H     0.07684   0.02415   0.90961   0.00000  Uiso   1.00
O360   O     0.73025   0.83288   0.66933   0.00000  Uiso   1.00
O361   O     0.94692   0.05783   0.04495   0.00000  Uiso   1.00
O362   O     0.99222   0.17533   0.89284   0.00000  Uiso   1.00
N363   N     0.70691   0.94896   0.71464   0.00000  Uiso   1.00
N364   N     0.86135   0.10926   0.98231   0.00000  Uiso   1.00
N365   N     0.18102   0.19300   0.87393   0.00000  Uiso   1.00
N366   N     0.65360   0.82551   0.73879   0.00000  Uiso   1.00
N367   N     0.80804   0.98581   0.00645   0.00000  Uiso   1.00
N368   N     0.12772   0.06954   0.89807   0.00000  Uiso   1.00
