data_job_06537
_audit_creation_date              2018-12-19
_audit_creation_method            'Materials Studio'
_symmetry_space_group_name_H-M    'P1'
_symmetry_Int_Tables_number       1
_symmetry_cell_setting            triclinic
loop_
_symmetry_equiv_pos_as_xyz
  x,y,z
_cell_length_a                    20.4772
_cell_length_b                    21.9948
_cell_length_c                    22.3416
_cell_angle_alpha                 61.0996
_cell_angle_beta                  89.5825
_cell_angle_gamma                 65.5804
loop_
_atom_site_label
_atom_site_type_symbol
_atom_site_fract_x
_atom_site_fract_y
_atom_site_fract_z
_atom_site_U_iso_or_equiv
_atom_site_adp_type
_atom_site_occupancy
C1     C     0.51591   0.31043   0.16992   0.00000  Uiso   1.00
C2     C     0.47123   0.39918   0.11997   0.00000  Uiso   1.00
C3     C     0.42495   0.43713   0.05439   0.00000  Uiso   1.00
C4     C     0.38899   0.51872   0.01676   0.00000  Uiso   1.00
C5     C     0.31813   0.65013   0.93507   0.00000  Uiso   1.00
C6     C     0.59618   0.29317   0.18465   0.00000  Uiso   1.00
C7     C     0.65495   0.24198   0.17345   0.00000  Uiso   1.00
C8     C     0.72417   0.23433   0.19028   0.00000  Uiso   1.00
C9     C     0.84729   0.20111   0.20905   0.00000  Uiso   1.00
C10    C     0.49294   0.29199   0.23926   0.00000  Uiso   1.00
C11    C     0.46493   0.23979   0.27399   0.00000  Uiso   1.00
C12    C     0.44725   0.23113   0.33680   0.00000  Uiso   1.00
C13    C     0.41009   0.19608   0.44036   0.00000  Uiso   1.00
C14    C     0.53433   0.38784   0.21972   0.00000  Uiso   1.00
C15    C     0.48124   0.44122   0.14702   0.00000  Uiso   1.00
C16    C     0.44533   0.52278   0.10948   0.00000  Uiso   1.00
C17    C     0.39901   0.56085   0.04385   0.00000  Uiso   1.00
C18    C     0.60619   0.33521   0.21170   0.00000  Uiso   1.00
C19    C     0.67533   0.32763   0.22855   0.00000  Uiso   1.00
C20    C     0.73419   0.27645   0.21737   0.00000  Uiso   1.00
C21    C     0.50295   0.33404   0.26631   0.00000  Uiso   1.00
C22    C     0.48531   0.32545   0.32908   0.00000  Uiso   1.00
C23    C     0.45727   0.27325   0.36390   0.00000  Uiso   1.00
H24    H     0.50812   0.27769   0.14886   0.00000  Uiso   1.00
H25    H     0.41723   0.40457   0.03347   0.00000  Uiso   1.00
H26    H     0.64719   0.20944   0.15252   0.00000  Uiso   1.00
H27    H     0.45720   0.20726   0.25304   0.00000  Uiso   1.00
H28    H     0.32089   0.56378   0.91745   0.00000  Uiso   1.00
H29    H     0.80578   0.15233   0.16851   0.00000  Uiso   1.00
H30    H     0.40515   0.14773   0.38047   0.00000  Uiso   1.00
H31    H     0.54212   0.42058   0.24078   0.00000  Uiso   1.00
H32    H     0.45309   0.55530   0.13043   0.00000  Uiso   1.00
H33    H     0.68305   0.36017   0.24948   0.00000  Uiso   1.00
H34    H     0.49306   0.35799   0.35000   0.00000  Uiso   1.00
H35    H     0.35000   0.68612   0.99615   0.00000  Uiso   1.00
H36    H     0.83489   0.27466   0.24721   0.00000  Uiso   1.00
H37    H     0.43425   0.27007   0.45916   0.00000  Uiso   1.00
O38    O     0.27629   0.71100   0.88254   0.00000  Uiso   1.00
O39    O     0.91244   0.17118   0.21193   0.00000  Uiso   1.00
O40    O     0.38681   0.16514   0.49001   0.00000  Uiso   1.00
N41    N     0.33995   0.57408   0.95113   0.00000  Uiso   1.00
N42    N     0.79329   0.18941   0.18584   0.00000  Uiso   1.00
N43    N     0.41875   0.18509   0.38401   0.00000  Uiso   1.00
N44    N     0.35561   0.63992   0.99347   0.00000  Uiso   1.00
N45    N     0.80895   0.25524   0.22818   0.00000  Uiso   1.00
N46    N     0.43441   0.25092   0.42635   0.00000  Uiso   1.00
C47    C     0.80122   0.80770   0.30601   0.00000  Uiso   1.00
C48    C     0.79319   0.80799   0.37379   0.00000  Uiso   1.00
C49    C     0.72760   0.83048   0.39451   0.00000  Uiso   1.00
C50    C     0.73187   0.82657   0.45837   0.00000  Uiso   1.00
C51    C     0.70913   0.83093   0.55728   0.00000  Uiso   1.00
C52    C     0.83810   0.85886   0.26814   0.00000  Uiso   1.00
C53    C     0.81027   0.92413   0.20002   0.00000  Uiso   1.00
C54    C     0.85235   0.96303   0.17495   0.00000  Uiso   1.00
C55    C     0.89935   0.04635   0.10982   0.00000  Uiso   1.00
C56    C     0.85751   0.72407   0.32856   0.00000  Uiso   1.00
C57    C     0.84600   0.67601   0.31123   0.00000  Uiso   1.00
C58    C     0.90442   0.60143   0.33701   0.00000  Uiso   1.00
C59    C     0.98156   0.47546   0.36569   0.00000  Uiso   1.00
C60    C     0.92545   0.76073   0.38259   0.00000  Uiso   1.00
C61    C     0.86067   0.78248   0.41539   0.00000  Uiso   1.00
C62    C     0.86504   0.77852   0.47924   0.00000  Uiso   1.00
C63    C     0.79946   0.80101   0.50004   0.00000  Uiso   1.00
C64    C     0.90557   0.83336   0.30974   0.00000  Uiso   1.00
C65    C     0.94770   0.87217   0.28475   0.00000  Uiso   1.00
C66    C     0.91994   0.93748   0.21662   0.00000  Uiso   1.00
C67    C     0.92498   0.69856   0.37016   0.00000  Uiso   1.00
C68    C     0.98343   0.62405   0.39596   0.00000  Uiso   1.00
C69    C     0.97202   0.57588   0.37868   0.00000  Uiso   1.00
H70    H     0.74870   0.82756   0.27362   0.00000  Uiso   1.00
H71    H     0.67539   0.85023   0.36230   0.00000  Uiso   1.00
H72    H     0.75806   0.94385   0.16785   0.00000  Uiso   1.00
H73    H     0.79378   0.69577   0.27904   0.00000  Uiso   1.00
H74    H     0.62388   0.86414   0.47895   0.00000  Uiso   1.00
H75    H     0.79818   0.06153   0.06893   0.00000  Uiso   1.00
H76    H     0.87351   0.53840   0.30339   0.00000  Uiso   1.00
H77    H     0.97798   0.74087   0.41497   0.00000  Uiso   1.00
H78    H     0.91726   0.75878   0.51141   0.00000  Uiso   1.00
H79    H     0.99992   0.85241   0.31696   0.00000  Uiso   1.00
H80    H     0.03564   0.60433   0.42815   0.00000  Uiso   1.00
H81    H     0.82018   0.78992   0.59997   0.00000  Uiso   1.00
H82    H     0.99449   0.98731   0.18995   0.00000  Uiso   1.00
H83    H     0.06982   0.46418   0.42442   0.00000  Uiso   1.00
O84    O     0.67794   0.84040   0.60034   0.00000  Uiso   1.00
O85    O     0.90663   0.09936   0.06240   0.00000  Uiso   1.00
O86    O     0.00546   0.41302   0.37002   0.00000  Uiso   1.00
N87    N     0.67841   0.84420   0.49420   0.00000  Uiso   1.00
N88    N     0.84137   0.02875   0.11086   0.00000  Uiso   1.00
N89    N     0.91181   0.53968   0.33005   0.00000  Uiso   1.00
N90    N     0.78404   0.80426   0.55933   0.00000  Uiso   1.00
N91    N     0.94700   0.98882   0.17598   0.00000  Uiso   1.00
N92    N     0.01744   0.49974   0.39518   0.00000  Uiso   1.00
C93    C     0.65793   0.42532   0.74543   0.00000  Uiso   1.00
C94    C     0.67400   0.36856   0.72015   0.00000  Uiso   1.00
C95    C     0.65444   0.30870   0.74567   0.00000  Uiso   1.00
C96    C     0.67417   0.26318   0.71562   0.00000  Uiso   1.00
C97    C     0.69338   0.17291   0.68454   0.00000  Uiso   1.00
C98    C     0.73252   0.41731   0.76824   0.00000  Uiso   1.00
C99    C     0.76216   0.39845   0.83420   0.00000  Uiso   1.00
C100   C     0.83116   0.39398   0.84463   0.00000  Uiso   1.00
C101   C     0.94119   0.37945   0.88821   0.00000  Uiso   1.00
C102   C     0.61514   0.50764   0.68024   0.00000  Uiso   1.00
C103   C     0.54609   0.56473   0.67221   0.00000  Uiso   1.00
C104   C     0.51626   0.63632   0.60856   0.00000  Uiso   1.00
C105   C     0.44405   0.76203   0.51550   0.00000  Uiso   1.00
C106   C     0.72774   0.45093   0.64667   0.00000  Uiso   1.00
C107   C     0.71192   0.38247   0.66651   0.00000  Uiso   1.00
C108   C     0.73168   0.33704   0.63640   0.00000  Uiso   1.00
C109   C     0.71216   0.27712   0.66188   0.00000  Uiso   1.00
C110   C     0.77044   0.43122   0.71460   0.00000  Uiso   1.00
C111   C     0.83940   0.42678   0.72494   0.00000  Uiso   1.00
C112   C     0.86914   0.40791   0.79090   0.00000  Uiso   1.00
C113   C     0.65305   0.52155   0.62660   0.00000  Uiso   1.00
C114   C     0.62333   0.59306   0.56295   0.00000  Uiso   1.00
C115   C     0.55425   0.65025   0.55482   0.00000  Uiso   1.00
H116   H     0.62842   0.41449   0.78720   0.00000  Uiso   1.00
H117   H     0.62510   0.29795   0.78719   0.00000  Uiso   1.00
H118   H     0.73281   0.38769   0.87570   0.00000  Uiso   1.00
H119   H     0.51677   0.55394   0.71374   0.00000  Uiso   1.00
H120   H     0.63818   0.17486   0.76354   0.00000  Uiso   1.00
H121   H     0.86526   0.36411   0.95017   0.00000  Uiso   1.00
H122   H     0.40970   0.71469   0.60863   0.00000  Uiso   1.00
H123   H     0.75727   0.46176   0.60491   0.00000  Uiso   1.00
H124   H     0.76102   0.34782   0.59489   0.00000  Uiso   1.00
H125   H     0.86872   0.43756   0.68341   0.00000  Uiso   1.00
H126   H     0.65269   0.60381   0.52145   0.00000  Uiso   1.00
H127   H     0.74849   0.21533   0.60747   0.00000  Uiso   1.00
H128   H     0.97558   0.40459   0.79410   0.00000  Uiso   1.00
H129   H     0.52002   0.75516   0.45256   0.00000  Uiso   1.00
O130   O     0.69350   0.11926   0.68222   0.00000  Uiso   1.00
O131   O     0.99142   0.36758   0.92706   0.00000  Uiso   1.00
O132   O     0.39374   0.82752   0.47898   0.00000  Uiso   1.00
N133   N     0.66361   0.20003   0.72817   0.00000  Uiso   1.00
N134   N     0.87592   0.37696   0.90266   0.00000  Uiso   1.00
N135   N     0.45002   0.70473   0.58336   0.00000  Uiso   1.00
N136   N     0.72297   0.22181   0.64419   0.00000  Uiso   1.00
N137   N     0.93529   0.39874   0.81868   0.00000  Uiso   1.00
N138   N     0.50938   0.72651   0.49938   0.00000  Uiso   1.00
C139   C     0.32781   0.10166   0.99155   0.00000  Uiso   1.00
C140   C     0.27294   0.18103   0.92823   0.00000  Uiso   1.00
C141   C     0.20950   0.23651   0.93045   0.00000  Uiso   1.00
C142   C     0.16656   0.30544   0.86675   0.00000  Uiso   1.00
C143   C     0.07836   0.42674   0.77811   0.00000  Uiso   1.00
C144   C     0.40294   0.10011   0.99062   0.00000  Uiso   1.00
C145   C     0.44879   0.08755   0.04529   0.00000  Uiso   1.00
C146   C     0.51529   0.08836   0.03411   0.00000  Uiso   1.00
C147   C     0.62894   0.08398   0.04234   0.00000  Uiso   1.00
C148   C     0.33260   0.04013   0.97557   0.00000  Uiso   1.00
C149   C     0.31935   0.97711   0.01760   0.00000  Uiso   1.00
C150   C     0.32664   0.92740   0.99376   0.00000  Uiso   1.00
C151   C     0.33109   0.82988   0.97864   0.00000  Uiso   1.00
C152   C     0.36437   0.12543   0.87448   0.00000  Uiso   1.00
C153   C     0.29280   0.19394   0.86465   0.00000  Uiso   1.00
C154   C     0.24994   0.26281   0.80093   0.00000  Uiso   1.00
C155   C     0.18645   0.31838   0.80305   0.00000  Uiso   1.00
C156   C     0.42279   0.11303   0.92703   0.00000  Uiso   1.00
C157   C     0.48924   0.11385   0.91577   0.00000  Uiso   1.00
C158   C     0.53519   0.10130   0.97041   0.00000  Uiso   1.00
C159   C     0.35246   0.05304   0.91198   0.00000  Uiso   1.00
C160   C     0.35979   0.00341   0.88808   0.00000  Uiso   1.00
C161   C     0.34654   0.94034   0.93006   0.00000  Uiso   1.00
H162   H     0.31235   0.09161   0.04105   0.00000  Uiso   1.00
H163   H     0.19415   0.22650   0.97967   0.00000  Uiso   1.00
H164   H     0.43342   0.07755   0.09449   0.00000  Uiso   1.00
H165   H     0.30398   0.96713   0.06681   0.00000  Uiso   1.00
H166   H     0.07188   0.38175   0.88357   0.00000  Uiso   1.00
H167   H     0.57639   0.06767   0.12569   0.00000  Uiso   1.00
H168   H     0.30345   0.83483   0.06732   0.00000  Uiso   1.00
H169   H     0.37983   0.13548   0.82498   0.00000  Uiso   1.00
H170   H     0.26532   0.27278   0.75173   0.00000  Uiso   1.00
H171   H     0.50459   0.12384   0.86656   0.00000  Uiso   1.00
H172   H     0.37516   0.01342   0.83887   0.00000  Uiso   1.00
H173   H     0.12965   0.41932   0.69857   0.00000  Uiso   1.00
H174   H     0.63416   0.10524   0.94070   0.00000  Uiso   1.00
H175   H     0.36122   0.87240   0.88232   0.00000  Uiso   1.00
O176   O     0.02423   0.49008   0.74679   0.00000  Uiso   1.00
O177   O     0.68614   0.07800   0.06445   0.00000  Uiso   1.00
O178   O     0.32805   0.77252   0.98786   0.00000  Uiso   1.00
N179   N     0.10118   0.37175   0.85008   0.00000  Uiso   1.00
N180   N     0.57286   0.07811   0.07645   0.00000  Uiso   1.00
N181   N     0.31771   0.86041   0.02188   0.00000  Uiso   1.00
N182   N     0.13226   0.39196   0.75053   0.00000  Uiso   1.00
N183   N     0.60395   0.09833   0.97690   0.00000  Uiso   1.00
N184   N     0.34879   0.88063   0.92233   0.00000  Uiso   1.00
C185   C     0.02879   0.10034   0.46763   0.00000  Uiso   1.00
C186   C     0.05716   0.05558   0.43013   0.00000  Uiso   1.00
C187   C     0.01811   0.07178   0.36930   0.00000  Uiso   1.00
C188   C     0.05378   0.02402   0.34322   0.00000  Uiso   1.00
C189   C     0.08686   0.96394   0.27986   0.00000  Uiso   1.00
C190   C     0.08447   0.12828   0.47198   0.00000  Uiso   1.00
C191   C     0.06837   0.20559   0.44635   0.00000  Uiso   1.00
C192   C     0.12704   0.21902   0.45551   0.00000  Uiso   1.00
C193   C     0.20251   0.27179   0.45718   0.00000  Uiso   1.00
C194   C     0.03577   0.03930   0.54315   0.00000  Uiso   1.00
C195   C     0.97873   0.04181   0.57737   0.00000  Uiso   1.00
C196   C     0.99640   0.98034   0.64646   0.00000  Uiso   1.00
C197   C     0.99626   0.89497   0.75863   0.00000  Uiso   1.00
C198   C     0.16160   0.98673   0.52948   0.00000  Uiso   1.00
C199   C     0.12929   0.99388   0.46373   0.00000  Uiso   1.00
C200   C     0.16504   0.94608   0.43773   0.00000  Uiso   1.00
C201   C     0.12604   0.96220   0.37687   0.00000  Uiso   1.00
C202   C     0.15660   0.06657   0.50558   0.00000  Uiso   1.00
C203   C     0.21530   0.07989   0.51478   0.00000  Uiso   1.00
C204   C     0.19930   0.15720   0.48917   0.00000  Uiso   1.00
C205   C     0.10790   0.97759   0.57675   0.00000  Uiso   1.00
C206   C     0.12566   0.91611   0.64580   0.00000  Uiso   1.00
C207   C     0.06867   0.91852   0.68011   0.00000  Uiso   1.00
H208   H     0.97264   0.14838   0.44147   0.00000  Uiso   1.00
H209   H     0.96229   0.11954   0.34331   0.00000  Uiso   1.00
H210   H     0.01254   0.25333   0.42036   0.00000  Uiso   1.00
H211   H     0.92292   0.08958   0.55136   0.00000  Uiso   1.00
H212   H     0.98263   0.06037   0.24929   0.00000  Uiso   1.00
H213   H     0.08860   0.34246   0.41176   0.00000  Uiso   1.00
H214   H     0.89960   0.99716   0.68800   0.00000  Uiso   1.00
H215   H     0.21776   0.93868   0.55564   0.00000  Uiso   1.00
H216   H     0.22086   0.89833   0.46374   0.00000  Uiso   1.00
H217   H     0.27111   0.03212   0.54079   0.00000  Uiso   1.00
H218   H     0.18149   0.86837   0.67178   0.00000  Uiso   1.00
H219   H     0.19250   0.88083   0.34703   0.00000  Uiso   1.00
H220   H     0.29846   0.16292   0.50951   0.00000  Uiso   1.00
H221   H     0.10947   0.81762   0.78574   0.00000  Uiso   1.00
O222   O     0.08519   0.94785   0.23563   0.00000  Uiso   1.00
O223   O     0.22421   0.31795   0.44881   0.00000  Uiso   1.00
O224   O     0.97626   0.86492   0.81122   0.00000  Uiso   1.00
N225   N     0.03159   0.02364   0.28491   0.00000  Uiso   1.00
N226   N     0.13066   0.28738   0.43681   0.00000  Uiso   1.00
N227   N     0.95398   0.96457   0.69507   0.00000  Uiso   1.00
N228   N     0.14452   0.92703   0.33750   0.00000  Uiso   1.00
N229   N     0.24359   0.19077   0.48940   0.00000  Uiso   1.00
N230   N     0.06691   0.86796   0.74766   0.00000  Uiso   1.00
C231   C     0.89047   0.65650   0.89661   0.00000  Uiso   1.00
C232   C     0.87857   0.64528   0.96796   0.00000  Uiso   1.00
C233   C     0.85732   0.59180   0.01621   0.00000  Uiso   1.00
C234   C     0.84942   0.59060   0.07849   0.00000  Uiso   1.00
C235   C     0.82902   0.56547   0.18725   0.00000  Uiso   1.00
C236   C     0.96923   0.64492   0.89674   0.00000  Uiso   1.00
C237   C     0.02420   0.59113   0.88509   0.00000  Uiso   1.00
C238   C     0.09261   0.58964   0.88741   0.00000  Uiso   1.00
C239   C     0.21294   0.56398   0.88554   0.00000  Uiso   1.00
C240   C     0.83991   0.74302   0.84212   0.00000  Uiso   1.00
C241   C     0.78615   0.77173   0.78454   0.00000  Uiso   1.00
C242   C     0.74570   0.85283   0.74086   0.00000  Uiso   1.00
C243   C     0.66523   0.97948   0.65419   0.00000  Uiso   1.00
C244   C     0.91423   0.74948   0.92141   0.00000  Uiso   1.00
C245   C     0.89148   0.69578   0.98143   0.00000  Uiso   1.00
C246   C     0.88361   0.69467   0.04365   0.00000  Uiso   1.00
C247   C     0.86235   0.64120   0.09199   0.00000  Uiso   1.00
C248   C     0.98214   0.69541   0.91021   0.00000  Uiso   1.00
C249   C     0.05049   0.69400   0.91253   0.00000  Uiso   1.00
C250   C     0.10554   0.64023   0.90090   0.00000  Uiso   1.00
C251   C     0.85281   0.79352   0.85559   0.00000  Uiso   1.00
C252   C     0.81244   0.87459   0.81198   0.00000  Uiso   1.00
C253   C     0.75863   0.90342   0.75435   0.00000  Uiso   1.00
H254   H     0.88043   0.61719   0.88612   0.00000  Uiso   1.00
H255   H     0.84734   0.55272   0.00577   0.00000  Uiso   1.00
H256   H     0.01419   0.55207   0.87467   0.00000  Uiso   1.00
H257   H     0.77618   0.73263   0.77414   0.00000  Uiso   1.00
H258   H     0.81638   0.50351   0.14438   0.00000  Uiso   1.00
H259   H     0.16818   0.50214   0.86791   0.00000  Uiso   1.00
H260   H     0.66629   0.88289   0.65592   0.00000  Uiso   1.00
H261   H     0.92428   0.78880   0.93189   0.00000  Uiso   1.00
H262   H     0.89360   0.73376   0.05406   0.00000  Uiso   1.00
H263   H     0.06045   0.73309   0.92295   0.00000  Uiso   1.00
H264   H     0.82244   0.91366   0.82242   0.00000  Uiso   1.00
H265   H     0.85393   0.65044   0.18357   0.00000  Uiso   1.00
H266   H     0.20573   0.64907   0.90710   0.00000  Uiso   1.00
H267   H     0.70384   0.02982   0.69511   0.00000  Uiso   1.00
O268   O     0.81421   0.53765   0.24353   0.00000  Uiso   1.00
O269   O     0.27574   0.53586   0.88080   0.00000  Uiso   1.00
O270   O     0.61728   0.03540   0.60267   0.00000  Uiso   1.00
N271   N     0.82941   0.54566   0.13683   0.00000  Uiso   1.00
N272   N     0.15833   0.54436   0.87836   0.00000  Uiso   1.00
N273   N     0.68912   0.90033   0.68016   0.00000  Uiso   1.00
N274   N     0.84962   0.62472   0.15792   0.00000  Uiso   1.00
N275   N     0.17853   0.62342   0.89945   0.00000  Uiso   1.00
N276   N     0.70932   0.97940   0.70125   0.00000  Uiso   1.00
C277   C     0.05751   0.03158   0.94690   0.00000  Uiso   1.00
C278   C     0.10754   0.94843   0.00843   0.00000  Uiso   1.00
C279   C     0.14171   0.92873   0.07313   0.00000  Uiso   1.00
C280   C     0.18530   0.84930   0.12250   0.00000  Uiso   1.00
C281   C     0.26159   0.72894   0.22030   0.00000  Uiso   1.00
C282   C     0.98464   0.03346   0.92926   0.00000  Uiso   1.00
C283   C     0.91549   0.08526   0.92739   0.00000  Uiso   1.00
C284   C     0.85562   0.07742   0.91011   0.00000  Uiso   1.00
C285   C     0.74110   0.08911   0.88495   0.00000  Uiso   1.00
C286   C     0.09174   0.04021   0.88426   0.00000  Uiso   1.00
C287   C     0.11261   0.09770   0.84453   0.00000  Uiso   1.00
C288   C     0.14289   0.09556   0.78935   0.00000  Uiso   1.00
C289   C     0.19465   0.11773   0.69432   0.00000  Uiso   1.00
C290   C     0.07415   0.92556   0.91951   0.00000  Uiso   1.00
C291   C     0.11657   0.89084   0.99355   0.00000  Uiso   1.00
C292   C     0.16013   0.81143   0.04283   0.00000  Uiso   1.00
C293   C     0.19436   0.79161   0.10759   0.00000  Uiso   1.00
C294   C     0.99368   0.97587   0.91438   0.00000  Uiso   1.00
C295   C     0.93390   0.96796   0.89709   0.00000  Uiso   1.00
C296   C     0.86467   0.01973   0.89520   0.00000  Uiso   1.00
C297   C     0.10078   0.98262   0.86938   0.00000  Uiso   1.00
C298   C     0.13103   0.98040   0.81424   0.00000  Uiso   1.00
C299   C     0.15195   0.03787   0.77444   0.00000  Uiso   1.00
H300   H     0.05046   0.07642   0.95848   0.00000  Uiso   1.00
H301   H     0.13470   0.97331   0.08463   0.00000  Uiso   1.00
H302   H     0.90851   0.12982   0.93890   0.00000  Uiso   1.00
H303   H     0.10561   0.14226   0.85606   0.00000  Uiso   1.00
H304   H     0.23205   0.83360   0.21793   0.00000  Uiso   1.00
H305   H     0.75511   0.16363   0.91064   0.00000  Uiso   1.00
H306   H     0.17073   0.18986   0.73595   0.00000  Uiso   1.00
H307   H     0.08118   0.88073   0.90793   0.00000  Uiso   1.00
H308   H     0.16711   0.76687   0.03130   0.00000  Uiso   1.00
H309   H     0.94092   0.92339   0.88558   0.00000  Uiso   1.00
H310   H     0.13801   0.93582   0.80274   0.00000  Uiso   1.00
H311   H     0.25836   0.66605   0.17465   0.00000  Uiso   1.00
H312   H     0.78142   0.99608   0.86735   0.00000  Uiso   1.00
H313   H     0.19704   0.02231   0.69267   0.00000  Uiso   1.00
O314   O     0.30116   0.67846   0.27836   0.00000  Uiso   1.00
O315   O     0.67543   0.11146   0.87520   0.00000  Uiso   1.00
O316   O     0.22071   0.14586   0.64602   0.00000  Uiso   1.00
N317   N     0.22647   0.80979   0.19080   0.00000  Uiso   1.00
N318   N     0.78055   0.11834   0.90352   0.00000  Uiso   1.00
N319   N     0.16910   0.14287   0.74019   0.00000  Uiso   1.00
N320   N     0.24062   0.71963   0.16751   0.00000  Uiso   1.00
N321   N     0.79471   0.02818   0.88023   0.00000  Uiso   1.00
N322   N     0.18326   0.05272   0.71690   0.00000  Uiso   1.00
C323   C     0.71675   0.61346   0.85664   0.00000  Uiso   1.00
C324   C     0.73602   0.61948   0.78858   0.00000  Uiso   1.00
C325   C     0.80681   0.59227   0.77818   0.00000  Uiso   1.00
C326   C     0.81280   0.60338   0.71210   0.00000  Uiso   1.00
C327   C     0.85224   0.60707   0.61459   0.00000  Uiso   1.00
C328   C     0.67043   0.57037   0.87644   0.00000  Uiso   1.00
C329   C     0.68608   0.50187   0.93992   0.00000  Uiso   1.00
C330   C     0.63685   0.47164   0.94781   0.00000  Uiso   1.00
C331   C     0.57445   0.39911   0.98674   0.00000  Uiso   1.00
C332   C     0.66481   0.69720   0.83716   0.00000  Uiso   1.00
C333   C     0.67572   0.73534   0.86763   0.00000  Uiso   1.00
C334   C     0.62174   0.81189   0.84245   0.00000  Uiso   1.00
C335   C     0.55061   0.93629   0.82039   0.00000  Uiso   1.00
C336   C     0.60149   0.68158   0.75778   0.00000  Uiso   1.00
C337   C     0.67341   0.65648   0.73488   0.00000  Uiso   1.00
C338   C     0.67929   0.66764   0.66880   0.00000  Uiso   1.00
C339   C     0.75008   0.64045   0.65830   0.00000  Uiso   1.00
C340   C     0.60783   0.60736   0.82275   0.00000  Uiso   1.00
C341   C     0.55856   0.57723   0.83054   0.00000  Uiso   1.00
C342   C     0.57414   0.50871   0.89402   0.00000  Uiso   1.00
C343   C     0.60220   0.73420   0.78346   0.00000  Uiso   1.00
C344   C     0.54820   0.81071   0.75824   0.00000  Uiso   1.00
C345   C     0.55902   0.84896   0.78866   0.00000  Uiso   1.00
H346   H     0.76549   0.58466   0.89845   0.00000  Uiso   1.00
H347   H     0.85525   0.56364   0.81975   0.00000  Uiso   1.00
H348   H     0.73453   0.47326   0.98147   0.00000  Uiso   1.00
H349   H     0.72417   0.70669   0.90918   0.00000  Uiso   1.00
H350   H     0.92716   0.55663   0.70882   0.00000  Uiso   1.00
H351   H     0.67261   0.36607   0.04983   0.00000  Uiso   1.00
H352   H     0.65076   0.85831   0.89739   0.00000  Uiso   1.00
H353   H     0.55274   0.71038   0.71597   0.00000  Uiso   1.00
H354   H     0.63083   0.69627   0.62726   0.00000  Uiso   1.00
H355   H     0.51012   0.60588   0.78898   0.00000  Uiso   1.00
H356   H     0.49976   0.83932   0.71669   0.00000  Uiso   1.00
H357   H     0.74501   0.66427   0.55259   0.00000  Uiso   1.00
H358   H     0.49046   0.47371   0.89360   0.00000  Uiso   1.00
H359   H     0.46862   0.96596   0.74116   0.00000  Uiso   1.00
O360   O     0.89129   0.59887   0.57565   0.00000  Uiso   1.00
O361   O     0.55733   0.34888   0.02304   0.00000  Uiso   1.00
O362   O     0.52867   0.99469   0.82304   0.00000  Uiso   1.00
N363   N     0.87357   0.58391   0.68422   0.00000  Uiso   1.00
N364   N     0.63559   0.40574   0.00304   0.00000  Uiso   1.00
N365   N     0.61516   0.86594   0.86054   0.00000  Uiso   1.00
N366   N     0.77556   0.64184   0.60016   0.00000  Uiso   1.00
N367   N     0.53758   0.46367   0.91897   0.00000  Uiso   1.00
N368   N     0.51714   0.92387   0.77647   0.00000  Uiso   1.00
C369   C     0.84562   0.03981   0.42567   0.00000  Uiso   1.00
C370   C     0.80834   0.10502   0.44104   0.00000  Uiso   1.00
C371   C     0.81873   0.17094   0.41538   0.00000  Uiso   1.00
C372   C     0.77951   0.22378   0.43554   0.00000  Uiso   1.00
C373   C     0.72888   0.32700   0.45266   0.00000  Uiso   1.00
C374   C     0.78328   0.03482   0.39460   0.00000  Uiso   1.00
C375   C     0.77261   0.04171   0.32990   0.00000  Uiso   1.00
C376   C     0.71229   0.03544   0.31097   0.00000  Uiso   1.00
C377   C     0.62279   0.02961   0.25601   0.00000  Uiso   1.00
C378   C     0.88483   0.96355   0.49717   0.00000  Uiso   1.00
C379   C     0.95955   0.91049   0.51870   0.00000  Uiso   1.00
C380   C     0.98474   0.84420   0.58613   0.00000  Uiso   1.00
C381   C     0.05292   0.72771   0.69042   0.00000  Uiso   1.00
C382   C     0.75749   0.01642   0.50712   0.00000  Uiso   1.00
C383   C     0.76047   0.09232   0.48528   0.00000  Uiso   1.00
C384   C     0.72123   0.14507   0.50549   0.00000  Uiso   1.00
C385   C     0.73156   0.21105   0.47987   0.00000  Uiso   1.00
C386   C     0.73541   0.02212   0.43884   0.00000  Uiso   1.00
C387   C     0.67510   0.01584   0.42001   0.00000  Uiso   1.00
C388   C     0.66434   0.02271   0.35529   0.00000  Uiso   1.00
C389   C     0.83697   0.95085   0.54141   0.00000  Uiso   1.00
C390   C     0.86204   0.88462   0.60882   0.00000  Uiso   1.00
C391   C     0.93679   0.83147   0.63045   0.00000  Uiso   1.00
H392   H     0.88288   0.04969   0.39122   0.00000  Uiso   1.00
H393   H     0.85578   0.18075   0.38114   0.00000  Uiso   1.00
H394   H     0.80966   0.05153   0.29567   0.00000  Uiso   1.00
H395   H     0.99658   0.92034   0.48445   0.00000  Uiso   1.00
H396   H     0.80459   0.32047   0.38945   0.00000  Uiso   1.00
H397   H     0.70738   0.04797   0.20925   0.00000  Uiso   1.00
H398   H     0.10152   0.77132   0.60733   0.00000  Uiso   1.00
H399   H     0.72022   0.00653   0.54156   0.00000  Uiso   1.00
H400   H     0.68419   0.13523   0.53973   0.00000  Uiso   1.00
H401   H     0.63807   0.00600   0.45426   0.00000  Uiso   1.00
H402   H     0.82499   0.87481   0.64304   0.00000  Uiso   1.00
H403   H     0.66532   0.28352   0.51816   0.00000  Uiso   1.00
H404   H     0.56811   0.01101   0.33797   0.00000  Uiso   1.00
H405   H     0.96225   0.73437   0.73604   0.00000  Uiso   1.00
O406   O     0.71417   0.38745   0.44987   0.00000  Uiso   1.00
O407   O     0.58664   0.02992   0.21347   0.00000  Uiso   1.00
O408   O     0.10375   0.66697   0.73573   0.00000  Uiso   1.00
N409   N     0.77677   0.29410   0.42000   0.00000  Uiso   1.00
N410   N     0.68587   0.03934   0.25153   0.00000  Uiso   1.00
N411   N     0.05436   0.78069   0.62368   0.00000  Uiso   1.00
N412   N     0.70183   0.27422   0.48927   0.00000  Uiso   1.00
N413   N     0.61093   0.01946   0.32079   0.00000  Uiso   1.00
N414   N     0.97942   0.76081   0.69295   0.00000  Uiso   1.00
C415   C     0.26633   0.26931   0.16793   0.00000  Uiso   1.00
C416   C     0.31493   0.18677   0.23099   0.00000  Uiso   1.00
C417   C     0.37665   0.12856   0.23001   0.00000  Uiso   1.00
C418   C     0.41364   0.05698   0.29322   0.00000  Uiso   1.00
C419   C     0.49271   0.93076   0.38171   0.00000  Uiso   1.00
C420   C     0.18797   0.27927   0.16170   0.00000  Uiso   1.00
C421   C     0.14295   0.29885   0.10245   0.00000  Uiso   1.00
C422   C     0.07306   0.30513   0.10734   0.00000  Uiso   1.00
C423   C     0.95502   0.32258   0.08824   0.00000  Uiso   1.00
C424   C     0.26590   0.32569   0.18923   0.00000  Uiso   1.00
C425   C     0.28638   0.38431   0.15311   0.00000  Uiso   1.00
C426   C     0.28209   0.42969   0.18116   0.00000  Uiso   1.00
C427   C     0.28503   0.51920   0.20480   0.00000  Uiso   1.00
C428   C     0.22226   0.24568   0.28195   0.00000  Uiso   1.00
C429   C     0.29099   0.17394   0.29292   0.00000  Uiso   1.00
C430   C     0.32789   0.10242   0.35615   0.00000  Uiso   1.00
C431   C     0.38966   0.04412   0.35526   0.00000  Uiso   1.00
C432   C     0.16403   0.26643   0.22363   0.00000  Uiso   1.00
C433   C     0.09419   0.27270   0.22860   0.00000  Uiso   1.00
C434   C     0.04908   0.29227   0.16938   0.00000  Uiso   1.00
C435   C     0.24196   0.31285   0.25116   0.00000  Uiso   1.00
C436   C     0.23763   0.35815   0.27926   0.00000  Uiso   1.00
C437   C     0.25810   0.41683   0.24320   0.00000  Uiso   1.00
H438   H     0.28496   0.27930   0.11972   0.00000  Uiso   1.00
H439   H     0.39515   0.13852   0.18207   0.00000  Uiso   1.00
H440   H     0.16149   0.30878   0.05454   0.00000  Uiso   1.00
H441   H     0.30490   0.39422   0.10519   0.00000  Uiso   1.00
H442   H     0.50675   0.97676   0.27851   0.00000  Uiso   1.00
H443   H     0.01404   0.33580   0.00959   0.00000  Uiso   1.00
H444   H     0.31645   0.51597   0.11640   0.00000  Uiso   1.00
H445   H     0.20363   0.23568   0.33016   0.00000  Uiso   1.00
H446   H     0.30936   0.09250   0.40407   0.00000  Uiso   1.00
H447   H     0.07569   0.26276   0.27653   0.00000  Uiso   1.00
H448   H     0.21910   0.34820   0.32719   0.00000  Uiso   1.00
H449   H     0.43711   0.93941   0.45869   0.00000  Uiso   1.00
H450   H     0.94440   0.29845   0.18976   0.00000  Uiso   1.00
H451   H     0.24681   0.47862   0.29658   0.00000  Uiso   1.00
O452   O     0.54293   0.86468   0.41341   0.00000  Uiso   1.00
O453   O     0.89652   0.33573   0.06059   0.00000  Uiso   1.00
O454   O     0.29328   0.57211   0.20073   0.00000  Uiso   1.00
N455   N     0.47586   0.98763   0.31078   0.00000  Uiso   1.00
N456   N     0.01521   0.32329   0.05935   0.00000  Uiso   1.00
N457   N     0.29792   0.49175   0.15920   0.00000  Uiso   1.00
N458   N     0.43839   0.96753   0.40773   0.00000  Uiso   1.00
N459   N     0.97774   0.30319   0.15631   0.00000  Uiso   1.00
N460   N     0.26045   0.47165   0.25616   0.00000  Uiso   1.00
C461   C     0.44609   0.40448   0.57537   0.00000  Uiso   1.00
C462   C     0.38205   0.47388   0.57316   0.00000  Uiso   1.00
C463   C     0.38471   0.50496   0.61380   0.00000  Uiso   1.00
C464   C     0.32020   0.56849   0.60399   0.00000  Uiso   1.00
C465   C     0.23060   0.67148   0.60800   0.00000  Uiso   1.00
C466   C     0.41877   0.34463   0.59128   0.00000  Uiso   1.00
C467   C     0.45232   0.26705   0.64713   0.00000  Uiso   1.00
C468   C     0.41872   0.22178   0.65256   0.00000  Uiso   1.00
C469   C     0.38618   0.12409   0.68465   0.00000  Uiso   1.00
C470   C     0.45569   0.43435   0.50022   0.00000  Uiso   1.00
C471   C     0.52029   0.43218   0.47951   0.00000  Uiso   1.00
C472   C     0.51778   0.46243   0.40827   0.00000  Uiso   1.00
C473   C     0.54256   0.50405   0.29899   0.00000  Uiso   1.00
C474   C     0.32679   0.46203   0.48569   0.00000  Uiso   1.00
C475   C     0.31725   0.50514   0.52445   0.00000  Uiso   1.00
C476   C     0.25272   0.56864   0.51457   0.00000  Uiso   1.00
C477   C     0.25528   0.59981   0.55518   0.00000  Uiso   1.00
C478   C     0.35398   0.37589   0.54257   0.00000  Uiso   1.00
C479   C     0.32033   0.33073   0.54791   0.00000  Uiso   1.00
C480   C     0.35381   0.25309   0.60376   0.00000  Uiso   1.00
C481   C     0.39090   0.46562   0.45150   0.00000  Uiso   1.00
C482   C     0.38829   0.49587   0.38028   0.00000  Uiso   1.00
C483   C     0.45287   0.49375   0.35947   0.00000  Uiso   1.00
H484   H     0.49654   0.38013   0.61330   0.00000  Uiso   1.00
H485   H     0.43486   0.48075   0.65150   0.00000  Uiso   1.00
H486   H     0.50247   0.24287   0.68481   0.00000  Uiso   1.00
H487   H     0.57042   0.40799   0.51722   0.00000  Uiso   1.00
H488   H     0.33790   0.60607   0.67238   0.00000  Uiso   1.00
H489   H     0.48046   0.10448   0.74263   0.00000  Uiso   1.00
H490   H     0.62375   0.45266   0.38922   0.00000  Uiso   1.00
H491   H     0.27634   0.48637   0.44776   0.00000  Uiso   1.00
H492   H     0.20258   0.59282   0.47687   0.00000  Uiso   1.00
H493   H     0.27019   0.35494   0.51020   0.00000  Uiso   1.00
H494   H     0.33814   0.52005   0.34260   0.00000  Uiso   1.00
H495   H     0.14937   0.69703   0.53065   0.00000  Uiso   1.00
H496   H     0.29194   0.19543   0.60090   0.00000  Uiso   1.00
H497   H     0.43523   0.54362   0.24749   0.00000  Uiso   1.00
O498   O     0.19908   0.71964   0.62367   0.00000  Uiso   1.00
O499   O     0.38613   0.06157   0.71582   0.00000  Uiso   1.00
O500   O     0.57412   0.51838   0.25216   0.00000  Uiso   1.00
N501   N     0.30366   0.61288   0.63502   0.00000  Uiso   1.00
N502   N     0.43694   0.14392   0.70070   0.00000  Uiso   1.00
N503   N     0.57091   0.46942   0.37030   0.00000  Uiso   1.00
N504   N     0.20221   0.66182   0.55876   0.00000  Uiso   1.00
N505   N     0.33549   0.19287   0.62444   0.00000  Uiso   1.00
N506   N     0.46946   0.51837   0.29404   0.00000  Uiso   1.00
C507   C     0.63118   0.75282   0.30502   0.00000  Uiso   1.00
C508   C     0.64095   0.76451   0.23312   0.00000  Uiso   1.00
C509   C     0.65079   0.82533   0.17990   0.00000  Uiso   1.00
C510   C     0.65870   0.82562   0.11801   0.00000  Uiso   1.00
C511   C     0.67412   0.85268   0.00761   0.00000  Uiso   1.00
C512   C     0.55843   0.74949   0.31214   0.00000  Uiso   1.00
C513   C     0.49889   0.79768   0.32536   0.00000  Uiso   1.00
C514   C     0.43734   0.78532   0.32999   0.00000  Uiso   1.00
C515   C     0.32466   0.78903   0.34232   0.00000  Uiso   1.00
C516   C     0.69178   0.67070   0.35934   0.00000  Uiso   1.00
C517   C     0.74436   0.65263   0.41227   0.00000  Uiso   1.00
C518   C     0.79508   0.57392   0.45665   0.00000  Uiso   1.00
C519   C     0.88946   0.45530   0.54227   0.00000  Uiso   1.00
C520   C     0.62773   0.64517   0.28974   0.00000  Uiso   1.00
C521   C     0.63907   0.70604   0.22482   0.00000  Uiso   1.00
C522   C     0.64697   0.70623   0.16299   0.00000  Uiso   1.00
C523   C     0.65682   0.76704   0.10969   0.00000  Uiso   1.00
C524   C     0.55655   0.69103   0.30384   0.00000  Uiso   1.00
C525   C     0.49507   0.67858   0.30845   0.00000  Uiso   1.00
C526   C     0.43546   0.72674   0.32168   0.00000  Uiso   1.00
C527   C     0.68991   0.61223   0.35104   0.00000  Uiso   1.00
C528   C     0.74055   0.53353   0.39535   0.00000  Uiso   1.00
C529   C     0.79320   0.51535   0.44834   0.00000  Uiso   1.00
H530   H     0.63263   0.79834   0.31149   0.00000  Uiso   1.00
H531   H     0.65223   0.87058   0.18634   0.00000  Uiso   1.00
H532   H     0.50036   0.84292   0.33179   0.00000  Uiso   1.00
H533   H     0.74580   0.69789   0.41867   0.00000  Uiso   1.00
H534   H     0.67310   0.92489   0.04393   0.00000  Uiso   1.00
H535   H     0.35289   0.86656   0.35063   0.00000  Uiso   1.00
H536   H     0.87044   0.56074   0.53385   0.00000  Uiso   1.00
H537   H     0.62627   0.59965   0.28328   0.00000  Uiso   1.00
H538   H     0.64552   0.66098   0.15658   0.00000  Uiso   1.00
H539   H     0.49365   0.63333   0.30203   0.00000  Uiso   1.00
H540   H     0.73908   0.48830   0.38892   0.00000  Uiso   1.00
H541   H     0.66765   0.75477   0.01977   0.00000  Uiso   1.00
H542   H     0.34743   0.69645   0.32648   0.00000  Uiso   1.00
H543   H     0.86499   0.39063   0.50969   0.00000  Uiso   1.00
O544   O     0.68313   0.88377   0.94900   0.00000  Uiso   1.00
O545   O     0.26303   0.80724   0.35141   0.00000  Uiso   1.00
O546   O     0.94204   0.40602   0.59178   0.00000  Uiso   1.00
N547   N     0.66919   0.87642   0.05563   0.00000  Uiso   1.00
N548   N     0.36980   0.82190   0.34238   0.00000  Uiso   1.00
N549   N     0.85366   0.53599   0.51368   0.00000  Uiso   1.00
N550   N     0.66626   0.78489   0.04264   0.00000  Uiso   1.00
N551   N     0.36687   0.73037   0.32938   0.00000  Uiso   1.00
N552   N     0.85073   0.44445   0.50068   0.00000  Uiso   1.00
