data_job_06796
_audit_creation_date              2018-12-19
_audit_creation_method            'Materials Studio'
_symmetry_space_group_name_H-M    'P1'
_symmetry_Int_Tables_number       1
_symmetry_cell_setting            triclinic
loop_
_symmetry_equiv_pos_as_xyz
  x,y,z
_cell_length_a                    20.5009
_cell_length_b                    20.8632
_cell_length_c                    23.4264
_cell_angle_alpha                 88.7985
_cell_angle_beta                  64.6127
_cell_angle_gamma                 62.4591
loop_
_atom_site_label
_atom_site_type_symbol
_atom_site_fract_x
_atom_site_fract_y
_atom_site_fract_z
_atom_site_U_iso_or_equiv
_atom_site_adp_type
_atom_site_occupancy
C1     C     0.10449   0.29920   0.88237   0.00000  Uiso   1.00
C2     C     0.11681   0.23339   0.84317   0.00000  Uiso   1.00
C3     C     0.11437   0.17197   0.86544   0.00000  Uiso   1.00
C4     C     0.12716   0.11770   0.82209   0.00000  Uiso   1.00
C5     C     0.14409   0.01443   0.77085   0.00000  Uiso   1.00
C6     C     0.18238   0.30523   0.84383   0.00000  Uiso   1.00
C7     C     0.23506   0.30422   0.86665   0.00000  Uiso   1.00
C8     C     0.30303   0.31044   0.82385   0.00000  Uiso   1.00
C9     C     0.42173   0.31876   0.77365   0.00000  Uiso   1.00
C10    C     0.03283   0.36779   0.88020   0.00000  Uiso   1.00
C11    C     0.95978   0.41939   0.93360   0.00000  Uiso   1.00
C12    C     0.90185   0.47828   0.92142   0.00000  Uiso   1.00
C13    C     0.78836   0.58373   0.92769   0.00000  Uiso   1.00
C14    C     0.13155   0.31205   0.76577   0.00000  Uiso   1.00
C15    C     0.13151   0.24037   0.77984   0.00000  Uiso   1.00
C16    C     0.14430   0.18618   0.73644   0.00000  Uiso   1.00
C17    C     0.14187   0.12469   0.75864   0.00000  Uiso   1.00
C18    C     0.19708   0.31221   0.78050   0.00000  Uiso   1.00
C19    C     0.26499   0.31844   0.73766   0.00000  Uiso   1.00
C20    C     0.31775   0.31743   0.76041   0.00000  Uiso   1.00
C21    C     0.04753   0.37477   0.81687   0.00000  Uiso   1.00
C22    C     0.98971   0.43360   0.80461   0.00000  Uiso   1.00
C23    C     0.91657   0.48528   0.85798   0.00000  Uiso   1.00
H24    H     0.09306   0.29377   0.93167   0.00000  Uiso   1.00
H25    H     0.10300   0.16658   0.91445   0.00000  Uiso   1.00
H26    H     0.22366   0.29882   0.91567   0.00000  Uiso   1.00
H27    H     0.94843   0.41397   0.98260   0.00000  Uiso   1.00
H28    H     0.12054   0.02863   0.86743   0.00000  Uiso   1.00
H29    H     0.37495   0.30750   0.87000   0.00000  Uiso   1.00
H30    H     0.79456   0.55031   0.01115   0.00000  Uiso   1.00
H31    H     0.14299   0.31749   0.71647   0.00000  Uiso   1.00
H32    H     0.15567   0.19160   0.68744   0.00000  Uiso   1.00
H33    H     0.27633   0.32384   0.68866   0.00000  Uiso   1.00
H34    H     0.00110   0.43899   0.75559   0.00000  Uiso   1.00
H35    H     0.16329   0.04894   0.68317   0.00000  Uiso   1.00
H36    H     0.41769   0.32781   0.68575   0.00000  Uiso   1.00
H37    H     0.83731   0.57061   0.82690   0.00000  Uiso   1.00
O38    O     0.14939   0.95553   0.76008   0.00000  Uiso   1.00
O39    O     0.48314   0.32141   0.76346   0.00000  Uiso   1.00
O40    O     0.72169   0.63996   0.94864   0.00000  Uiso   1.00
N41    N     0.12885   0.05070   0.82805   0.00000  Uiso   1.00
N42    N     0.36671   0.31141   0.83045   0.00000  Uiso   1.00
N43    N     0.82410   0.53842   0.96241   0.00000  Uiso   1.00
N44    N     0.15185   0.06162   0.72891   0.00000  Uiso   1.00
N45    N     0.38971   0.32234   0.73131   0.00000  Uiso   1.00
N46    N     0.84710   0.54935   0.86327   0.00000  Uiso   1.00
C47    C     0.67810   0.88925   0.19432   0.00000  Uiso   1.00
C48    C     0.71290   0.93524   0.15446   0.00000  Uiso   1.00
C49    C     0.79333   0.90771   0.10408   0.00000  Uiso   1.00
C50    C     0.81304   0.95884   0.07370   0.00000  Uiso   1.00
C51    C     0.87601   0.01870   0.00889   0.00000  Uiso   1.00
C52    C     0.64659   0.92135   0.26483   0.00000  Uiso   1.00
C53    C     0.67126   0.88214   0.30723   0.00000  Uiso   1.00
C54    C     0.63514   0.92158   0.36976   0.00000  Uiso   1.00
C55    C     0.59512   0.95986   0.47630   0.00000  Uiso   1.00
C56    C     0.60078   0.90693   0.18810   0.00000  Uiso   1.00
C57    C     0.58692   0.85559   0.16600   0.00000  Uiso   1.00
C58    C     0.51222   0.88289   0.16394   0.00000  Uiso   1.00
C59    C     0.40107   0.89879   0.15135   0.00000  Uiso   1.00
C60    C     0.57006   0.02899   0.22996   0.00000  Uiso   1.00
C61    C     0.65421   0.01114   0.17382   0.00000  Uiso   1.00
C62    C     0.67380   0.06232   0.14351   0.00000  Uiso   1.00
C63    C     0.75425   0.03488   0.09309   0.00000  Uiso   1.00
C64    C     0.58791   0.99725   0.28419   0.00000  Uiso   1.00
C65    C     0.55173   0.03675   0.34666   0.00000  Uiso   1.00
C66    C     0.57635   0.99761   0.38915   0.00000  Uiso   1.00
C67    C     0.54209   0.98283   0.20745   0.00000  Uiso   1.00
C68    C     0.46739   0.01021   0.20543   0.00000  Uiso   1.00
C69    C     0.45343   0.95893   0.18333   0.00000  Uiso   1.00
H70    H     0.72378   0.83015   0.17925   0.00000  Uiso   1.00
H71    H     0.83873   0.84897   0.08912   0.00000  Uiso   1.00
H72    H     0.71667   0.82340   0.29224   0.00000  Uiso   1.00
H73    H     0.63235   0.79686   0.15103   0.00000  Uiso   1.00
H74    H     0.94030   0.90330   0.99774   0.00000  Uiso   1.00
H75    H     0.68291   0.84939   0.42604   0.00000  Uiso   1.00
H76    H     0.50510   0.79342   0.12827   0.00000  Uiso   1.00
H77    H     0.52437   0.08809   0.24503   0.00000  Uiso   1.00
H78    H     0.62837   0.12105   0.15850   0.00000  Uiso   1.00
H79    H     0.50632   0.09549   0.36163   0.00000  Uiso   1.00
H80    H     0.42200   0.06895   0.22041   0.00000  Uiso   1.00
H81    H     0.76957   0.12414   0.05405   0.00000  Uiso   1.00
H82    H     0.51218   0.07022   0.48236   0.00000  Uiso   1.00
H83    H     0.33437   0.01426   0.18459   0.00000  Uiso   1.00
O84    O     0.92695   0.03075   0.96780   0.00000  Uiso   1.00
O85    O     0.58927   0.96001   0.52972   0.00000  Uiso   1.00
O86    O     0.35598   0.88659   0.13905   0.00000  Uiso   1.00
N87    N     0.88584   0.95075   0.02286   0.00000  Uiso   1.00
N88    N     0.64521   0.90034   0.42329   0.00000  Uiso   1.00
N89    N     0.47896   0.84802   0.14492   0.00000  Uiso   1.00
N90    N     0.79397   0.06958   0.05316   0.00000  Uiso   1.00
N91    N     0.55334   0.01917   0.45360   0.00000  Uiso   1.00
N92    N     0.38709   0.96685   0.17522   0.00000  Uiso   1.00
C93    C     0.29630   0.57368   0.49076   0.00000  Uiso   1.00
C94    C     0.23721   0.60645   0.56303   0.00000  Uiso   1.00
C95    C     0.23180   0.66136   0.60022   0.00000  Uiso   1.00
C96    C     0.17376   0.68381   0.66549   0.00000  Uiso   1.00
C97    C     0.08976   0.73943   0.77360   0.00000  Uiso   1.00
C98    C     0.34640   0.49028   0.48387   0.00000  Uiso   1.00
C99    C     0.43280   0.44753   0.45449   0.00000  Uiso   1.00
C100   C     0.46667   0.37219   0.45311   0.00000  Uiso   1.00
C101   C     0.55218   0.24746   0.43829   0.00000  Uiso   1.00
C102   C     0.24126   0.58471   0.45948   0.00000  Uiso   1.00
C103   C     0.23927   0.62133   0.40959   0.00000  Uiso   1.00
C104   C     0.18463   0.62546   0.38767   0.00000  Uiso   1.00
C105   C     0.10690   0.64733   0.33497   0.00000  Uiso   1.00
C106   C     0.20283   0.51589   0.54052   0.00000  Uiso   1.00
C107   C     0.18644   0.57505   0.59006   0.00000  Uiso   1.00
C108   C     0.12839   0.59742   0.65529   0.00000  Uiso   1.00
C109   C     0.12290   0.65236   0.69257   0.00000  Uiso   1.00
C110   C     0.29563   0.45889   0.51090   0.00000  Uiso   1.00
C111   C     0.32938   0.38359   0.50956   0.00000  Uiso   1.00
C112   C     0.41581   0.34074   0.48020   0.00000  Uiso   1.00
C113   C     0.19048   0.55331   0.48651   0.00000  Uiso   1.00
C114   C     0.13585   0.55738   0.46466   0.00000  Uiso   1.00
C115   C     0.13377   0.59401   0.41475   0.00000  Uiso   1.00
H116   H     0.33583   0.59812   0.46971   0.00000  Uiso   1.00
H117   H     0.27111   0.68564   0.57928   0.00000  Uiso   1.00
H118   H     0.47207   0.47184   0.43357   0.00000  Uiso   1.00
H119   H     0.27856   0.64561   0.38868   0.00000  Uiso   1.00
H120   H     0.17699   0.76881   0.71270   0.00000  Uiso   1.00
H121   H     0.60072   0.31800   0.40544   0.00000  Uiso   1.00
H122   H     0.19268   0.68443   0.31077   0.00000  Uiso   1.00
H123   H     0.16330   0.49144   0.56157   0.00000  Uiso   1.00
H124   H     0.08911   0.57311   0.67619   0.00000  Uiso   1.00
H125   H     0.29007   0.35931   0.53048   0.00000  Uiso   1.00
H126   H     0.09657   0.53308   0.48559   0.00000  Uiso   1.00
H127   H     0.02927   0.67747   0.79135   0.00000  Uiso   1.00
H128   H     0.45301   0.22667   0.48409   0.00000  Uiso   1.00
H129   H     0.04496   0.59310   0.38942   0.00000  Uiso   1.00
O130   O     0.05745   0.77877   0.82577   0.00000  Uiso   1.00
O131   O     0.61338   0.18733   0.42265   0.00000  Uiso   1.00
O132   O     0.07803   0.66808   0.29845   0.00000  Uiso   1.00
N133   N     0.15239   0.73612   0.71548   0.00000  Uiso   1.00
N134   N     0.54856   0.31464   0.42821   0.00000  Uiso   1.00
N135   N     0.16709   0.65720   0.33970   0.00000  Uiso   1.00
N136   N     0.07290   0.68697   0.75780   0.00000  Uiso   1.00
N137   N     0.46907   0.26549   0.47054   0.00000  Uiso   1.00
N138   N     0.08760   0.60806   0.38202   0.00000  Uiso   1.00
C139   C     0.42493   0.42548   0.99581   0.00000  Uiso   1.00
C140   C     0.34635   0.44709   0.05965   0.00000  Uiso   1.00
C141   C     0.31998   0.39902   0.08906   0.00000  Uiso   1.00
C142   C     0.24639   0.42963   0.14736   0.00000  Uiso   1.00
C143   C     0.13133   0.45164   0.24226   0.00000  Uiso   1.00
C144   C     0.47509   0.45190   0.01076   0.00000  Uiso   1.00
C145   C     0.55695   0.40788   0.99907   0.00000  Uiso   1.00
C146   C     0.59174   0.44254   0.01621   0.00000  Uiso   1.00
C147   C     0.67657   0.47202   0.03517   0.00000  Uiso   1.00
C148   C     0.39593   0.47327   0.95213   0.00000  Uiso   1.00
C149   C     0.41127   0.44721   0.89113   0.00000  Uiso   1.00
C150   C     0.37943   0.49987   0.85889   0.00000  Uiso   1.00
C151   C     0.34136   0.56253   0.78683   0.00000  Uiso   1.00
C152   C     0.34115   0.56532   0.04704   0.00000  Uiso   1.00
C153   C     0.30085   0.52305   0.08747   0.00000  Uiso   1.00
C154   C     0.22729   0.55374   0.14573   0.00000  Uiso   1.00
C155   C     0.20081   0.50573   0.17523   0.00000  Uiso   1.00
C156   C     0.42959   0.52785   0.03859   0.00000  Uiso   1.00
C157   C     0.46427   0.56260   0.05574   0.00000  Uiso   1.00
C158   C     0.54616   0.51864   0.04408   0.00000  Uiso   1.00
C159   C     0.35043   0.54923   0.97995   0.00000  Uiso   1.00
C160   C     0.31857   0.60193   0.94781   0.00000  Uiso   1.00
C161   C     0.33385   0.57597   0.88677   0.00000  Uiso   1.00
H162   H     0.46036   0.36634   0.97415   0.00000  Uiso   1.00
H163   H     0.35521   0.34024   0.06752   0.00000  Uiso   1.00
H164   H     0.59215   0.34910   0.97753   0.00000  Uiso   1.00
H165   H     0.44648   0.38843   0.86961   0.00000  Uiso   1.00
H166   H     0.21859   0.34480   0.18331   0.00000  Uiso   1.00
H167   H     0.71820   0.36348   0.99355   0.00000  Uiso   1.00
H168   H     0.41103   0.44642   0.76598   0.00000  Uiso   1.00
H169   H     0.30573   0.62446   0.06870   0.00000  Uiso   1.00
H170   H     0.19209   0.61252   0.16725   0.00000  Uiso   1.00
H171   H     0.42904   0.62138   0.07727   0.00000  Uiso   1.00
H172   H     0.28337   0.66071   0.96935   0.00000  Uiso   1.00
H173   H     0.08620   0.56579   0.26426   0.00000  Uiso   1.00
H174   H     0.58582   0.58447   0.07450   0.00000  Uiso   1.00
H175   H     0.27864   0.66741   0.84693   0.00000  Uiso   1.00
O176   O     0.08044   0.44279   0.28693   0.00000  Uiso   1.00
O177   O     0.73593   0.46729   0.03795   0.00000  Uiso   1.00
O178   O     0.33291   0.57611   0.73939   0.00000  Uiso   1.00
N179   N     0.20301   0.39845   0.18883   0.00000  Uiso   1.00
N180   N     0.67012   0.41591   0.01143   0.00000  Uiso   1.00
N181   N     0.38296   0.49345   0.79866   0.00000  Uiso   1.00
N182   N     0.13178   0.51737   0.23239   0.00000  Uiso   1.00
N183   N     0.59888   0.53483   0.05499   0.00000  Uiso   1.00
N184   N     0.31172   0.61237   0.84222   0.00000  Uiso   1.00
C185   C     0.03807   0.06482   0.33188   0.00000  Uiso   1.00
C186   C     0.08420   0.09488   0.27921   0.00000  Uiso   1.00
C187   C     0.07876   0.16312   0.28779   0.00000  Uiso   1.00
C188   C     0.12589   0.18037   0.23355   0.00000  Uiso   1.00
C189   C     0.18983   0.23453   0.16099   0.00000  Uiso   1.00
C190   C     0.10511   0.99063   0.33219   0.00000  Uiso   1.00
C191   C     0.11725   0.97122   0.38532   0.00000  Uiso   1.00
C192   C     0.18198   0.90070   0.37567   0.00000  Uiso   1.00
C193   C     0.27834   0.79299   0.38537   0.00000  Uiso   1.00
C194   C     0.98890   0.04677   0.30777   0.00000  Uiso   1.00
C195   C     0.90334   0.07455   0.34036   0.00000  Uiso   1.00
C196   C     0.87023   0.05129   0.31015   0.00000  Uiso   1.00
C197   C     0.78617   0.03075   0.28193   0.00000  Uiso   1.00
C198   C     0.13144   0.97410   0.22028   0.00000  Uiso   1.00
C199   C     0.13491   0.04560   0.21860   0.00000  Uiso   1.00
C200   C     0.18206   0.06275   0.16432   0.00000  Uiso   1.00
C201   C     0.17669   0.13101   0.17282   0.00000  Uiso   1.00
C202   C     0.15582   0.94136   0.27158   0.00000  Uiso   1.00
C203   C     0.22055   0.87085   0.26184   0.00000  Uiso   1.00
C204   C     0.23278   0.85134   0.31494   0.00000  Uiso   1.00
C205   C     0.03962   0.99750   0.24715   0.00000  Uiso   1.00
C206   C     0.00664   0.97418   0.21688   0.00000  Uiso   1.00
C207   C     0.92104   0.00192   0.24942   0.00000  Uiso   1.00
H208   H     0.99859   0.10318   0.37908   0.00000  Uiso   1.00
H209   H     0.03951   0.20124   0.33472   0.00000  Uiso   1.00
H210   H     0.07799   0.00936   0.43222   0.00000  Uiso   1.00
H211   H     0.86411   0.11268   0.38727   0.00000  Uiso   1.00
H212   H     0.10727   0.28821   0.25880   0.00000  Uiso   1.00
H213   H     0.18837   0.88362   0.46441   0.00000  Uiso   1.00
H214   H     0.73737   0.10149   0.36962   0.00000  Uiso   1.00
H215   H     0.17092   0.93573   0.17309   0.00000  Uiso   1.00
H216   H     0.22130   0.02461   0.11742   0.00000  Uiso   1.00
H217   H     0.25978   0.83273   0.21493   0.00000  Uiso   1.00
H218   H     0.04590   0.93605   0.16997   0.00000  Uiso   1.00
H219   H     0.25482   0.14485   0.08243   0.00000  Uiso   1.00
H220   H     0.33592   0.74026   0.28805   0.00000  Uiso   1.00
H221   H     0.88492   0.95813   0.19325   0.00000  Uiso   1.00
O222   O     0.21109   0.27801   0.13772   0.00000  Uiso   1.00
O223   O     0.31749   0.74720   0.40748   0.00000  Uiso   1.00
O224   O     0.72579   0.03304   0.28311   0.00000  Uiso   1.00
N225   N     0.13507   0.24228   0.22493   0.00000  Uiso   1.00
N226   N     0.21090   0.86402   0.41716   0.00000  Uiso   1.00
N227   N     0.78926   0.06769   0.32855   0.00000  Uiso   1.00
N228   N     0.21446   0.16514   0.13003   0.00000  Uiso   1.00
N229   N     0.29030   0.78688   0.32226   0.00000  Uiso   1.00
N230   N     0.86866   0.99055   0.23365   0.00000  Uiso   1.00
C231   C     0.63019   0.80886   0.71487   0.00000  Uiso   1.00
C232   C     0.62416   0.74402   0.69374   0.00000  Uiso   1.00
C233   C     0.68569   0.68568   0.64042   0.00000  Uiso   1.00
C234   C     0.66813   0.63180   0.62931   0.00000  Uiso   1.00
C235   C     0.67040   0.53043   0.59032   0.00000  Uiso   1.00
C236   C     0.61434   0.80925   0.78472   0.00000  Uiso   1.00
C237   C     0.66762   0.80576   0.80789   0.00000  Uiso   1.00
C238   C     0.64179   0.80681   0.87336   0.00000  Uiso   1.00
C239   C     0.62879   0.80677   0.97562   0.00000  Uiso   1.00
C240   C     0.55571   0.87883   0.71760   0.00000  Uiso   1.00
C241   C     0.55969   0.93386   0.68436   0.00000  Uiso   1.00
C242   C     0.48450   0.99350   0.69333   0.00000  Uiso   1.00
C243   C     0.38048   0.10149   0.69139   0.00000  Uiso   1.00
C244   C     0.48958   0.81693   0.78995   0.00000  Uiso   1.00
C245   C     0.54778   0.74840   0.73453   0.00000  Uiso   1.00
C246   C     0.53012   0.69460   0.72349   0.00000  Uiso   1.00
C247   C     0.59162   0.63619   0.67016   0.00000  Uiso   1.00
C248   C     0.53797   0.81363   0.82550   0.00000  Uiso   1.00
C249   C     0.51205   0.81469   0.89096   0.00000  Uiso   1.00
C250   C     0.56528   0.81120   0.91422   0.00000  Uiso   1.00
C251   C     0.47934   0.88321   0.75838   0.00000  Uiso   1.00
C252   C     0.40413   0.94278   0.76742   0.00000  Uiso   1.00
C253   C     0.40799   0.99789   0.73419   0.00000  Uiso   1.00
H254   H     0.68965   0.80545   0.68312   0.00000  Uiso   1.00
H255   H     0.74479   0.68230   0.60888   0.00000  Uiso   1.00
H256   H     0.72671   0.80238   0.77632   0.00000  Uiso   1.00
H257   H     0.61881   0.93045   0.65280   0.00000  Uiso   1.00
H258   H     0.77226   0.54769   0.54456   0.00000  Uiso   1.00
H259   H     0.73413   0.80091   0.89762   0.00000  Uiso   1.00
H260   H     0.50658   0.07097   0.63716   0.00000  Uiso   1.00
H261   H     0.43012   0.82034   0.82170   0.00000  Uiso   1.00
H262   H     0.47102   0.69801   0.75506   0.00000  Uiso   1.00
H263   H     0.45294   0.81809   0.92250   0.00000  Uiso   1.00
H264   H     0.34504   0.94616   0.79898   0.00000  Uiso   1.00
H265   H     0.55006   0.56043   0.66321   0.00000  Uiso   1.00
H266   H     0.51192   0.81366   0.01627   0.00000  Uiso   1.00
H267   H     0.28438   0.08372   0.75581   0.00000  Uiso   1.00
O268   O     0.69276   0.47331   0.55755   0.00000  Uiso   1.00
O269   O     0.64272   0.80553   0.02076   0.00000  Uiso   1.00
O270   O     0.34419   0.15985   0.67904   0.00000  Uiso   1.00
N271   N     0.71434   0.56749   0.58162   0.00000  Uiso   1.00
N272   N     0.67870   0.80422   0.91171   0.00000  Uiso   1.00
N273   N     0.46596   0.05671   0.66822   0.00000  Uiso   1.00
N274   N     0.59478   0.57434   0.64546   0.00000  Uiso   1.00
N275   N     0.55913   0.81107   0.97556   0.00000  Uiso   1.00
N276   N     0.34640   0.06357   0.73206   0.00000  Uiso   1.00
C277   C     0.94289   0.65387   0.10429   0.00000  Uiso   1.00
C278   C     0.92450   0.69028   0.16923   0.00000  Uiso   1.00
C279   C     0.92125   0.75654   0.18240   0.00000  Uiso   1.00
C280   C     0.90347   0.78052   0.24484   0.00000  Uiso   1.00
C281   C     0.87701   0.84329   0.33846   0.00000  Uiso   1.00
C282   C     0.86896   0.64366   0.11790   0.00000  Uiso   1.00
C283   C     0.81902   0.67072   0.08791   0.00000  Uiso   1.00
C284   C     0.75449   0.65544   0.10714   0.00000  Uiso   1.00
C285   C     0.64183   0.64579   0.12104   0.00000  Uiso   1.00
C286   C     0.01751   0.57611   0.08568   0.00000  Uiso   1.00
C287   C     0.09247   0.54635   0.02859   0.00000  Uiso   1.00
C288   C     0.15300   0.47419   0.02069   0.00000  Uiso   1.00
C289   C     0.27100   0.35965   0.98456   0.00000  Uiso   1.00
C290   C     0.91708   0.57862   0.19176   0.00000  Uiso   1.00
C291   C     0.91048   0.64941   0.21674   0.00000  Uiso   1.00
C292   C     0.89270   0.67329   0.27918   0.00000  Uiso   1.00
C293   C     0.88943   0.73957   0.29244   0.00000  Uiso   1.00
C294   C     0.85494   0.60279   0.16541   0.00000  Uiso   1.00
C295   C     0.79047   0.58746   0.18469   0.00000  Uiso   1.00
C296   C     0.74044   0.61449   0.15474   0.00000  Uiso   1.00
C297   C     0.00350   0.53523   0.13320   0.00000  Uiso   1.00
C298   C     0.06392   0.46310   0.12537   0.00000  Uiso   1.00
C299   C     0.13896   0.43324   0.06828   0.00000  Uiso   1.00
H300   H     0.95380   0.68569   0.06730   0.00000  Uiso   1.00
H301   H     0.93210   0.78816   0.14562   0.00000  Uiso   1.00
H302   H     0.82989   0.70234   0.05114   0.00000  Uiso   1.00
H303   H     0.10330   0.57800   0.99183   0.00000  Uiso   1.00
H304   H     0.90182   0.88376   0.25341   0.00000  Uiso   1.00
H305   H     0.68633   0.70278   0.05418   0.00000  Uiso   1.00
H306   H     0.26287   0.44057   0.92912   0.00000  Uiso   1.00
H307   H     0.90617   0.54680   0.22876   0.00000  Uiso   1.00
H308   H     0.88185   0.64165   0.31594   0.00000  Uiso   1.00
H309   H     0.77964   0.55583   0.22146   0.00000  Uiso   1.00
H310   H     0.05305   0.43148   0.16215   0.00000  Uiso   1.00
H311   H     0.86104   0.76484   0.39165   0.00000  Uiso   1.00
H312   H     0.64555   0.58386   0.19242   0.00000  Uiso   1.00
H313   H     0.22208   0.32166   0.06736   0.00000  Uiso   1.00
O314   O     0.86627   0.88921   0.37697   0.00000  Uiso   1.00
O315   O     0.58356   0.65177   0.11558   0.00000  Uiso   1.00
O316   O     0.33996   0.30776   0.95151   0.00000  Uiso   1.00
N317   N     0.89558   0.84275   0.27397   0.00000  Uiso   1.00
N318   N     0.69410   0.67355   0.08772   0.00000  Uiso   1.00
N319   N     0.23310   0.42840   0.97079   0.00000  Uiso   1.00
N320   N     0.87364   0.77876   0.34836   0.00000  Uiso   1.00
N321   N     0.67215   0.60957   0.16210   0.00000  Uiso   1.00
N322   N     0.21116   0.36442   0.04517   0.00000  Uiso   1.00
C323   C     0.50595   0.82975   0.54984   0.00000  Uiso   1.00
C324   C     0.45651   0.79902   0.59875   0.00000  Uiso   1.00
C325   C     0.40511   0.83006   0.66459   0.00000  Uiso   1.00
C326   C     0.36532   0.79353   0.70113   0.00000  Uiso   1.00
C327   C     0.28681   0.75576   0.78138   0.00000  Uiso   1.00
C328   C     0.47872   0.84050   0.49749   0.00000  Uiso   1.00
C329   C     0.44601   0.90642   0.47819   0.00000  Uiso   1.00
C330   C     0.42493   0.90481   0.42948   0.00000  Uiso   1.00
C331   C     0.38096   0.93142   0.35249   0.00000  Uiso   1.00
C332   C     0.59681   0.76746   0.51751   0.00000  Uiso   1.00
C333   C     0.66340   0.77196   0.51503   0.00000  Uiso   1.00
C334   C     0.74174   0.70886   0.48316   0.00000  Uiso   1.00
C335   C     0.88112   0.62206   0.43726   0.00000  Uiso   1.00
C336   C     0.52667   0.70970   0.49765   0.00000  Uiso   1.00
C337   C     0.46776   0.73381   0.57040   0.00000  Uiso   1.00
C338   C     0.42804   0.69723   0.60685   0.00000  Uiso   1.00
C339   C     0.37660   0.72820   0.67273   0.00000  Uiso   1.00
C340   C     0.48997   0.77530   0.46914   0.00000  Uiso   1.00
C341   C     0.46894   0.77359   0.42045   0.00000  Uiso   1.00
C342   C     0.43621   0.83948   0.40108   0.00000  Uiso   1.00
C343   C     0.60807   0.70225   0.48916   0.00000  Uiso   1.00
C344   C     0.68632   0.63913   0.45729   0.00000  Uiso   1.00
C345   C     0.75302   0.64353   0.45476   0.00000  Uiso   1.00
H346   H     0.49718   0.88052   0.57190   0.00000  Uiso   1.00
H347   H     0.39641   0.88053   0.68650   0.00000  Uiso   1.00
H348   H     0.43732   0.95687   0.50013   0.00000  Uiso   1.00
H349   H     0.65466   0.82243   0.53697   0.00000  Uiso   1.00
H350   H     0.28963   0.85179   0.80106   0.00000  Uiso   1.00
H351   H     0.37590   0.01275   0.40806   0.00000  Uiso   1.00
H352   H     0.83423   0.72927   0.48574   0.00000  Uiso   1.00
H353   H     0.53544   0.65893   0.47557   0.00000  Uiso   1.00
H354   H     0.43676   0.64677   0.58490   0.00000  Uiso   1.00
H355   H     0.47767   0.72312   0.39852   0.00000  Uiso   1.00
H356   H     0.69501   0.58868   0.43536   0.00000  Uiso   1.00
H357   H     0.32238   0.66207   0.71859   0.00000  Uiso   1.00
H358   H     0.40866   0.82303   0.32559   0.00000  Uiso   1.00
H359   H     0.86698   0.53955   0.40327   0.00000  Uiso   1.00
O360   O     0.24038   0.75294   0.83347   0.00000  Uiso   1.00
O361   O     0.35359   0.96412   0.31786   0.00000  Uiso   1.00
O362   O     0.95489   0.59220   0.41978   0.00000  Uiso   1.00
N363   N     0.31089   0.80880   0.76665   0.00000  Uiso   1.00
N364   N     0.39154   0.95929   0.39922   0.00000  Uiso   1.00
N365   N     0.82004   0.69427   0.47184   0.00000  Uiso   1.00
N366   N     0.32851   0.70671   0.72227   0.00000  Uiso   1.00
N367   N     0.40916   0.85721   0.35485   0.00000  Uiso   1.00
N368   N     0.83766   0.59218   0.42746   0.00000  Uiso   1.00
C369   C     0.74917   0.31143   0.26796   0.00000  Uiso   1.00
C370   C     0.83246   0.30633   0.22334   0.00000  Uiso   1.00
C371   C     0.89521   0.25282   0.16687   0.00000  Uiso   1.00
C372   C     0.96668   0.25776   0.13286   0.00000  Uiso   1.00
C373   C     0.09472   0.24128   0.06026   0.00000  Uiso   1.00
C374   C     0.68186   0.38864   0.27301   0.00000  Uiso   1.00
C375   C     0.61798   0.40434   0.25831   0.00000  Uiso   1.00
C376   C     0.56268   0.47857   0.26612   0.00000  Uiso   1.00
C377   C     0.45687   0.58988   0.27068   0.00000  Uiso   1.00
C378   C     0.74371   0.31053   0.33494   0.00000  Uiso   1.00
C379   C     0.73182   0.26058   0.37232   0.00000  Uiso   1.00
C380   C     0.72857   0.26906   0.43227   0.00000  Uiso   1.00
C381   C     0.71880   0.25910   0.53298   0.00000  Uiso   1.00
C382   C     0.76452   0.41534   0.30798   0.00000  Uiso   1.00
C383   C     0.84079   0.36277   0.24509   0.00000  Uiso   1.00
C384   C     0.91219   0.36779   0.21115   0.00000  Uiso   1.00
C385   C     0.97504   0.31430   0.15464   0.00000  Uiso   1.00
C386   C     0.69019   0.44508   0.29475   0.00000  Uiso   1.00
C387   C     0.63496   0.51931   0.30259   0.00000  Uiso   1.00
C388   C     0.57103   0.53512   0.28790   0.00000  Uiso   1.00
C389   C     0.75205   0.36698   0.35668   0.00000  Uiso   1.00
C390   C     0.74881   0.37555   0.41660   0.00000  Uiso   1.00
C391   C     0.73692   0.32561   0.45405   0.00000  Uiso   1.00
H392   H     0.74268   0.26749   0.25103   0.00000  Uiso   1.00
H393   H     0.88873   0.20915   0.15006   0.00000  Uiso   1.00
H394   H     0.61155   0.36065   0.24149   0.00000  Uiso   1.00
H395   H     0.72537   0.21691   0.35548   0.00000  Uiso   1.00
H396   H     0.05432   0.16938   0.04769   0.00000  Uiso   1.00
H397   H     0.46984   0.48882   0.24050   0.00000  Uiso   1.00
H398   H     0.70986   0.18572   0.48086   0.00000  Uiso   1.00
H399   H     0.77101   0.45929   0.32491   0.00000  Uiso   1.00
H400   H     0.91862   0.41148   0.22799   0.00000  Uiso   1.00
H401   H     0.64143   0.56297   0.31942   0.00000  Uiso   1.00
H402   H     0.75526   0.41923   0.43340   0.00000  Uiso   1.00
H403   H     0.07858   0.33360   0.11094   0.00000  Uiso   1.00
H404   H     0.49410   0.65304   0.30375   0.00000  Uiso   1.00
H405   H     0.73412   0.34993   0.54411   0.00000  Uiso   1.00
O406   O     0.16304   0.21660   0.01421   0.00000  Uiso   1.00
O407   O     0.39621   0.63568   0.26718   0.00000  Uiso   1.00
O408   O     0.71112   0.23801   0.58252   0.00000  Uiso   1.00
N409   N     0.03978   0.21459   0.07588   0.00000  Uiso   1.00
N410   N     0.49334   0.51324   0.25614   0.00000  Uiso   1.00
N411   N     0.71771   0.22987   0.48086   0.00000  Uiso   1.00
N412   N     0.05284   0.30295   0.10991   0.00000  Uiso   1.00
N413   N     0.50639   0.60160   0.29017   0.00000  Uiso   1.00
N414   N     0.73076   0.31824   0.51490   0.00000  Uiso   1.00
C415   C     0.92044   0.31419   0.73547   0.00000  Uiso   1.00
C416   C     0.99931   0.25814   0.67558   0.00000  Uiso   1.00
C417   C     0.06491   0.26863   0.63510   0.00000  Uiso   1.00
C418   C     0.13143   0.21064   0.58282   0.00000  Uiso   1.00
C419   C     0.25375   0.13366   0.49153   0.00000  Uiso   1.00
C420   C     0.84749   0.32617   0.72500   0.00000  Uiso   1.00
C421   C     0.78545   0.39387   0.72607   0.00000  Uiso   1.00
C422   C     0.72417   0.39315   0.71540   0.00000  Uiso   1.00
C423   C     0.61076   0.42181   0.70088   0.00000  Uiso   1.00
C424   C     0.91553   0.27492   0.79155   0.00000  Uiso   1.00
C425   C     0.91067   0.29952   0.84859   0.00000  Uiso   1.00
C426   C     0.90666   0.25566   0.89396   0.00000  Uiso   1.00
C427   C     0.89889   0.20473   0.98277   0.00000  Uiso   1.00
C428   C     0.92193   0.19255   0.71464   0.00000  Uiso   1.00
C429   C     0.00011   0.19207   0.66427   0.00000  Uiso   1.00
C430   C     0.06655   0.13404   0.61204   0.00000  Uiso   1.00
C431   C     0.13224   0.14445   0.57148   0.00000  Uiso   1.00
C432   C     0.84830   0.26011   0.71368   0.00000  Uiso   1.00
C433   C     0.78709   0.25929   0.70302   0.00000  Uiso   1.00
C434   C     0.72498   0.32696   0.70407   0.00000  Uiso   1.00
C435   C     0.91634   0.20884   0.78023   0.00000  Uiso   1.00
C436   C     0.91232   0.16494   0.82553   0.00000  Uiso   1.00
C437   C     0.90746   0.18947   0.88262   0.00000  Uiso   1.00
H438   H     0.91981   0.36564   0.74429   0.00000  Uiso   1.00
H439   H     0.06425   0.31977   0.64387   0.00000  Uiso   1.00
H440   H     0.78484   0.44499   0.73484   0.00000  Uiso   1.00
H441   H     0.91005   0.35065   0.85733   0.00000  Uiso   1.00
H442   H     0.22474   0.23979   0.52753   0.00000  Uiso   1.00
H443   H     0.63556   0.50383   0.71937   0.00000  Uiso   1.00
H444   H     0.89959   0.30491   0.97767   0.00000  Uiso   1.00
H445   H     0.92255   0.14111   0.70582   0.00000  Uiso   1.00
H446   H     0.06716   0.08292   0.60329   0.00000  Uiso   1.00
H447   H     0.78774   0.20815   0.69426   0.00000  Uiso   1.00
H448   H     0.91295   0.11381   0.81675   0.00000  Uiso   1.00
H449   H     0.22710   0.04756   0.49459   0.00000  Uiso   1.00
H450   H     0.63791   0.31160   0.68644   0.00000  Uiso   1.00
H451   H     0.90194   0.11267   0.94473   0.00000  Uiso   1.00
O452   O     0.32098   0.10946   0.44429   0.00000  Uiso   1.00
O453   O     0.54799   0.45587   0.69599   0.00000  Uiso   1.00
O454   O     0.89440   0.19488   0.03487   0.00000  Uiso   1.00
N455   N     0.20546   0.20253   0.53386   0.00000  Uiso   1.00
N456   N     0.65462   0.44939   0.71320   0.00000  Uiso   1.00
N457   N     0.90144   0.26342   0.95470   0.00000  Uiso   1.00
N458   N     0.20673   0.09909   0.51613   0.00000  Uiso   1.00
N459   N     0.65588   0.34595   0.69548   0.00000  Uiso   1.00
N460   N     0.90271   0.15998   0.93698   0.00000  Uiso   1.00
C461   C     0.00277   0.80115   0.55492   0.00000  Uiso   1.00
C462   C     0.96552   0.76501   0.60676   0.00000  Uiso   1.00
C463   C     0.97975   0.69340   0.59659   0.00000  Uiso   1.00
C464   C     0.93983   0.67071   0.65031   0.00000  Uiso   1.00
C465   C     0.88990   0.60741   0.72142   0.00000  Uiso   1.00
C466   C     0.92892   0.87174   0.55760   0.00000  Uiso   1.00
C467   C     0.91239   0.88987   0.50610   0.00000  Uiso   1.00
C468   C     0.84167   0.95702   0.51844   0.00000  Uiso   1.00
C469   C     0.73495   0.05945   0.51322   0.00000  Uiso   1.00
C470   C     0.04795   0.82635   0.57816   0.00000  Uiso   1.00
C471   C     0.13150   0.80634   0.54394   0.00000  Uiso   1.00
C472   C     0.16099   0.83529   0.57358   0.00000  Uiso   1.00
C473   C     0.23909   0.86724   0.60027   0.00000  Uiso   1.00
C474   C     0.90658   0.88818   0.66839   0.00000  Uiso   1.00
C475   C     0.91327   0.81228   0.66839   0.00000  Uiso   1.00
C476   C     0.87332   0.78969   0.72213   0.00000  Uiso   1.00
C477   C     0.88749   0.71806   0.71205   0.00000  Uiso   1.00
C478   C     0.87667   0.91901   0.61923   0.00000  Uiso   1.00
C479   C     0.80596   0.98615   0.63164   0.00000  Uiso   1.00
C480   C     0.78933   0.00438   0.58018   0.00000  Uiso   1.00
C481   C     0.99571   0.87362   0.63979   0.00000  Uiso   1.00
C482   C     0.02507   0.90262   0.66948   0.00000  Uiso   1.00
C483   C     0.10865   0.88265   0.63532   0.00000  Uiso   1.00
H484   H     0.04345   0.76435   0.50694   0.00000  Uiso   1.00
H485   H     0.02018   0.65684   0.54889   0.00000  Uiso   1.00
H486   H     0.95284   0.85328   0.45842   0.00000  Uiso   1.00
H487   H     0.17192   0.76975   0.49625   0.00000  Uiso   1.00
H488   H     0.97132   0.55850   0.62258   0.00000  Uiso   1.00
H489   H     0.82934   0.97271   0.43180   0.00000  Uiso   1.00
H490   H     0.29131   0.79659   0.51158   0.00000  Uiso   1.00
H491   H     0.86590   0.92498   0.71637   0.00000  Uiso   1.00
H492   H     0.83289   0.82628   0.76982   0.00000  Uiso   1.00
H493   H     0.76555   0.02272   0.67934   0.00000  Uiso   1.00
H494   H     0.98462   0.93920   0.71717   0.00000  Uiso   1.00
H495   H     0.81931   0.69603   0.80189   0.00000  Uiso   1.00
H496   H     0.67733   0.11024   0.61111   0.00000  Uiso   1.00
H497   H     0.13929   0.93411   0.69089   0.00000  Uiso   1.00
O498   O     0.87678   0.55945   0.74361   0.00000  Uiso   1.00
O499   O     0.69052   0.10288   0.49331   0.00000  Uiso   1.00
O500   O     0.29661   0.87180   0.59798   0.00000  Uiso   1.00
N501   N     0.94009   0.60441   0.65745   0.00000  Uiso   1.00
N502   N     0.80734   0.99166   0.47908   0.00000  Uiso   1.00
N503   N     0.23923   0.82702   0.55366   0.00000  Uiso   1.00
N504   N     0.85829   0.67841   0.75393   0.00000  Uiso   1.00
N505   N     0.72554   0.06567   0.57557   0.00000  Uiso   1.00
N506   N     0.15743   0.90102   0.65015   0.00000  Uiso   1.00
C507   C     0.59331   0.08847   0.97424   0.00000  Uiso   1.00
C508   C     0.59179   0.14931   0.01064   0.00000  Uiso   1.00
C509   C     0.52821   0.19516   0.07074   0.00000  Uiso   1.00
C510   C     0.53860   0.24739   0.09585   0.00000  Uiso   1.00
C511   C     0.52535   0.34096   0.15751   0.00000  Uiso   1.00
C512   C     0.60483   0.10644   0.90833   0.00000  Uiso   1.00
C513   C     0.55223   0.11623   0.88240   0.00000  Uiso   1.00
C514   C     0.57361   0.13236   0.82138   0.00000  Uiso   1.00
C515   C     0.58065   0.15932   0.72417   0.00000  Uiso   1.00
C516   C     0.67342   0.01735   0.96107   0.00000  Uiso   1.00
C517   C     0.67850   0.95222   0.97948   0.00000  Uiso   1.00
C518   C     0.75763   0.89334   0.96285   0.00000  Uiso   1.00
C519   C     0.87116   0.78197   0.94753   0.00000  Uiso   1.00
C520   C     0.72481   0.09969   0.91197   0.00000  Uiso   1.00
C521   C     0.66321   0.15541   0.97682   0.00000  Uiso   1.00
C522   C     0.67370   0.20758   0.00185   0.00000  Uiso   1.00
C523   C     0.61015   0.25349   0.06197   0.00000  Uiso   1.00
C524   C     0.67625   0.11254   0.87451   0.00000  Uiso   1.00
C525   C     0.69772   0.12865   0.81351   0.00000  Uiso   1.00
C526   C     0.64517   0.13847   0.78749   0.00000  Uiso   1.00
C527   C     0.74485   0.02345   0.92725   0.00000  Uiso   1.00
C528   C     0.82398   0.96465   0.91058   0.00000  Uiso   1.00
C529   C     0.82918   0.89944   0.92896   0.00000  Uiso   1.00
H530   H     0.53770   0.08372   0.00057   0.00000  Uiso   1.00
H531   H     0.47294   0.19043   0.09690   0.00000  Uiso   1.00
H532   H     0.49697   0.11150   0.90858   0.00000  Uiso   1.00
H533   H     0.62321   0.94753   0.00565   0.00000  Uiso   1.00
H534   H     0.43263   0.31144   0.18877   0.00000  Uiso   1.00
H535   H     0.48331   0.14499   0.79169   0.00000  Uiso   1.00
H536   H     0.74951   0.79921   0.99637   0.00000  Uiso   1.00
H537   H     0.78042   0.10444   0.88563   0.00000  Uiso   1.00
H538   H     0.72898   0.21228   0.97566   0.00000  Uiso   1.00
H539   H     0.75300   0.13336   0.78735   0.00000  Uiso   1.00
H540   H     0.87924   0.96938   0.88441   0.00000  Uiso   1.00
H541   H     0.64044   0.32918   0.09037   0.00000  Uiso   1.00
H542   H     0.69111   0.16273   0.69329   0.00000  Uiso   1.00
H543   H     0.95732   0.81696   0.89797   0.00000  Uiso   1.00
O544   O     0.49831   0.39089   0.20085   0.00000  Uiso   1.00
O545   O     0.56479   0.17251   0.67990   0.00000  Uiso   1.00
O546   O     0.91405   0.71886   0.94843   0.00000  Uiso   1.00
N547   N     0.48861   0.30080   0.15326   0.00000  Uiso   1.00
N548   N     0.53598   0.14520   0.78202   0.00000  Uiso   1.00
N549   N     0.78486   0.82192   0.97336   0.00000  Uiso   1.00
N550   N     0.60042   0.31035   0.10031   0.00000  Uiso   1.00
N551   N     0.64779   0.15475   0.72907   0.00000  Uiso   1.00
N552   N     0.89668   0.83147   0.92041   0.00000  Uiso   1.00
