data_job_06784
_audit_creation_date              2018-12-19
_audit_creation_method            'Materials Studio'
_symmetry_space_group_name_H-M    'P1'
_symmetry_Int_Tables_number       1
_symmetry_cell_setting            triclinic
loop_
_symmetry_equiv_pos_as_xyz
  x,y,z
_cell_length_a                    17.1970
_cell_length_b                    20.5034
_cell_length_c                    22.7497
_cell_angle_alpha                 84.0056
_cell_angle_beta                  84.9722
_cell_angle_gamma                 77.9588
loop_
_atom_site_label
_atom_site_type_symbol
_atom_site_fract_x
_atom_site_fract_y
_atom_site_fract_z
_atom_site_U_iso_or_equiv
_atom_site_adp_type
_atom_site_occupancy
C1     C     0.19290   0.32156   0.39612   0.00000  Uiso   1.00
C2     C     0.15040   0.38790   0.36624   0.00000  Uiso   1.00
C3     C     0.15261   0.40622   0.30574   0.00000  Uiso   1.00
C4     C     0.10972   0.46910   0.28723   0.00000  Uiso   1.00
C5     C     0.05038   0.56559   0.23467   0.00000  Uiso   1.00
C6     C     0.24501   0.33948   0.44039   0.00000  Uiso   1.00
C7     C     0.32676   0.31709   0.44224   0.00000  Uiso   1.00
C8     C     0.36352   0.33920   0.48615   0.00000  Uiso   1.00
C9     C     0.45104   0.36049   0.54873   0.00000  Uiso   1.00
C10    C     0.12842   0.29148   0.43291   0.00000  Uiso   1.00
C11    C     0.11216   0.22873   0.42848   0.00000  Uiso   1.00
C12    C     0.05077   0.21043   0.46610   0.00000  Uiso   1.00
C13    C     0.95728   0.15718   0.51707   0.00000  Uiso   1.00
C14    C     0.11281   0.40063   0.47082   0.00000  Uiso   1.00
C15    C     0.10690   0.43085   0.40682   0.00000  Uiso   1.00
C16    C     0.06399   0.49371   0.38840   0.00000  Uiso   1.00
C17    C     0.06614   0.51213   0.32788   0.00000  Uiso   1.00
C18    C     0.20151   0.38243   0.48097   0.00000  Uiso   1.00
C19    C     0.23815   0.40458   0.52489   0.00000  Uiso   1.00
C20    C     0.31994   0.38223   0.52680   0.00000  Uiso   1.00
C21    C     0.08492   0.33443   0.47349   0.00000  Uiso   1.00
C22    C     0.02355   0.31622   0.51113   0.00000  Uiso   1.00
C23    C     0.00719   0.25345   0.50675   0.00000  Uiso   1.00
H24    H     0.22678   0.28812   0.36453   0.00000  Uiso   1.00
H25    H     0.18629   0.37297   0.27435   0.00000  Uiso   1.00
H26    H     0.36041   0.28385   0.41083   0.00000  Uiso   1.00
H27    H     0.14584   0.19551   0.39707   0.00000  Uiso   1.00
H28    H     0.12224   0.48600   0.19228   0.00000  Uiso   1.00
H29    H     0.48938   0.29806   0.48006   0.00000  Uiso   1.00
H30    H     0.03692   0.11177   0.45104   0.00000  Uiso   1.00
H31    H     0.07894   0.43407   0.50242   0.00000  Uiso   1.00
H32    H     0.03034   0.52693   0.41981   0.00000  Uiso   1.00
H33    H     0.20446   0.43781   0.55629   0.00000  Uiso   1.00
H34    H     0.98989   0.34947   0.54253   0.00000  Uiso   1.00
H35    H     0.99566   0.61096   0.31033   0.00000  Uiso   1.00
H36    H     0.36281   0.42302   0.59812   0.00000  Uiso   1.00
H37    H     0.91035   0.23673   0.56910   0.00000  Uiso   1.00
O38    O     0.02967   0.60695   0.19448   0.00000  Uiso   1.00
O39    O     0.51134   0.36037   0.57204   0.00000  Uiso   1.00
O40    O     0.91772   0.11596   0.53397   0.00000  Uiso   1.00
N41    N     0.09911   0.50266   0.23140   0.00000  Uiso   1.00
N42    N     0.44237   0.32696   0.50045   0.00000  Uiso   1.00
N43    N     0.01937   0.15278   0.47333   0.00000  Uiso   1.00
N44    N     0.03100   0.56990   0.29492   0.00000  Uiso   1.00
N45    N     0.37426   0.39420   0.56398   0.00000  Uiso   1.00
N46    N     0.95126   0.22002   0.53686   0.00000  Uiso   1.00
C47    C     0.58662   0.17697   0.34609   0.00000  Uiso   1.00
C48    C     0.51761   0.16156   0.38835   0.00000  Uiso   1.00
C49    C     0.44538   0.15171   0.37188   0.00000  Uiso   1.00
C50    C     0.38994   0.13817   0.41721   0.00000  Uiso   1.00
C51    C     0.28030   0.11481   0.47376   0.00000  Uiso   1.00
C52    C     0.60394   0.24213   0.36339   0.00000  Uiso   1.00
C53    C     0.60430   0.30003   0.32593   0.00000  Uiso   1.00
C54    C     0.62154   0.35431   0.35025   0.00000  Uiso   1.00
C55    C     0.64598   0.45604   0.36804   0.00000  Uiso   1.00
C56    C     0.65885   0.12273   0.36175   0.00000  Uiso   1.00
C57    C     0.70541   0.08024   0.32292   0.00000  Uiso   1.00
C58    C     0.76890   0.03400   0.34586   0.00000  Uiso   1.00
C59    C     0.87860   0.95034   0.36111   0.00000  Uiso   1.00
C60    C     0.61660   0.17042   0.45586   0.00000  Uiso   1.00
C61    C     0.53390   0.15800   0.44797   0.00000  Uiso   1.00
C62    C     0.47856   0.14447   0.49334   0.00000  Uiso   1.00
C63    C     0.40626   0.13460   0.47694   0.00000  Uiso   1.00
C64    C     0.62022   0.23858   0.42301   0.00000  Uiso   1.00
C65    C     0.63748   0.29279   0.44739   0.00000  Uiso   1.00
C66    C     0.63786   0.35076   0.40998   0.00000  Uiso   1.00
C67    C     0.67514   0.11917   0.42138   0.00000  Uiso   1.00
C68    C     0.73858   0.07300   0.44438   0.00000  Uiso   1.00
C69    C     0.78522   0.03044   0.40559   0.00000  Uiso   1.00
H70    H     0.57394   0.17974   0.29967   0.00000  Uiso   1.00
H71    H     0.43280   0.15447   0.32573   0.00000  Uiso   1.00
H72    H     0.59170   0.30276   0.27979   0.00000  Uiso   1.00
H73    H     0.69279   0.08301   0.27679   0.00000  Uiso   1.00
H74    H     0.28349   0.12491   0.38093   0.00000  Uiso   1.00
H75    H     0.61857   0.43759   0.28406   0.00000  Uiso   1.00
H76    H     0.83173   0.97419   0.27771   0.00000  Uiso   1.00
H77    H     0.62929   0.16766   0.50229   0.00000  Uiso   1.00
H78    H     0.49118   0.14172   0.53947   0.00000  Uiso   1.00
H79    H     0.65008   0.29002   0.49353   0.00000  Uiso   1.00
H80    H     0.75117   0.07026   0.49052   0.00000  Uiso   1.00
H81    H     0.33087   0.11457   0.55441   0.00000  Uiso   1.00
H82    H     0.66596   0.42725   0.45753   0.00000  Uiso   1.00
H83    H     0.87912   0.96385   0.45119   0.00000  Uiso   1.00
O84    O     0.21532   0.10292   0.48848   0.00000  Uiso   1.00
O85    O     0.65495   0.51314   0.36138   0.00000  Uiso   1.00
O86    O     0.93461   0.90517   0.35306   0.00000  Uiso   1.00
N87    N     0.31360   0.12603   0.41665   0.00000  Uiso   1.00
N88    N     0.62687   0.41837   0.32609   0.00000  Uiso   1.00
N89    N     0.82617   0.98514   0.32015   0.00000  Uiso   1.00
N90    N     0.33909   0.12046   0.51000   0.00000  Uiso   1.00
N91    N     0.65236   0.41280   0.41943   0.00000  Uiso   1.00
N92    N     0.85167   0.97957   0.41350   0.00000  Uiso   1.00
C93    C     0.37616   0.38629   0.20202   0.00000  Uiso   1.00
C94    C     0.45842   0.34287   0.19005   0.00000  Uiso   1.00
C95    C     0.47618   0.27343   0.19370   0.00000  Uiso   1.00
C96    C     0.55507   0.24305   0.18106   0.00000  Uiso   1.00
C97    C     0.67383   0.16988   0.16489   0.00000  Uiso   1.00
C98    C     0.38505   0.43028   0.25009   0.00000  Uiso   1.00
C99    C     0.34111   0.43434   0.30421   0.00000  Uiso   1.00
C100   C     0.35823   0.47755   0.34211   0.00000  Uiso   1.00
C101   C     0.36304   0.54013   0.41913   0.00000  Uiso   1.00
C102   C     0.35939   0.43337   0.14610   0.00000  Uiso   1.00
C103   C     0.29386   0.44004   0.11280   0.00000  Uiso   1.00
C104   C     0.28937   0.48587   0.06315   0.00000  Uiso   1.00
C105   C     0.25434   0.55325   0.97872   0.00000  Uiso   1.00
C106   C     0.48468   0.45583   0.17308   0.00000  Uiso   1.00
C107   C     0.51736   0.38065   0.17433   0.00000  Uiso   1.00
C108   C     0.59624   0.35036   0.16168   0.00000  Uiso   1.00
C109   C     0.61412   0.28088   0.16531   0.00000  Uiso   1.00
C110   C     0.44398   0.46805   0.23437   0.00000  Uiso   1.00
C111   C     0.46117   0.51127   0.27219   0.00000  Uiso   1.00
C112   C     0.41727   0.51539   0.32636   0.00000  Uiso   1.00
C113   C     0.41833   0.47115   0.13038   0.00000  Uiso   1.00
C114   C     0.41393   0.51698   0.08078   0.00000  Uiso   1.00
C115   C     0.34841   0.52371   0.04741   0.00000  Uiso   1.00
H116   H     0.33027   0.35689   0.21426   0.00000  Uiso   1.00
H117   H     0.43055   0.24421   0.20587   0.00000  Uiso   1.00
H118   H     0.29549   0.40511   0.31636   0.00000  Uiso   1.00
H119   H     0.24826   0.41081   0.12498   0.00000  Uiso   1.00
H120   H     0.56773   0.13595   0.18966   0.00000  Uiso   1.00
H121   H     0.28293   0.47522   0.42263   0.00000  Uiso   1.00
H122   H     0.18333   0.48724   0.01905   0.00000  Uiso   1.00
H123   H     0.53057   0.48524   0.16084   0.00000  Uiso   1.00
H124   H     0.64184   0.37961   0.14952   0.00000  Uiso   1.00
H125   H     0.50678   0.54050   0.26001   0.00000  Uiso   1.00
H126   H     0.45955   0.54620   0.06863   0.00000  Uiso   1.00
H127   H     0.73922   0.24584   0.14392   0.00000  Uiso   1.00
H128   H     0.45442   0.58511   0.37689   0.00000  Uiso   1.00
H129   H     0.35482   0.59713   0.97332   0.00000  Uiso   1.00
O130   O     0.72306   0.11909   0.16033   0.00000  Uiso   1.00
O131   O     0.34941   0.56420   0.46596   0.00000  Uiso   1.00
O132   O     0.21874   0.57997   0.93649   0.00000  Uiso   1.00
N133   N     0.59281   0.17631   0.18044   0.00000  Uiso   1.00
N134   N     0.32656   0.49350   0.39825   0.00000  Uiso   1.00
N135   N     0.23343   0.50475   0.02096   0.00000  Uiso   1.00
N136   N     0.68509   0.23544   0.15583   0.00000  Uiso   1.00
N137   N     0.41883   0.55263   0.37364   0.00000  Uiso   1.00
N138   N     0.32570   0.56388   0.99634   0.00000  Uiso   1.00
C139   C     0.65416   0.91303   0.82008   0.00000  Uiso   1.00
C140   C     0.61509   0.87959   0.87454   0.00000  Uiso   1.00
C141   C     0.61795   0.81138   0.88631   0.00000  Uiso   1.00
C142   C     0.57838   0.79074   0.93855   0.00000  Uiso   1.00
C143   C     0.52398   0.73183   0.01719   0.00000  Uiso   1.00
C144   C     0.70823   0.95326   0.84343   0.00000  Uiso   1.00
C145   C     0.78940   0.94699   0.82903   0.00000  Uiso   1.00
C146   C     0.82823   0.98838   0.85507   0.00000  Uiso   1.00
C147   C     0.91842   0.04386   0.88537   0.00000  Uiso   1.00
C148   C     0.58751   0.96426   0.79150   0.00000  Uiso   1.00
C149   C     0.56719   0.96724   0.73343   0.00000  Uiso   1.00
C150   C     0.50439   0.01790   0.71575   0.00000  Uiso   1.00
C151   C     0.40715   0.09046   0.66543   0.00000  Uiso   1.00
C152   C     0.57879   0.99770   0.89192   0.00000  Uiso   1.00
C153   C     0.57415   0.92559   0.91356   0.00000  Uiso   1.00
C154   C     0.53456   0.90505   0.96579   0.00000  Uiso   1.00
C155   C     0.53736   0.83682   0.97764   0.00000  Uiso   1.00
C156   C     0.66730   0.99925   0.88245   0.00000  Uiso   1.00
C157   C     0.70601   0.04066   0.90851   0.00000  Uiso   1.00
C158   C     0.78722   0.03445   0.89416   0.00000  Uiso   1.00
C159   C     0.54657   0.01025   0.83052   0.00000  Uiso   1.00
C160   C     0.48380   0.06092   0.81292   0.00000  Uiso   1.00
C161   C     0.46338   0.06398   0.75484   0.00000  Uiso   1.00
H162   H     0.68604   0.87723   0.78970   0.00000  Uiso   1.00
H163   H     0.64965   0.77580   0.85610   0.00000  Uiso   1.00
H164   H     0.82107   0.91140   0.79882   0.00000  Uiso   1.00
H165   H     0.59889   0.93164   0.70325   0.00000  Uiso   1.00
H166   H     0.59127   0.68363   0.94694   0.00000  Uiso   1.00
H167   H     0.95272   0.96955   0.82615   0.00000  Uiso   1.00
H168   H     0.48421   0.01226   0.62461   0.00000  Uiso   1.00
H169   H     0.54691   0.03351   0.92230   0.00000  Uiso   1.00
H170   H     0.50289   0.94066   0.99598   0.00000  Uiso   1.00
H171   H     0.67431   0.07625   0.93870   0.00000  Uiso   1.00
H172   H     0.45213   0.09650   0.84313   0.00000  Uiso   1.00
H173   H     0.47216   0.81743   0.06048   0.00000  Uiso   1.00
H174   H     0.83361   0.10336   0.93968   0.00000  Uiso   1.00
H175   H     0.36510   0.14606   0.73815   0.00000  Uiso   1.00
O176   O     0.50529   0.68663   0.04980   0.00000  Uiso   1.00
O177   O     0.97948   0.06176   0.89131   0.00000  Uiso   1.00
O178   O     0.36481   0.11778   0.62690   0.00000  Uiso   1.00
N179   N     0.56927   0.72786   0.96354   0.00000  Uiso   1.00
N180   N     0.90720   0.99518   0.85062   0.00000  Uiso   1.00
N181   N     0.46920   0.03511   0.66219   0.00000  Uiso   1.00
N182   N     0.50517   0.79986   0.02464   0.00000  Uiso   1.00
N183   N     0.84311   0.06718   0.91171   0.00000  Uiso   1.00
N184   N     0.40510   0.10711   0.72328   0.00000  Uiso   1.00
C185   C     0.94069   0.80134   0.73525   0.00000  Uiso   1.00
C186   C     0.90687   0.86820   0.70174   0.00000  Uiso   1.00
C187   C     0.82681   0.89403   0.69403   0.00000  Uiso   1.00
C188   C     0.80802   0.95602   0.66199   0.00000  Uiso   1.00
C189   C     0.74650   0.05454   0.61354   0.00000  Uiso   1.00
C190   C     0.98935   0.81741   0.78277   0.00000  Uiso   1.00
C191   C     0.97862   0.80053   0.84319   0.00000  Uiso   1.00
C192   C     0.02927   0.81976   0.87936   0.00000  Uiso   1.00
C193   C     0.09584   0.83939   0.95672   0.00000  Uiso   1.00
C194   C     0.00055   0.76239   0.69165   0.00000  Uiso   1.00
C195   C     0.99927   0.69923   0.67547   0.00000  Uiso   1.00
C196   C     0.05936   0.67212   0.63492   0.00000  Uiso   1.00
C197   C     0.14332   0.60632   0.57080   0.00000  Uiso   1.00
C198   C     0.04971   0.86550   0.69205   0.00000  Uiso   1.00
C199   C     0.96609   0.90305   0.67827   0.00000  Uiso   1.00
C200   C     0.94742   0.96501   0.64623   0.00000  Uiso   1.00
C201   C     0.86734   0.99093   0.63848   0.00000  Uiso   1.00
C202   C     0.04856   0.85226   0.75931   0.00000  Uiso   1.00
C203   C     0.09924   0.87151   0.79539   0.00000  Uiso   1.00
C204   C     0.08860   0.85467   0.85585   0.00000  Uiso   1.00
C205   C     0.05977   0.79724   0.66818   0.00000  Uiso   1.00
C206   C     0.11988   0.77022   0.62766   0.00000  Uiso   1.00
C207   C     0.11868   0.70703   0.61142   0.00000  Uiso   1.00
H208   H     0.89459   0.77421   0.75352   0.00000  Uiso   1.00
H209   H     0.78099   0.86705   0.71220   0.00000  Uiso   1.00
H210   H     0.93280   0.77355   0.86134   0.00000  Uiso   1.00
H211   H     0.95343   0.67227   0.69363   0.00000  Uiso   1.00
H212   H     0.68117   0.98535   0.65605   0.00000  Uiso   1.00
H213   H     0.00127   0.78820   0.97052   0.00000  Uiso   1.00
H214   H     0.04478   0.57462   0.61688   0.00000  Uiso   1.00
H215   H     0.09582   0.89264   0.67378   0.00000  Uiso   1.00
H216   H     0.99326   0.99197   0.62808   0.00000  Uiso   1.00
H217   H     0.14506   0.89848   0.77722   0.00000  Uiso   1.00
H218   H     0.16570   0.79720   0.60951   0.00000  Uiso   1.00
H219   H     0.85345   0.08675   0.58778   0.00000  Uiso   1.00
H220   H     0.17356   0.88959   0.90225   0.00000  Uiso   1.00
H221   H     0.21707   0.67602   0.54861   0.00000  Uiso   1.00
O222   O     0.69622   0.09927   0.59331   0.00000  Uiso   1.00
O223   O     0.11618   0.84060   0.00587   0.00000  Uiso   1.00
O224   O     0.17327   0.56040   0.54191   0.00000  Uiso   1.00
N225   N     0.73579   0.99557   0.64625   0.00000  Uiso   1.00
N226   N     0.03506   0.81126   0.94025   0.00000  Uiso   1.00
N227   N     0.07575   0.61158   0.60965   0.00000  Uiso   1.00
N228   N     0.82850   0.05013   0.60951   0.00000  Uiso   1.00
N229   N     0.12776   0.86582   0.90352   0.00000  Uiso   1.00
N230   N     0.16846   0.66614   0.57291   0.00000  Uiso   1.00
C231   C     0.79677   0.70423   0.98241   0.00000  Uiso   1.00
C232   C     0.87338   0.67159   0.94896   0.00000  Uiso   1.00
C233   C     0.88083   0.65767   0.89009   0.00000  Uiso   1.00
C234   C     0.95601   0.62767   0.86768   0.00000  Uiso   1.00
C235   C     0.06503   0.57938   0.81037   0.00000  Uiso   1.00
C236   C     0.81488   0.76579   0.00639   0.00000  Uiso   1.00
C237   C     0.77315   0.83106   0.99582   0.00000  Uiso   1.00
C238   C     0.79908   0.88035   0.02178   0.00000  Uiso   1.00
C239   C     0.81725   0.97829   0.05367   0.00000  Uiso   1.00
C240   C     0.78445   0.65577   0.03635   0.00000  Uiso   1.00
C241   C     0.71712   0.62856   0.05098   0.00000  Uiso   1.00
C242   C     0.71742   0.58524   0.10216   0.00000  Uiso   1.00
C243   C     0.68835   0.51237   0.18056   0.00000  Uiso   1.00
C244   C     0.91701   0.67571   0.04730   0.00000  Uiso   1.00
C245   C     0.93869   0.65611   0.98420   0.00000  Uiso   1.00
C246   C     0.01387   0.62612   0.96188   0.00000  Uiso   1.00
C247   C     0.02144   0.61215   0.90299   0.00000  Uiso   1.00
C248   C     0.88019   0.75030   0.04164   0.00000  Uiso   1.00
C249   C     0.90618   0.79951   0.06762   0.00000  Uiso   1.00
C250   C     0.86451   0.86484   0.05709   0.00000  Uiso   1.00
C251   C     0.84976   0.64028   0.07159   0.00000  Uiso   1.00
C252   C     0.85017   0.59700   0.12277   0.00000  Uiso   1.00
C253   C     0.78285   0.56972   0.13747   0.00000  Uiso   1.00
H254   H     0.74592   0.71629   0.95497   0.00000  Uiso   1.00
H255   H     0.83027   0.66967   0.86282   0.00000  Uiso   1.00
H256   H     0.72260   0.84303   0.96855   0.00000  Uiso   1.00
H257   H     0.66659   0.64055   0.02369   0.00000  Uiso   1.00
H258   H     0.95261   0.61117   0.77620   0.00000  Uiso   1.00
H259   H     0.72556   0.97670   0.99915   0.00000  Uiso   1.00
H260   H     0.60744   0.54975   0.11542   0.00000  Uiso   1.00
H261   H     0.96786   0.66366   0.07474   0.00000  Uiso   1.00
H262   H     0.06440   0.61414   0.98917   0.00000  Uiso   1.00
H263   H     0.95673   0.78750   0.09489   0.00000  Uiso   1.00
H264   H     0.90072   0.58503   0.15003   0.00000  Uiso   1.00
H265   H     0.14264   0.56610   0.87875   0.00000  Uiso   1.00
H266   H     0.91558   0.93164   0.10170   0.00000  Uiso   1.00
H267   H     0.79747   0.50468   0.21797   0.00000  Uiso   1.00
O268   O     0.10713   0.55703   0.76902   0.00000  Uiso   1.00
O269   O     0.80924   0.03660   0.06152   0.00000  Uiso   1.00
O270   O     0.65428   0.47644   0.21406   0.00000  Uiso   1.00
N271   N     0.98408   0.60734   0.81208   0.00000  Uiso   1.00
N272   N     0.77181   0.94910   0.02052   0.00000  Uiso   1.00
N273   N     0.66137   0.54995   0.12923   0.00000  Uiso   1.00
N274   N     0.08633   0.58309   0.86726   0.00000  Uiso   1.00
N275   N     0.87406   0.92485   0.07570   0.00000  Uiso   1.00
N276   N     0.76363   0.52570   0.18441   0.00000  Uiso   1.00
C277   C     0.80710   0.67844   0.60388   0.00000  Uiso   1.00
C278   C     0.84960   0.61210   0.63376   0.00000  Uiso   1.00
C279   C     0.84739   0.59378   0.69426   0.00000  Uiso   1.00
C280   C     0.89028   0.53090   0.71277   0.00000  Uiso   1.00
C281   C     0.94962   0.43441   0.76533   0.00000  Uiso   1.00
C282   C     0.75499   0.66052   0.55961   0.00000  Uiso   1.00
C283   C     0.67324   0.68291   0.55776   0.00000  Uiso   1.00
C284   C     0.63648   0.66080   0.51385   0.00000  Uiso   1.00
C285   C     0.54896   0.63951   0.45127   0.00000  Uiso   1.00
C286   C     0.87158   0.70852   0.56709   0.00000  Uiso   1.00
C287   C     0.88784   0.77127   0.57152   0.00000  Uiso   1.00
C288   C     0.94923   0.78957   0.53390   0.00000  Uiso   1.00
C289   C     0.04272   0.84282   0.48293   0.00000  Uiso   1.00
C290   C     0.88719   0.59937   0.52918   0.00000  Uiso   1.00
C291   C     0.89310   0.56915   0.59318   0.00000  Uiso   1.00
C292   C     0.93601   0.50629   0.61160   0.00000  Uiso   1.00
C293   C     0.93386   0.48787   0.67212   0.00000  Uiso   1.00
C294   C     0.79849   0.61757   0.51903   0.00000  Uiso   1.00
C295   C     0.76185   0.59542   0.47511   0.00000  Uiso   1.00
C296   C     0.68006   0.61777   0.47320   0.00000  Uiso   1.00
C297   C     0.91508   0.66557   0.52651   0.00000  Uiso   1.00
C298   C     0.97645   0.68378   0.48887   0.00000  Uiso   1.00
C299   C     0.99281   0.74655   0.49325   0.00000  Uiso   1.00
H300   H     0.77322   0.71188   0.63547   0.00000  Uiso   1.00
H301   H     0.81371   0.62703   0.72565   0.00000  Uiso   1.00
H302   H     0.63959   0.71615   0.58917   0.00000  Uiso   1.00
H303   H     0.85416   0.80449   0.60293   0.00000  Uiso   1.00
H304   H     0.87776   0.51400   0.80772   0.00000  Uiso   1.00
H305   H     0.51062   0.70194   0.51994   0.00000  Uiso   1.00
H306   H     0.96308   0.88823   0.54896   0.00000  Uiso   1.00
H307   H     0.92106   0.56593   0.49758   0.00000  Uiso   1.00
H308   H     0.96966   0.47307   0.58019   0.00000  Uiso   1.00
H309   H     0.79554   0.56219   0.44371   0.00000  Uiso   1.00
H310   H     0.01011   0.65053   0.45747   0.00000  Uiso   1.00
H311   H     0.00434   0.38904   0.68967   0.00000  Uiso   1.00
H312   H     0.63719   0.57698   0.40188   0.00000  Uiso   1.00
H313   H     0.08965   0.76327   0.43090   0.00000  Uiso   1.00
O314   O     0.97033   0.39305   0.80552   0.00000  Uiso   1.00
O315   O     0.48866   0.63963   0.42796   0.00000  Uiso   1.00
O316   O     0.08228   0.88404   0.46603   0.00000  Uiso   1.00
N317   N     0.90089   0.49734   0.76860   0.00000  Uiso   1.00
N318   N     0.55763   0.67304   0.49955   0.00000  Uiso   1.00
N319   N     0.98063   0.84722   0.52667   0.00000  Uiso   1.00
N320   N     0.96900   0.43010   0.70508   0.00000  Uiso   1.00
N321   N     0.62574   0.60580   0.43602   0.00000  Uiso   1.00
N322   N     0.04874   0.77998   0.46314   0.00000  Uiso   1.00
C323   C     0.41338   0.82303   0.65391   0.00000  Uiso   1.00
C324   C     0.48239   0.83844   0.61165   0.00000  Uiso   1.00
C325   C     0.55462   0.84829   0.62812   0.00000  Uiso   1.00
C326   C     0.61006   0.86183   0.58279   0.00000  Uiso   1.00
C327   C     0.71970   0.88519   0.52624   0.00000  Uiso   1.00
C328   C     0.39606   0.75787   0.63661   0.00000  Uiso   1.00
C329   C     0.39570   0.69997   0.67407   0.00000  Uiso   1.00
C330   C     0.37846   0.64569   0.64975   0.00000  Uiso   1.00
C331   C     0.35402   0.54396   0.63196   0.00000  Uiso   1.00
C332   C     0.34115   0.87727   0.63825   0.00000  Uiso   1.00
C333   C     0.29459   0.91976   0.67708   0.00000  Uiso   1.00
C334   C     0.23110   0.96600   0.65414   0.00000  Uiso   1.00
C335   C     0.12140   0.04966   0.63889   0.00000  Uiso   1.00
C336   C     0.38340   0.82958   0.54414   0.00000  Uiso   1.00
C337   C     0.46610   0.84200   0.55203   0.00000  Uiso   1.00
C338   C     0.52144   0.85553   0.50666   0.00000  Uiso   1.00
C339   C     0.59374   0.86540   0.52306   0.00000  Uiso   1.00
C340   C     0.37978   0.76142   0.57699   0.00000  Uiso   1.00
C341   C     0.36252   0.70721   0.55261   0.00000  Uiso   1.00
C342   C     0.36214   0.64924   0.59002   0.00000  Uiso   1.00
C343   C     0.32486   0.88083   0.57862   0.00000  Uiso   1.00
C344   C     0.26142   0.92700   0.55562   0.00000  Uiso   1.00
C345   C     0.21478   0.96956   0.59441   0.00000  Uiso   1.00
H346   H     0.42606   0.82026   0.70033   0.00000  Uiso   1.00
H347   H     0.56720   0.84553   0.67427   0.00000  Uiso   1.00
H348   H     0.40830   0.69724   0.72021   0.00000  Uiso   1.00
H349   H     0.30721   0.91699   0.72321   0.00000  Uiso   1.00
H350   H     0.71651   0.87509   0.61907   0.00000  Uiso   1.00
H351   H     0.38143   0.56241   0.71594   0.00000  Uiso   1.00
H352   H     0.16827   0.02581   0.72229   0.00000  Uiso   1.00
H353   H     0.37071   0.83234   0.49771   0.00000  Uiso   1.00
H354   H     0.50882   0.85828   0.46053   0.00000  Uiso   1.00
H355   H     0.34992   0.70998   0.50647   0.00000  Uiso   1.00
H356   H     0.24883   0.92974   0.50948   0.00000  Uiso   1.00
H357   H     0.66913   0.88543   0.44559   0.00000  Uiso   1.00
H358   H     0.33404   0.57275   0.54247   0.00000  Uiso   1.00
H359   H     0.12088   0.03615   0.54881   0.00000  Uiso   1.00
O360   O     0.78468   0.89708   0.51152   0.00000  Uiso   1.00
O361   O     0.34505   0.48686   0.63862   0.00000  Uiso   1.00
O362   O     0.06539   0.09483   0.64694   0.00000  Uiso   1.00
N363   N     0.68640   0.87397   0.58335   0.00000  Uiso   1.00
N364   N     0.37313   0.58163   0.67391   0.00000  Uiso   1.00
N365   N     0.17383   0.01486   0.67985   0.00000  Uiso   1.00
N366   N     0.66091   0.87954   0.49000   0.00000  Uiso   1.00
N367   N     0.34764   0.58720   0.58057   0.00000  Uiso   1.00
N368   N     0.14833   0.02043   0.58650   0.00000  Uiso   1.00
C369   C     0.62384   0.61371   0.79798   0.00000  Uiso   1.00
C370   C     0.54158   0.65713   0.80995   0.00000  Uiso   1.00
C371   C     0.52382   0.72657   0.80630   0.00000  Uiso   1.00
C372   C     0.44493   0.75695   0.81894   0.00000  Uiso   1.00
C373   C     0.32617   0.83012   0.83511   0.00000  Uiso   1.00
C374   C     0.61495   0.56972   0.74991   0.00000  Uiso   1.00
C375   C     0.65889   0.56566   0.69579   0.00000  Uiso   1.00
C376   C     0.64177   0.52245   0.65789   0.00000  Uiso   1.00
C377   C     0.63696   0.45987   0.58087   0.00000  Uiso   1.00
C378   C     0.64061   0.56663   0.85390   0.00000  Uiso   1.00
C379   C     0.70614   0.55996   0.88720   0.00000  Uiso   1.00
C380   C     0.71063   0.51413   0.93685   0.00000  Uiso   1.00
C381   C     0.74566   0.44675   0.02128   0.00000  Uiso   1.00
C382   C     0.51532   0.54417   0.82692   0.00000  Uiso   1.00
C383   C     0.48264   0.61935   0.82567   0.00000  Uiso   1.00
C384   C     0.40376   0.64964   0.83832   0.00000  Uiso   1.00
C385   C     0.38588   0.71912   0.83469   0.00000  Uiso   1.00
C386   C     0.55602   0.53195   0.76563   0.00000  Uiso   1.00
C387   C     0.53883   0.48873   0.72781   0.00000  Uiso   1.00
C388   C     0.58273   0.48461   0.67364   0.00000  Uiso   1.00
C389   C     0.58167   0.52885   0.86962   0.00000  Uiso   1.00
C390   C     0.58607   0.48302   0.91922   0.00000  Uiso   1.00
C391   C     0.65159   0.47629   0.95259   0.00000  Uiso   1.00
H392   H     0.66973   0.64311   0.78574   0.00000  Uiso   1.00
H393   H     0.56945   0.75579   0.79413   0.00000  Uiso   1.00
H394   H     0.70451   0.59489   0.68364   0.00000  Uiso   1.00
H395   H     0.75174   0.58919   0.87502   0.00000  Uiso   1.00
H396   H     0.43227   0.86405   0.81034   0.00000  Uiso   1.00
H397   H     0.71707   0.52478   0.57737   0.00000  Uiso   1.00
H398   H     0.81667   0.51276   0.98095   0.00000  Uiso   1.00
H399   H     0.46943   0.51476   0.83916   0.00000  Uiso   1.00
H400   H     0.35816   0.62039   0.85048   0.00000  Uiso   1.00
H401   H     0.49322   0.45950   0.73999   0.00000  Uiso   1.00
H402   H     0.54045   0.45380   0.93137   0.00000  Uiso   1.00
H403   H     0.26078   0.75416   0.85608   0.00000  Uiso   1.00
H404   H     0.54558   0.41489   0.62311   0.00000  Uiso   1.00
H405   H     0.64518   0.40287   0.02668   0.00000  Uiso   1.00
O406   O     0.27694   0.88091   0.83967   0.00000  Uiso   1.00
O407   O     0.65059   0.43580   0.53404   0.00000  Uiso   1.00
O408   O     0.78126   0.42003   0.06351   0.00000  Uiso   1.00
N409   N     0.40719   0.82369   0.81956   0.00000  Uiso   1.00
N410   N     0.67344   0.50650   0.60175   0.00000  Uiso   1.00
N411   N     0.76657   0.49525   0.97904   0.00000  Uiso   1.00
N412   N     0.31491   0.76456   0.84417   0.00000  Uiso   1.00
N413   N     0.58117   0.44737   0.62636   0.00000  Uiso   1.00
N414   N     0.67430   0.43612   0.00366   0.00000  Uiso   1.00
C415   C     0.34584   0.08697   0.17992   0.00000  Uiso   1.00
C416   C     0.38491   0.12041   0.12546   0.00000  Uiso   1.00
C417   C     0.38205   0.18862   0.11369   0.00000  Uiso   1.00
C418   C     0.42162   0.20926   0.06145   0.00000  Uiso   1.00
C419   C     0.47602   0.26817   0.98281   0.00000  Uiso   1.00
C420   C     0.29177   0.04674   0.15657   0.00000  Uiso   1.00
C421   C     0.21060   0.05301   0.17097   0.00000  Uiso   1.00
C422   C     0.17177   0.01162   0.14493   0.00000  Uiso   1.00
C423   C     0.08158   0.95614   0.11463   0.00000  Uiso   1.00
C424   C     0.41249   0.03574   0.20850   0.00000  Uiso   1.00
C425   C     0.43281   0.03276   0.26657   0.00000  Uiso   1.00
C426   C     0.49561   0.98210   0.28425   0.00000  Uiso   1.00
C427   C     0.59285   0.90954   0.33457   0.00000  Uiso   1.00
C428   C     0.42121   0.00230   0.10808   0.00000  Uiso   1.00
C429   C     0.42585   0.07441   0.08644   0.00000  Uiso   1.00
C430   C     0.46544   0.09495   0.03421   0.00000  Uiso   1.00
C431   C     0.46264   0.16318   0.02236   0.00000  Uiso   1.00
C432   C     0.33270   0.00075   0.11755   0.00000  Uiso   1.00
C433   C     0.29399   0.95934   0.09149   0.00000  Uiso   1.00
C434   C     0.21278   0.96555   0.10584   0.00000  Uiso   1.00
C435   C     0.45343   0.98975   0.16948   0.00000  Uiso   1.00
C436   C     0.51620   0.93908   0.18708   0.00000  Uiso   1.00
C437   C     0.53662   0.93602   0.24516   0.00000  Uiso   1.00
H438   H     0.31396   0.12277   0.21030   0.00000  Uiso   1.00
H439   H     0.35035   0.22420   0.14390   0.00000  Uiso   1.00
H440   H     0.17893   0.08860   0.20118   0.00000  Uiso   1.00
H441   H     0.40111   0.06836   0.29675   0.00000  Uiso   1.00
H442   H     0.40873   0.31637   0.05306   0.00000  Uiso   1.00
H443   H     0.04728   0.03045   0.17385   0.00000  Uiso   1.00
H444   H     0.51579   0.98774   0.37539   0.00000  Uiso   1.00
H445   H     0.45309   0.96649   0.07770   0.00000  Uiso   1.00
H446   H     0.49711   0.05934   0.00402   0.00000  Uiso   1.00
H447   H     0.32569   0.92375   0.06130   0.00000  Uiso   1.00
H448   H     0.54787   0.90350   0.15687   0.00000  Uiso   1.00
H449   H     0.52784   0.18257   0.93952   0.00000  Uiso   1.00
H450   H     0.16639   0.89664   0.06032   0.00000  Uiso   1.00
H451   H     0.63490   0.85394   0.26185   0.00000  Uiso   1.00
O452   O     0.49471   0.31337   0.95020   0.00000  Uiso   1.00
O453   O     0.02052   0.93824   0.10869   0.00000  Uiso   1.00
O454   O     0.63519   0.88222   0.37310   0.00000  Uiso   1.00
N455   N     0.43073   0.27214   0.03646   0.00000  Uiso   1.00
N456   N     0.09280   0.00482   0.14938   0.00000  Uiso   1.00
N457   N     0.53080   0.96489   0.33781   0.00000  Uiso   1.00
N458   N     0.49483   0.20014   0.97536   0.00000  Uiso   1.00
N459   N     0.15689   0.93282   0.08829   0.00000  Uiso   1.00
N460   N     0.59490   0.89289   0.27672   0.00000  Uiso   1.00
C461   C     0.05931   0.19866   0.26475   0.00000  Uiso   1.00
C462   C     0.09313   0.13180   0.29826   0.00000  Uiso   1.00
C463   C     0.17319   0.10597   0.30597   0.00000  Uiso   1.00
C464   C     0.19198   0.04398   0.33801   0.00000  Uiso   1.00
C465   C     0.25350   0.94546   0.38646   0.00000  Uiso   1.00
C466   C     0.01065   0.18259   0.21723   0.00000  Uiso   1.00
C467   C     0.02138   0.19947   0.15681   0.00000  Uiso   1.00
C468   C     0.97073   0.18024   0.12064   0.00000  Uiso   1.00
C469   C     0.90416   0.16061   0.04328   0.00000  Uiso   1.00
C470   C     0.99945   0.23761   0.30835   0.00000  Uiso   1.00
C471   C     0.00073   0.30077   0.32453   0.00000  Uiso   1.00
C472   C     0.94064   0.32788   0.36508   0.00000  Uiso   1.00
C473   C     0.85668   0.39368   0.42920   0.00000  Uiso   1.00
C474   C     0.95029   0.13450   0.30795   0.00000  Uiso   1.00
C475   C     0.03391   0.09695   0.32173   0.00000  Uiso   1.00
C476   C     0.05258   0.03499   0.35377   0.00000  Uiso   1.00
C477   C     0.13266   0.00907   0.36152   0.00000  Uiso   1.00
C478   C     0.95144   0.14774   0.24069   0.00000  Uiso   1.00
C479   C     0.90076   0.12849   0.20461   0.00000  Uiso   1.00
C480   C     0.91140   0.14533   0.14415   0.00000  Uiso   1.00
C481   C     0.94023   0.20276   0.33182   0.00000  Uiso   1.00
C482   C     0.88012   0.22978   0.37234   0.00000  Uiso   1.00
C483   C     0.88132   0.29297   0.38858   0.00000  Uiso   1.00
H484   H     0.10541   0.22579   0.24648   0.00000  Uiso   1.00
H485   H     0.21901   0.13295   0.28780   0.00000  Uiso   1.00
H486   H     0.06720   0.22645   0.13866   0.00000  Uiso   1.00
H487   H     0.04657   0.32773   0.30637   0.00000  Uiso   1.00
H488   H     0.31883   0.01465   0.34395   0.00000  Uiso   1.00
H489   H     0.99873   0.21180   0.02948   0.00000  Uiso   1.00
H490   H     0.95522   0.42538   0.38312   0.00000  Uiso   1.00
H491   H     0.90418   0.10736   0.32622   0.00000  Uiso   1.00
H492   H     0.00674   0.00803   0.37192   0.00000  Uiso   1.00
H493   H     0.85494   0.10152   0.22278   0.00000  Uiso   1.00
H494   H     0.83430   0.20280   0.39049   0.00000  Uiso   1.00
H495   H     0.14655   0.91325   0.41222   0.00000  Uiso   1.00
H496   H     0.82644   0.11041   0.09775   0.00000  Uiso   1.00
H497   H     0.78293   0.32398   0.45139   0.00000  Uiso   1.00
O498   O     0.30378   0.90073   0.40669   0.00000  Uiso   1.00
O499   O     0.88382   0.15940   0.99413   0.00000  Uiso   1.00
O500   O     0.82673   0.43960   0.45809   0.00000  Uiso   1.00
N501   N     0.26421   0.00443   0.35375   0.00000  Uiso   1.00
N502   N     0.96494   0.18874   0.05975   0.00000  Uiso   1.00
N503   N     0.92425   0.38842   0.39035   0.00000  Uiso   1.00
N504   N     0.17150   0.94987   0.39049   0.00000  Uiso   1.00
N505   N     0.87224   0.13418   0.09648   0.00000  Uiso   1.00
N506   N     0.83154   0.33386   0.42709   0.00000  Uiso   1.00
C507   C     0.20323   0.29577   0.01759   0.00000  Uiso   1.00
C508   C     0.12662   0.32841   0.05104   0.00000  Uiso   1.00
C509   C     0.11917   0.34233   0.10991   0.00000  Uiso   1.00
C510   C     0.04399   0.37233   0.13232   0.00000  Uiso   1.00
C511   C     0.93497   0.42062   0.18963   0.00000  Uiso   1.00
C512   C     0.18512   0.23421   0.99361   0.00000  Uiso   1.00
C513   C     0.22685   0.16894   0.00418   0.00000  Uiso   1.00
C514   C     0.20092   0.11965   0.97822   0.00000  Uiso   1.00
C515   C     0.18275   0.02171   0.94633   0.00000  Uiso   1.00
C516   C     0.21555   0.34423   0.96365   0.00000  Uiso   1.00
C517   C     0.28288   0.37144   0.94902   0.00000  Uiso   1.00
C518   C     0.28258   0.41476   0.89784   0.00000  Uiso   1.00
C519   C     0.31165   0.48763   0.81944   0.00000  Uiso   1.00
C520   C     0.08299   0.32429   0.95270   0.00000  Uiso   1.00
C521   C     0.06131   0.34389   0.01580   0.00000  Uiso   1.00
C522   C     0.98613   0.37388   0.03812   0.00000  Uiso   1.00
C523   C     0.97856   0.38785   0.09701   0.00000  Uiso   1.00
C524   C     0.11981   0.24970   0.95836   0.00000  Uiso   1.00
C525   C     0.09382   0.20049   0.93238   0.00000  Uiso   1.00
C526   C     0.13549   0.13516   0.94291   0.00000  Uiso   1.00
C527   C     0.15024   0.35972   0.92841   0.00000  Uiso   1.00
C528   C     0.14983   0.40300   0.87723   0.00000  Uiso   1.00
C529   C     0.21715   0.43028   0.86253   0.00000  Uiso   1.00
H530   H     0.25408   0.28371   0.04503   0.00000  Uiso   1.00
H531   H     0.16973   0.33033   0.13718   0.00000  Uiso   1.00
H532   H     0.27740   0.15697   0.03145   0.00000  Uiso   1.00
H533   H     0.33341   0.35945   0.97631   0.00000  Uiso   1.00
H534   H     0.04739   0.38883   0.22380   0.00000  Uiso   1.00
H535   H     0.27444   0.02330   0.00085   0.00000  Uiso   1.00
H536   H     0.39256   0.45025   0.88458   0.00000  Uiso   1.00
H537   H     0.03214   0.33634   0.92526   0.00000  Uiso   1.00
H538   H     0.93560   0.38586   0.01083   0.00000  Uiso   1.00
H539   H     0.04327   0.21250   0.90511   0.00000  Uiso   1.00
H540   H     0.09928   0.41497   0.84997   0.00000  Uiso   1.00
H541   H     0.85736   0.43390   0.12125   0.00000  Uiso   1.00
H542   H     0.08442   0.06836   0.89830   0.00000  Uiso   1.00
H543   H     0.20253   0.49532   0.78203   0.00000  Uiso   1.00
O544   O     0.89287   0.44297   0.23098   0.00000  Uiso   1.00
O545   O     0.19076   0.96340   0.93848   0.00000  Uiso   1.00
O546   O     0.34572   0.52356   0.78594   0.00000  Uiso   1.00
N547   N     0.01592   0.39266   0.18792   0.00000  Uiso   1.00
N548   N     0.22819   0.05090   0.97948   0.00000  Uiso   1.00
N549   N     0.33863   0.45005   0.87077   0.00000  Uiso   1.00
N550   N     0.91367   0.41691   0.13274   0.00000  Uiso   1.00
N551   N     0.12594   0.07515   0.92430   0.00000  Uiso   1.00
N552   N     0.23637   0.47430   0.81559   0.00000  Uiso   1.00
