data_job_03564
_audit_creation_date              2018-12-19
_audit_creation_method            'Materials Studio'
_symmetry_space_group_name_H-M    'P1'
_symmetry_Int_Tables_number       1
_symmetry_cell_setting            triclinic
loop_
_symmetry_equiv_pos_as_xyz
  x,y,z
_cell_length_a                    31.1642
_cell_length_b                    7.4439
_cell_length_c                    22.8836
_cell_angle_alpha                 90.0000
_cell_angle_beta                  90.0000
_cell_angle_gamma                 90.0000
loop_
_atom_site_label
_atom_site_type_symbol
_atom_site_fract_x
_atom_site_fract_y
_atom_site_fract_z
_atom_site_U_iso_or_equiv
_atom_site_adp_type
_atom_site_occupancy
C1     C     0.58749   0.22944   0.36603   0.00000  Uiso   1.00
C2     C     0.61140   0.28978   0.42076   0.00000  Uiso   1.00
C3     C     0.61468   0.19342   0.47248   0.00000  Uiso   1.00
C4     C     0.63796   0.27182   0.51748   0.00000  Uiso   1.00
C5     C     0.67214   0.33990   0.60346   0.00000  Uiso   1.00
C6     C     0.55517   0.37754   0.35254   0.00000  Uiso   1.00
C7     C     0.51116   0.35495   0.34689   0.00000  Uiso   1.00
C8     C     0.48710   0.50722   0.33446   0.00000  Uiso   1.00
C9     C     0.43398   0.71152   0.31448   0.00000  Uiso   1.00
C10    C     0.62024   0.23384   0.31655   0.00000  Uiso   1.00
C11    C     0.63094   0.09044   0.28063   0.00000  Uiso   1.00
C12    C     0.66166   0.12173   0.23789   0.00000  Uiso   1.00
C13    C     0.70957   0.10291   0.16204   0.00000  Uiso   1.00
C14    C     0.62302   0.54002   0.35398   0.00000  Uiso   1.00
C15    C     0.63070   0.45848   0.41421   0.00000  Uiso   1.00
C16    C     0.65399   0.53704   0.45914   0.00000  Uiso   1.00
C17    C     0.65730   0.44081   0.51092   0.00000  Uiso   1.00
C18    C     0.57447   0.54623   0.34599   0.00000  Uiso   1.00
C19    C     0.55047   0.69857   0.33355   0.00000  Uiso   1.00
C20    C     0.50644   0.67622   0.32790   0.00000  Uiso   1.00
C21    C     0.63954   0.40253   0.31000   0.00000  Uiso   1.00
C22    C     0.67025   0.43406   0.26730   0.00000  Uiso   1.00
C23    C     0.68100   0.29074   0.23133   0.00000  Uiso   1.00
H24    H     0.57246   0.09811   0.37113   0.00000  Uiso   1.00
H25    H     0.59973   0.06288   0.47753   0.00000  Uiso   1.00
H26    H     0.49623   0.22438   0.35196   0.00000  Uiso   1.00
H27    H     0.61599   0.95992   0.28572   0.00000  Uiso   1.00
H28    H     0.63847   0.09825   0.59262   0.00000  Uiso   1.00
H29    H     0.42023   0.43877   0.32782   0.00000  Uiso   1.00
H30    H     0.67277   0.88109   0.18813   0.00000  Uiso   1.00
H31    H     0.63805   0.67136   0.34888   0.00000  Uiso   1.00
H32    H     0.66892   0.66759   0.45406   0.00000  Uiso   1.00
H33    H     0.56542   0.82909   0.32849   0.00000  Uiso   1.00
H34    H     0.68518   0.56462   0.26224   0.00000  Uiso   1.00
H35    H     0.69462   0.58906   0.57357   0.00000  Uiso   1.00
H36    H     0.47638   0.92958   0.30877   0.00000  Uiso   1.00
H37    H     0.72893   0.37189   0.16908   0.00000  Uiso   1.00
O38    O     0.68566   0.33086   0.65269   0.00000  Uiso   1.00
O39    O     0.39934   0.77760   0.30528   0.00000  Uiso   1.00
O40    O     0.73067   0.04593   0.12201   0.00000  Uiso   1.00
N41    N     0.64745   0.21427   0.57369   0.00000  Uiso   1.00
N42    N     0.44341   0.53264   0.32613   0.00000  Uiso   1.00
N43    N     0.67951   0.01126   0.19553   0.00000  Uiso   1.00
N44    N     0.67767   0.47836   0.56344   0.00000  Uiso   1.00
N45    N     0.47363   0.79673   0.31588   0.00000  Uiso   1.00
N46    N     0.70973   0.27536   0.18527   0.00000  Uiso   1.00
C47    C     0.91251   0.27056   0.86603   0.00000  Uiso   1.00
C48    C     0.88860   0.21022   0.92076   0.00000  Uiso   1.00
C49    C     0.88532   0.30658   0.97248   0.00000  Uiso   1.00
C50    C     0.86204   0.22818   0.01748   0.00000  Uiso   1.00
C51    C     0.82786   0.16010   0.10346   0.00000  Uiso   1.00
C52    C     0.94483   0.12246   0.85254   0.00000  Uiso   1.00
C53    C     0.98884   0.14505   0.84689   0.00000  Uiso   1.00
C54    C     0.01290   0.99278   0.83446   0.00000  Uiso   1.00
C55    C     0.06602   0.78848   0.81448   0.00000  Uiso   1.00
C56    C     0.87976   0.26616   0.81655   0.00000  Uiso   1.00
C57    C     0.86906   0.40956   0.78063   0.00000  Uiso   1.00
C58    C     0.83834   0.37827   0.73789   0.00000  Uiso   1.00
C59    C     0.79043   0.39709   0.66204   0.00000  Uiso   1.00
C60    C     0.87698   0.95998   0.85398   0.00000  Uiso   1.00
C61    C     0.86930   0.04152   0.91421   0.00000  Uiso   1.00
C62    C     0.84601   0.96296   0.95914   0.00000  Uiso   1.00
C63    C     0.84270   0.05919   0.01092   0.00000  Uiso   1.00
C64    C     0.92553   0.95377   0.84599   0.00000  Uiso   1.00
C65    C     0.94953   0.80143   0.83355   0.00000  Uiso   1.00
C66    C     0.99356   0.82378   0.82790   0.00000  Uiso   1.00
C67    C     0.86046   0.09747   0.81000   0.00000  Uiso   1.00
C68    C     0.82975   0.06594   0.76730   0.00000  Uiso   1.00
C69    C     0.81900   0.20926   0.73133   0.00000  Uiso   1.00
H70    H     0.92754   0.40189   0.87113   0.00000  Uiso   1.00
H71    H     0.90027   0.43712   0.97753   0.00000  Uiso   1.00
H72    H     0.00377   0.27562   0.85196   0.00000  Uiso   1.00
H73    H     0.88401   0.54008   0.78572   0.00000  Uiso   1.00
H74    H     0.86153   0.40175   0.09262   0.00000  Uiso   1.00
H75    H     0.07977   0.06123   0.82782   0.00000  Uiso   1.00
H76    H     0.82723   0.61891   0.68813   0.00000  Uiso   1.00
H77    H     0.86195   0.82864   0.84888   0.00000  Uiso   1.00
H78    H     0.83108   0.83241   0.95406   0.00000  Uiso   1.00
H79    H     0.93458   0.67091   0.82849   0.00000  Uiso   1.00
H80    H     0.81482   0.93538   0.76224   0.00000  Uiso   1.00
H81    H     0.80538   0.91094   0.07357   0.00000  Uiso   1.00
H82    H     0.02362   0.57042   0.80877   0.00000  Uiso   1.00
H83    H     0.77107   0.12811   0.66908   0.00000  Uiso   1.00
O84    O     0.81434   0.16914   0.15269   0.00000  Uiso   1.00
O85    O     0.10066   0.72240   0.80528   0.00000  Uiso   1.00
O86    O     0.76933   0.45407   0.62201   0.00000  Uiso   1.00
N87    N     0.85255   0.28573   0.07369   0.00000  Uiso   1.00
N88    N     0.05659   0.96736   0.82613   0.00000  Uiso   1.00
N89    N     0.82049   0.48874   0.69553   0.00000  Uiso   1.00
N90    N     0.82233   0.02164   0.06344   0.00000  Uiso   1.00
N91    N     0.02637   0.70327   0.81588   0.00000  Uiso   1.00
N92    N     0.79027   0.22464   0.68527   0.00000  Uiso   1.00
C93    C     0.41251   0.22944   0.13397   0.00000  Uiso   1.00
C94    C     0.38860   0.28978   0.07924   0.00000  Uiso   1.00
C95    C     0.38532   0.19342   0.02752   0.00000  Uiso   1.00
C96    C     0.36204   0.27182   0.98252   0.00000  Uiso   1.00
C97    C     0.32786   0.33990   0.89654   0.00000  Uiso   1.00
C98    C     0.44483   0.37754   0.14746   0.00000  Uiso   1.00
C99    C     0.48884   0.35495   0.15311   0.00000  Uiso   1.00
C100   C     0.51290   0.50722   0.16554   0.00000  Uiso   1.00
C101   C     0.56602   0.71152   0.18552   0.00000  Uiso   1.00
C102   C     0.37976   0.23384   0.18345   0.00000  Uiso   1.00
C103   C     0.36906   0.09044   0.21937   0.00000  Uiso   1.00
C104   C     0.33834   0.12173   0.26211   0.00000  Uiso   1.00
C105   C     0.29043   0.10291   0.33796   0.00000  Uiso   1.00
C106   C     0.37698   0.54002   0.14602   0.00000  Uiso   1.00
C107   C     0.36930   0.45848   0.08579   0.00000  Uiso   1.00
C108   C     0.34601   0.53704   0.04086   0.00000  Uiso   1.00
C109   C     0.34270   0.44081   0.98908   0.00000  Uiso   1.00
C110   C     0.42553   0.54623   0.15401   0.00000  Uiso   1.00
C111   C     0.44953   0.69857   0.16645   0.00000  Uiso   1.00
C112   C     0.49356   0.67622   0.17210   0.00000  Uiso   1.00
C113   C     0.36046   0.40253   0.19000   0.00000  Uiso   1.00
C114   C     0.32975   0.43406   0.23270   0.00000  Uiso   1.00
C115   C     0.31900   0.29074   0.26867   0.00000  Uiso   1.00
H116   H     0.42754   0.09811   0.12887   0.00000  Uiso   1.00
H117   H     0.40027   0.06288   0.02247   0.00000  Uiso   1.00
H118   H     0.50377   0.22438   0.14804   0.00000  Uiso   1.00
H119   H     0.38401   0.95992   0.21428   0.00000  Uiso   1.00
H120   H     0.36153   0.09825   0.90738   0.00000  Uiso   1.00
H121   H     0.57977   0.43877   0.17218   0.00000  Uiso   1.00
H122   H     0.32723   0.88109   0.31187   0.00000  Uiso   1.00
H123   H     0.36195   0.67136   0.15112   0.00000  Uiso   1.00
H124   H     0.33108   0.66759   0.04594   0.00000  Uiso   1.00
H125   H     0.43458   0.82909   0.17151   0.00000  Uiso   1.00
H126   H     0.31482   0.56462   0.23776   0.00000  Uiso   1.00
H127   H     0.30538   0.58906   0.92643   0.00000  Uiso   1.00
H128   H     0.52362   0.92958   0.19123   0.00000  Uiso   1.00
H129   H     0.27107   0.37189   0.33092   0.00000  Uiso   1.00
O130   O     0.31434   0.33086   0.84731   0.00000  Uiso   1.00
O131   O     0.60066   0.77760   0.19472   0.00000  Uiso   1.00
O132   O     0.26933   0.04593   0.37799   0.00000  Uiso   1.00
N133   N     0.35255   0.21427   0.92631   0.00000  Uiso   1.00
N134   N     0.55659   0.53264   0.17387   0.00000  Uiso   1.00
N135   N     0.32049   0.01126   0.30447   0.00000  Uiso   1.00
N136   N     0.32233   0.47836   0.93656   0.00000  Uiso   1.00
N137   N     0.52637   0.79673   0.18412   0.00000  Uiso   1.00
N138   N     0.29027   0.27536   0.31473   0.00000  Uiso   1.00
C139   C     0.08749   0.27056   0.63397   0.00000  Uiso   1.00
C140   C     0.11140   0.21022   0.57924   0.00000  Uiso   1.00
C141   C     0.11468   0.30658   0.52752   0.00000  Uiso   1.00
C142   C     0.13796   0.22818   0.48252   0.00000  Uiso   1.00
C143   C     0.17214   0.16010   0.39654   0.00000  Uiso   1.00
C144   C     0.05517   0.12246   0.64746   0.00000  Uiso   1.00
C145   C     0.01116   0.14505   0.65311   0.00000  Uiso   1.00
C146   C     0.98710   0.99278   0.66554   0.00000  Uiso   1.00
C147   C     0.93398   0.78848   0.68552   0.00000  Uiso   1.00
C148   C     0.12024   0.26616   0.68345   0.00000  Uiso   1.00
C149   C     0.13094   0.40956   0.71937   0.00000  Uiso   1.00
C150   C     0.16166   0.37827   0.76211   0.00000  Uiso   1.00
C151   C     0.20957   0.39709   0.83796   0.00000  Uiso   1.00
C152   C     0.12302   0.95998   0.64602   0.00000  Uiso   1.00
C153   C     0.13070   0.04152   0.58579   0.00000  Uiso   1.00
C154   C     0.15399   0.96296   0.54086   0.00000  Uiso   1.00
C155   C     0.15730   0.05919   0.48908   0.00000  Uiso   1.00
C156   C     0.07447   0.95377   0.65401   0.00000  Uiso   1.00
C157   C     0.05047   0.80143   0.66645   0.00000  Uiso   1.00
C158   C     0.00644   0.82378   0.67210   0.00000  Uiso   1.00
C159   C     0.13954   0.09747   0.69000   0.00000  Uiso   1.00
C160   C     0.17025   0.06594   0.73270   0.00000  Uiso   1.00
C161   C     0.18100   0.20926   0.76867   0.00000  Uiso   1.00
H162   H     0.07246   0.40189   0.62887   0.00000  Uiso   1.00
H163   H     0.09973   0.43712   0.52247   0.00000  Uiso   1.00
H164   H     0.99623   0.27562   0.64804   0.00000  Uiso   1.00
H165   H     0.11599   0.54008   0.71428   0.00000  Uiso   1.00
H166   H     0.13847   0.40175   0.40738   0.00000  Uiso   1.00
H167   H     0.92023   0.06123   0.67218   0.00000  Uiso   1.00
H168   H     0.17277   0.61891   0.81187   0.00000  Uiso   1.00
H169   H     0.13805   0.82864   0.65112   0.00000  Uiso   1.00
H170   H     0.16892   0.83241   0.54594   0.00000  Uiso   1.00
H171   H     0.06542   0.67091   0.67151   0.00000  Uiso   1.00
H172   H     0.18518   0.93538   0.73776   0.00000  Uiso   1.00
H173   H     0.19462   0.91094   0.42643   0.00000  Uiso   1.00
H174   H     0.97638   0.57042   0.69123   0.00000  Uiso   1.00
H175   H     0.22893   0.12811   0.83092   0.00000  Uiso   1.00
O176   O     0.18566   0.16914   0.34731   0.00000  Uiso   1.00
O177   O     0.89934   0.72240   0.69472   0.00000  Uiso   1.00
O178   O     0.23067   0.45407   0.87799   0.00000  Uiso   1.00
N179   N     0.14745   0.28573   0.42631   0.00000  Uiso   1.00
N180   N     0.94341   0.96736   0.67387   0.00000  Uiso   1.00
N181   N     0.17951   0.48874   0.80447   0.00000  Uiso   1.00
N182   N     0.17767   0.02164   0.43656   0.00000  Uiso   1.00
N183   N     0.97363   0.70327   0.68412   0.00000  Uiso   1.00
N184   N     0.20973   0.22464   0.81473   0.00000  Uiso   1.00
C185   C     0.41251   0.77056   0.63397   0.00000  Uiso   1.00
C186   C     0.38860   0.71022   0.57924   0.00000  Uiso   1.00
C187   C     0.38532   0.80658   0.52752   0.00000  Uiso   1.00
C188   C     0.36204   0.72818   0.48252   0.00000  Uiso   1.00
C189   C     0.32786   0.66010   0.39654   0.00000  Uiso   1.00
C190   C     0.44483   0.62246   0.64746   0.00000  Uiso   1.00
C191   C     0.48884   0.64505   0.65311   0.00000  Uiso   1.00
C192   C     0.51290   0.49278   0.66554   0.00000  Uiso   1.00
C193   C     0.56602   0.28848   0.68552   0.00000  Uiso   1.00
C194   C     0.37976   0.76616   0.68345   0.00000  Uiso   1.00
C195   C     0.36906   0.90956   0.71937   0.00000  Uiso   1.00
C196   C     0.33834   0.87827   0.76211   0.00000  Uiso   1.00
C197   C     0.29043   0.89709   0.83796   0.00000  Uiso   1.00
C198   C     0.37698   0.45998   0.64602   0.00000  Uiso   1.00
C199   C     0.36930   0.54152   0.58579   0.00000  Uiso   1.00
C200   C     0.34601   0.46296   0.54086   0.00000  Uiso   1.00
C201   C     0.34270   0.55919   0.48908   0.00000  Uiso   1.00
C202   C     0.42553   0.45377   0.65401   0.00000  Uiso   1.00
C203   C     0.44953   0.30143   0.66645   0.00000  Uiso   1.00
C204   C     0.49356   0.32378   0.67210   0.00000  Uiso   1.00
C205   C     0.36046   0.59747   0.69000   0.00000  Uiso   1.00
C206   C     0.32975   0.56594   0.73270   0.00000  Uiso   1.00
C207   C     0.31900   0.70926   0.76867   0.00000  Uiso   1.00
H208   H     0.42754   0.90189   0.62887   0.00000  Uiso   1.00
H209   H     0.40027   0.93712   0.52247   0.00000  Uiso   1.00
H210   H     0.50377   0.77562   0.64804   0.00000  Uiso   1.00
H211   H     0.38401   0.04008   0.71428   0.00000  Uiso   1.00
H212   H     0.36153   0.90175   0.40738   0.00000  Uiso   1.00
H213   H     0.57977   0.56123   0.67218   0.00000  Uiso   1.00
H214   H     0.32723   0.11891   0.81187   0.00000  Uiso   1.00
H215   H     0.36195   0.32864   0.65112   0.00000  Uiso   1.00
H216   H     0.33108   0.33241   0.54594   0.00000  Uiso   1.00
H217   H     0.43458   0.17091   0.67151   0.00000  Uiso   1.00
H218   H     0.31482   0.43538   0.73776   0.00000  Uiso   1.00
H219   H     0.30538   0.41094   0.42643   0.00000  Uiso   1.00
H220   H     0.52362   0.07042   0.69123   0.00000  Uiso   1.00
H221   H     0.27107   0.62811   0.83092   0.00000  Uiso   1.00
O222   O     0.31434   0.66914   0.34731   0.00000  Uiso   1.00
O223   O     0.60066   0.22240   0.69472   0.00000  Uiso   1.00
O224   O     0.26933   0.95407   0.87799   0.00000  Uiso   1.00
N225   N     0.35255   0.78573   0.42631   0.00000  Uiso   1.00
N226   N     0.55659   0.46736   0.67387   0.00000  Uiso   1.00
N227   N     0.32049   0.98874   0.80447   0.00000  Uiso   1.00
N228   N     0.32233   0.52164   0.43656   0.00000  Uiso   1.00
N229   N     0.52637   0.20327   0.68412   0.00000  Uiso   1.00
N230   N     0.29027   0.72464   0.81473   0.00000  Uiso   1.00
C231   C     0.08749   0.72944   0.13397   0.00000  Uiso   1.00
C232   C     0.11140   0.78978   0.07924   0.00000  Uiso   1.00
C233   C     0.11468   0.69342   0.02752   0.00000  Uiso   1.00
C234   C     0.13796   0.77182   0.98252   0.00000  Uiso   1.00
C235   C     0.17214   0.83990   0.89654   0.00000  Uiso   1.00
C236   C     0.05517   0.87754   0.14746   0.00000  Uiso   1.00
C237   C     0.01116   0.85495   0.15311   0.00000  Uiso   1.00
C238   C     0.98710   0.00722   0.16554   0.00000  Uiso   1.00
C239   C     0.93398   0.21152   0.18552   0.00000  Uiso   1.00
C240   C     0.12024   0.73384   0.18345   0.00000  Uiso   1.00
C241   C     0.13094   0.59044   0.21937   0.00000  Uiso   1.00
C242   C     0.16166   0.62173   0.26211   0.00000  Uiso   1.00
C243   C     0.20957   0.60291   0.33796   0.00000  Uiso   1.00
C244   C     0.12302   0.04002   0.14602   0.00000  Uiso   1.00
C245   C     0.13070   0.95848   0.08579   0.00000  Uiso   1.00
C246   C     0.15399   0.03704   0.04086   0.00000  Uiso   1.00
C247   C     0.15730   0.94081   0.98908   0.00000  Uiso   1.00
C248   C     0.07447   0.04623   0.15401   0.00000  Uiso   1.00
C249   C     0.05047   0.19857   0.16645   0.00000  Uiso   1.00
C250   C     0.00644   0.17622   0.17210   0.00000  Uiso   1.00
C251   C     0.13954   0.90253   0.19000   0.00000  Uiso   1.00
C252   C     0.17025   0.93406   0.23270   0.00000  Uiso   1.00
C253   C     0.18100   0.79074   0.26867   0.00000  Uiso   1.00
H254   H     0.07246   0.59811   0.12887   0.00000  Uiso   1.00
H255   H     0.09973   0.56288   0.02247   0.00000  Uiso   1.00
H256   H     0.99623   0.72438   0.14804   0.00000  Uiso   1.00
H257   H     0.11599   0.45992   0.21428   0.00000  Uiso   1.00
H258   H     0.13847   0.59825   0.90738   0.00000  Uiso   1.00
H259   H     0.92023   0.93877   0.17218   0.00000  Uiso   1.00
H260   H     0.17277   0.38109   0.31187   0.00000  Uiso   1.00
H261   H     0.13805   0.17136   0.15112   0.00000  Uiso   1.00
H262   H     0.16892   0.16759   0.04594   0.00000  Uiso   1.00
H263   H     0.06542   0.32909   0.17151   0.00000  Uiso   1.00
H264   H     0.18518   0.06462   0.23776   0.00000  Uiso   1.00
H265   H     0.19462   0.08906   0.92643   0.00000  Uiso   1.00
H266   H     0.97638   0.42958   0.19123   0.00000  Uiso   1.00
H267   H     0.22893   0.87189   0.33092   0.00000  Uiso   1.00
O268   O     0.18566   0.83086   0.84731   0.00000  Uiso   1.00
O269   O     0.89934   0.27760   0.19472   0.00000  Uiso   1.00
O270   O     0.23067   0.54593   0.37799   0.00000  Uiso   1.00
N271   N     0.14745   0.71427   0.92631   0.00000  Uiso   1.00
N272   N     0.94341   0.03264   0.17387   0.00000  Uiso   1.00
N273   N     0.17951   0.51126   0.30447   0.00000  Uiso   1.00
N274   N     0.17767   0.97836   0.93656   0.00000  Uiso   1.00
N275   N     0.97363   0.29673   0.18412   0.00000  Uiso   1.00
N276   N     0.20973   0.77536   0.31473   0.00000  Uiso   1.00
C277   C     0.58749   0.77056   0.86603   0.00000  Uiso   1.00
C278   C     0.61140   0.71022   0.92076   0.00000  Uiso   1.00
C279   C     0.61468   0.80658   0.97248   0.00000  Uiso   1.00
C280   C     0.63796   0.72818   0.01748   0.00000  Uiso   1.00
C281   C     0.67214   0.66010   0.10346   0.00000  Uiso   1.00
C282   C     0.55517   0.62246   0.85254   0.00000  Uiso   1.00
C283   C     0.51116   0.64505   0.84689   0.00000  Uiso   1.00
C284   C     0.48710   0.49278   0.83446   0.00000  Uiso   1.00
C285   C     0.43398   0.28848   0.81448   0.00000  Uiso   1.00
C286   C     0.62024   0.76616   0.81655   0.00000  Uiso   1.00
C287   C     0.63094   0.90956   0.78063   0.00000  Uiso   1.00
C288   C     0.66166   0.87827   0.73789   0.00000  Uiso   1.00
C289   C     0.70957   0.89709   0.66204   0.00000  Uiso   1.00
C290   C     0.62302   0.45998   0.85398   0.00000  Uiso   1.00
C291   C     0.63070   0.54152   0.91421   0.00000  Uiso   1.00
C292   C     0.65399   0.46296   0.95914   0.00000  Uiso   1.00
C293   C     0.65730   0.55919   0.01092   0.00000  Uiso   1.00
C294   C     0.57447   0.45377   0.84599   0.00000  Uiso   1.00
C295   C     0.55047   0.30143   0.83355   0.00000  Uiso   1.00
C296   C     0.50644   0.32378   0.82790   0.00000  Uiso   1.00
C297   C     0.63954   0.59747   0.81000   0.00000  Uiso   1.00
C298   C     0.67025   0.56594   0.76730   0.00000  Uiso   1.00
C299   C     0.68100   0.70926   0.73133   0.00000  Uiso   1.00
H300   H     0.57246   0.90189   0.87113   0.00000  Uiso   1.00
H301   H     0.59973   0.93712   0.97753   0.00000  Uiso   1.00
H302   H     0.49623   0.77562   0.85196   0.00000  Uiso   1.00
H303   H     0.61599   0.04008   0.78572   0.00000  Uiso   1.00
H304   H     0.63847   0.90175   0.09262   0.00000  Uiso   1.00
H305   H     0.42023   0.56123   0.82782   0.00000  Uiso   1.00
H306   H     0.67277   0.11891   0.68813   0.00000  Uiso   1.00
H307   H     0.63805   0.32864   0.84888   0.00000  Uiso   1.00
H308   H     0.66892   0.33241   0.95406   0.00000  Uiso   1.00
H309   H     0.56542   0.17091   0.82849   0.00000  Uiso   1.00
H310   H     0.68518   0.43538   0.76224   0.00000  Uiso   1.00
H311   H     0.69462   0.41094   0.07357   0.00000  Uiso   1.00
H312   H     0.47638   0.07042   0.80877   0.00000  Uiso   1.00
H313   H     0.72893   0.62811   0.66908   0.00000  Uiso   1.00
O314   O     0.68566   0.66914   0.15269   0.00000  Uiso   1.00
O315   O     0.39934   0.22240   0.80528   0.00000  Uiso   1.00
O316   O     0.73067   0.95407   0.62201   0.00000  Uiso   1.00
N317   N     0.64745   0.78573   0.07369   0.00000  Uiso   1.00
N318   N     0.44341   0.46736   0.82613   0.00000  Uiso   1.00
N319   N     0.67951   0.98874   0.69553   0.00000  Uiso   1.00
N320   N     0.67767   0.52164   0.06344   0.00000  Uiso   1.00
N321   N     0.47363   0.20327   0.81588   0.00000  Uiso   1.00
N322   N     0.70973   0.72464   0.68527   0.00000  Uiso   1.00
C323   C     0.91251   0.72944   0.36603   0.00000  Uiso   1.00
C324   C     0.88860   0.78978   0.42076   0.00000  Uiso   1.00
C325   C     0.88532   0.69342   0.47248   0.00000  Uiso   1.00
C326   C     0.86204   0.77182   0.51748   0.00000  Uiso   1.00
C327   C     0.82786   0.83990   0.60346   0.00000  Uiso   1.00
C328   C     0.94483   0.87754   0.35254   0.00000  Uiso   1.00
C329   C     0.98884   0.85495   0.34689   0.00000  Uiso   1.00
C330   C     0.01290   0.00722   0.33446   0.00000  Uiso   1.00
C331   C     0.06602   0.21152   0.31448   0.00000  Uiso   1.00
C332   C     0.87976   0.73384   0.31655   0.00000  Uiso   1.00
C333   C     0.86906   0.59044   0.28063   0.00000  Uiso   1.00
C334   C     0.83834   0.62173   0.23789   0.00000  Uiso   1.00
C335   C     0.79043   0.60291   0.16204   0.00000  Uiso   1.00
C336   C     0.87698   0.04002   0.35398   0.00000  Uiso   1.00
C337   C     0.86930   0.95848   0.41421   0.00000  Uiso   1.00
C338   C     0.84601   0.03704   0.45914   0.00000  Uiso   1.00
C339   C     0.84270   0.94081   0.51092   0.00000  Uiso   1.00
C340   C     0.92553   0.04623   0.34599   0.00000  Uiso   1.00
C341   C     0.94953   0.19857   0.33355   0.00000  Uiso   1.00
C342   C     0.99356   0.17622   0.32790   0.00000  Uiso   1.00
C343   C     0.86046   0.90253   0.31000   0.00000  Uiso   1.00
C344   C     0.82975   0.93406   0.26730   0.00000  Uiso   1.00
C345   C     0.81900   0.79074   0.23133   0.00000  Uiso   1.00
H346   H     0.92754   0.59811   0.37113   0.00000  Uiso   1.00
H347   H     0.90027   0.56288   0.47753   0.00000  Uiso   1.00
H348   H     0.00377   0.72438   0.35196   0.00000  Uiso   1.00
H349   H     0.88401   0.45992   0.28572   0.00000  Uiso   1.00
H350   H     0.86153   0.59825   0.59262   0.00000  Uiso   1.00
H351   H     0.07977   0.93877   0.32782   0.00000  Uiso   1.00
H352   H     0.82723   0.38109   0.18813   0.00000  Uiso   1.00
H353   H     0.86195   0.17136   0.34888   0.00000  Uiso   1.00
H354   H     0.83108   0.16759   0.45406   0.00000  Uiso   1.00
H355   H     0.93458   0.32909   0.32849   0.00000  Uiso   1.00
H356   H     0.81482   0.06462   0.26224   0.00000  Uiso   1.00
H357   H     0.80538   0.08906   0.57357   0.00000  Uiso   1.00
H358   H     0.02362   0.42958   0.30877   0.00000  Uiso   1.00
H359   H     0.77107   0.87189   0.16908   0.00000  Uiso   1.00
O360   O     0.81434   0.83086   0.65269   0.00000  Uiso   1.00
O361   O     0.10066   0.27760   0.30528   0.00000  Uiso   1.00
O362   O     0.76933   0.54593   0.12201   0.00000  Uiso   1.00
N363   N     0.85255   0.71427   0.57369   0.00000  Uiso   1.00
N364   N     0.05659   0.03264   0.32613   0.00000  Uiso   1.00
N365   N     0.82049   0.51126   0.19553   0.00000  Uiso   1.00
N366   N     0.82233   0.97836   0.56344   0.00000  Uiso   1.00
N367   N     0.02637   0.29673   0.31588   0.00000  Uiso   1.00
N368   N     0.79027   0.77536   0.18527   0.00000  Uiso   1.00
