data_job_02965
_audit_creation_date              2018-12-19
_audit_creation_method            'Materials Studio'
_symmetry_space_group_name_H-M    'P1'
_symmetry_Int_Tables_number       1
_symmetry_cell_setting            triclinic
loop_
_symmetry_equiv_pos_as_xyz
  x,y,z
_cell_length_a                    17.0956
_cell_length_b                    17.0956
_cell_length_c                    16.4993
_cell_angle_alpha                 90.0000
_cell_angle_beta                  90.0000
_cell_angle_gamma                 120.0000
loop_
_atom_site_label
_atom_site_type_symbol
_atom_site_fract_x
_atom_site_fract_y
_atom_site_fract_z
_atom_site_U_iso_or_equiv
_atom_site_adp_type
_atom_site_occupancy
C1     C     0.07099   0.41703   0.07723   0.00000  Uiso   1.00
C2     C     0.13262   0.42570   0.00683   0.00000  Uiso   1.00
C3     C     0.15726   0.48671   0.94326   0.00000  Uiso   1.00
C4     C     0.21423   0.48393   0.88480   0.00000  Uiso   1.00
C5     C     0.30515   0.50673   0.77470   0.00000  Uiso   1.00
C6     C     0.99449   0.31905   0.07700   0.00000  Uiso   1.00
C7     C     0.90299   0.29039   0.07244   0.00000  Uiso   1.00
C8     C     0.84369   0.19783   0.07306   0.00000  Uiso   1.00
C9     C     0.72016   0.05506   0.07196   0.00000  Uiso   1.00
C10    C     0.12515   0.42859   0.15418   0.00000  Uiso   1.00
C11    C     0.14350   0.49203   0.21454   0.00000  Uiso   1.00
C12    C     0.19418   0.49168   0.28015   0.00000  Uiso   1.00
C13    C     0.27353   0.51899   0.39888   0.00000  Uiso   1.00
C14    C     0.12835   0.30359   0.08644   0.00000  Uiso   1.00
C15    C     0.16378   0.36408   0.01183   0.00000  Uiso   1.00
C16    C     0.22073   0.36120   0.95345   0.00000  Uiso   1.00
C17    C     0.24545   0.42220   0.88981   0.00000  Uiso   1.00
C18    C     0.02565   0.25743   0.08200   0.00000  Uiso   1.00
C19    C     0.96646   0.16489   0.08263   0.00000  Uiso   1.00
C20    C     0.87490   0.13610   0.07807   0.00000  Uiso   1.00
C21    C     0.15631   0.36698   0.15918   0.00000  Uiso   1.00
C22    C     0.20697   0.36652   0.22472   0.00000  Uiso   1.00
C23    C     0.22539   0.42995   0.28516   0.00000  Uiso   1.00
H24    H     0.04672   0.46499   0.07334   0.00000  Uiso   1.00
H25    H     0.13312   0.53438   0.93941   0.00000  Uiso   1.00
H26    H     0.87890   0.33809   0.06858   0.00000  Uiso   1.00
H27    H     0.11937   0.53970   0.21065   0.00000  Uiso   1.00
H28    H     0.24263   0.58411   0.79312   0.00000  Uiso   1.00
H29    H     0.70659   0.17023   0.06551   0.00000  Uiso   1.00
H30    H     0.21366   0.59536   0.36508   0.00000  Uiso   1.00
H31    H     0.15261   0.25561   0.09033   0.00000  Uiso   1.00
H32    H     0.24483   0.31351   0.95733   0.00000  Uiso   1.00
H33    H     0.99060   0.11723   0.08650   0.00000  Uiso   1.00
H34    H     0.23107   0.31883   0.22857   0.00000  Uiso   1.00
H35    H     0.33329   0.40484   0.80766   0.00000  Uiso   1.00
H36    H     0.79724   0.99097   0.08005   0.00000  Uiso   1.00
H37    H     0.30432   0.41609   0.37962   0.00000  Uiso   1.00
O38    O     0.34669   0.53632   0.71258   0.00000  Uiso   1.00
O39    O     0.64342   0.99333   0.06996   0.00000  Uiso   1.00
O40    O     0.30869   0.55109   0.46298   0.00000  Uiso   1.00
N41    N     0.25133   0.53398   0.81480   0.00000  Uiso   1.00
N42    N     0.75016   0.14703   0.06946   0.00000  Uiso   1.00
N43    N     0.22421   0.54447   0.34954   0.00000  Uiso   1.00
N44    N     0.30011   0.43753   0.82263   0.00000  Uiso   1.00
N45    N     0.79894   0.05057   0.07728   0.00000  Uiso   1.00
N46    N     0.27299   0.44802   0.35737   0.00000  Uiso   1.00
C47    C     0.58297   0.65396   0.74390   0.00000  Uiso   1.00
C48    C     0.57430   0.70692   0.67349   0.00000  Uiso   1.00
C49    C     0.51329   0.67055   0.60993   0.00000  Uiso   1.00
C50    C     0.51607   0.73030   0.55147   0.00000  Uiso   1.00
C51    C     0.49327   0.79842   0.44136   0.00000  Uiso   1.00
C52    C     0.68095   0.67545   0.74366   0.00000  Uiso   1.00
C53    C     0.70961   0.61260   0.73911   0.00000  Uiso   1.00
C54    C     0.80217   0.64586   0.73973   0.00000  Uiso   1.00
C55    C     0.94494   0.66510   0.73863   0.00000  Uiso   1.00
C56    C     0.57141   0.69656   0.82085   0.00000  Uiso   1.00
C57    C     0.50797   0.65147   0.88120   0.00000  Uiso   1.00
C58    C     0.50832   0.70250   0.94681   0.00000  Uiso   1.00
C59    C     0.48101   0.75453   0.06555   0.00000  Uiso   1.00
C60    C     0.69641   0.82477   0.75311   0.00000  Uiso   1.00
C61    C     0.63592   0.79970   0.67850   0.00000  Uiso   1.00
C62    C     0.63880   0.85953   0.62012   0.00000  Uiso   1.00
C63    C     0.57780   0.82325   0.55648   0.00000  Uiso   1.00
C64    C     0.74257   0.76822   0.74866   0.00000  Uiso   1.00
C65    C     0.83511   0.80158   0.74930   0.00000  Uiso   1.00
C66    C     0.86390   0.73880   0.74474   0.00000  Uiso   1.00
C67    C     0.63302   0.78934   0.82585   0.00000  Uiso   1.00
C68    C     0.63348   0.84045   0.89138   0.00000  Uiso   1.00
C69    C     0.57005   0.79544   0.95182   0.00000  Uiso   1.00
H70    H     0.53501   0.58173   0.74001   0.00000  Uiso   1.00
H71    H     0.46562   0.59875   0.60608   0.00000  Uiso   1.00
H72    H     0.66191   0.54081   0.73525   0.00000  Uiso   1.00
H73    H     0.46030   0.57968   0.87731   0.00000  Uiso   1.00
H74    H     0.41589   0.65852   0.45978   0.00000  Uiso   1.00
H75    H     0.82977   0.53636   0.73217   0.00000  Uiso   1.00
H76    H     0.40464   0.61831   0.03174   0.00000  Uiso   1.00
H77    H     0.74439   0.89700   0.75700   0.00000  Uiso   1.00
H78    H     0.68649   0.93132   0.62400   0.00000  Uiso   1.00
H79    H     0.88277   0.87337   0.75317   0.00000  Uiso   1.00
H80    H     0.68117   0.91224   0.89523   0.00000  Uiso   1.00
H81    H     0.59516   0.92845   0.47433   0.00000  Uiso   1.00
H82    H     0.00903   0.80628   0.74672   0.00000  Uiso   1.00
H83    H     0.58391   0.88823   0.04629   0.00000  Uiso   1.00
O84    O     0.46368   0.81037   0.37924   0.00000  Uiso   1.00
O85    O     0.00667   0.65009   0.73663   0.00000  Uiso   1.00
O86    O     0.44891   0.75760   0.12965   0.00000  Uiso   1.00
N87    N     0.46602   0.71734   0.48147   0.00000  Uiso   1.00
N88    N     0.85297   0.60312   0.73612   0.00000  Uiso   1.00
N89    N     0.45553   0.67974   0.01621   0.00000  Uiso   1.00
N90    N     0.56247   0.86259   0.48929   0.00000  Uiso   1.00
N91    N     0.94943   0.74837   0.74395   0.00000  Uiso   1.00
N92    N     0.55198   0.82498   0.02403   0.00000  Uiso   1.00
C93    C     0.34604   0.92901   0.41057   0.00000  Uiso   1.00
C94    C     0.29308   0.86738   0.34016   0.00000  Uiso   1.00
C95    C     0.32945   0.84274   0.27660   0.00000  Uiso   1.00
C96    C     0.26970   0.78577   0.21813   0.00000  Uiso   1.00
C97    C     0.20158   0.69485   0.10803   0.00000  Uiso   1.00
C98    C     0.32455   0.00551   0.41033   0.00000  Uiso   1.00
C99    C     0.38740   0.09701   0.40578   0.00000  Uiso   1.00
C100   C     0.35414   0.15631   0.40640   0.00000  Uiso   1.00
C101   C     0.33490   0.27984   0.40529   0.00000  Uiso   1.00
C102   C     0.30344   0.87485   0.48751   0.00000  Uiso   1.00
C103   C     0.34853   0.85650   0.54787   0.00000  Uiso   1.00
C104   C     0.29750   0.80582   0.61348   0.00000  Uiso   1.00
C105   C     0.24547   0.72647   0.73221   0.00000  Uiso   1.00
C106   C     0.17523   0.87165   0.41977   0.00000  Uiso   1.00
C107   C     0.20030   0.83622   0.34516   0.00000  Uiso   1.00
C108   C     0.14047   0.77927   0.28678   0.00000  Uiso   1.00
C109   C     0.17675   0.75455   0.22314   0.00000  Uiso   1.00
C110   C     0.23178   0.97435   0.41533   0.00000  Uiso   1.00
C111   C     0.19842   0.03354   0.41596   0.00000  Uiso   1.00
C112   C     0.26120   0.12510   0.41141   0.00000  Uiso   1.00
C113   C     0.21066   0.84369   0.49251   0.00000  Uiso   1.00
C114   C     0.15955   0.79303   0.55805   0.00000  Uiso   1.00
C115   C     0.20456   0.77461   0.61849   0.00000  Uiso   1.00
H116   H     0.41827   0.95328   0.40667   0.00000  Uiso   1.00
H117   H     0.40125   0.86688   0.27275   0.00000  Uiso   1.00
H118   H     0.45919   0.12110   0.40192   0.00000  Uiso   1.00
H119   H     0.42032   0.88063   0.54398   0.00000  Uiso   1.00
H120   H     0.34148   0.75737   0.12645   0.00000  Uiso   1.00
H121   H     0.46364   0.29341   0.39884   0.00000  Uiso   1.00
H122   H     0.38169   0.78634   0.69841   0.00000  Uiso   1.00
H123   H     0.10300   0.84739   0.42367   0.00000  Uiso   1.00
H124   H     0.06868   0.75517   0.29067   0.00000  Uiso   1.00
H125   H     0.12663   0.00940   0.41984   0.00000  Uiso   1.00
H126   H     0.08776   0.76893   0.56190   0.00000  Uiso   1.00
H127   H     0.07155   0.66671   0.14099   0.00000  Uiso   1.00
H128   H     0.19372   0.20276   0.41339   0.00000  Uiso   1.00
H129   H     0.11177   0.69568   0.71295   0.00000  Uiso   1.00
O130   O     0.18963   0.65331   0.04591   0.00000  Uiso   1.00
O131   O     0.34991   0.35658   0.40329   0.00000  Uiso   1.00
O132   O     0.24240   0.69131   0.79632   0.00000  Uiso   1.00
N133   N     0.28266   0.74867   0.14813   0.00000  Uiso   1.00
N134   N     0.39688   0.24984   0.40279   0.00000  Uiso   1.00
N135   N     0.32026   0.77579   0.68287   0.00000  Uiso   1.00
N136   N     0.13741   0.69989   0.15596   0.00000  Uiso   1.00
N137   N     0.25163   0.20106   0.41062   0.00000  Uiso   1.00
N138   N     0.17502   0.72701   0.69070   0.00000  Uiso   1.00
C139   C     0.41703   0.07099   0.92277   0.00000  Uiso   1.00
C140   C     0.42570   0.13262   0.99317   0.00000  Uiso   1.00
C141   C     0.48671   0.15726   0.05674   0.00000  Uiso   1.00
C142   C     0.48393   0.21423   0.11520   0.00000  Uiso   1.00
C143   C     0.50673   0.30515   0.22530   0.00000  Uiso   1.00
C144   C     0.31905   0.99449   0.92300   0.00000  Uiso   1.00
C145   C     0.29039   0.90299   0.92756   0.00000  Uiso   1.00
C146   C     0.19783   0.84369   0.92694   0.00000  Uiso   1.00
C147   C     0.05506   0.72016   0.92804   0.00000  Uiso   1.00
C148   C     0.42859   0.12515   0.84582   0.00000  Uiso   1.00
C149   C     0.49203   0.14350   0.78546   0.00000  Uiso   1.00
C150   C     0.49168   0.19418   0.71985   0.00000  Uiso   1.00
C151   C     0.51899   0.27353   0.60112   0.00000  Uiso   1.00
C152   C     0.30359   0.12835   0.91356   0.00000  Uiso   1.00
C153   C     0.36408   0.16378   0.98817   0.00000  Uiso   1.00
C154   C     0.36120   0.22073   0.04655   0.00000  Uiso   1.00
C155   C     0.42220   0.24545   0.11019   0.00000  Uiso   1.00
C156   C     0.25743   0.02565   0.91800   0.00000  Uiso   1.00
C157   C     0.16489   0.96646   0.91737   0.00000  Uiso   1.00
C158   C     0.13610   0.87490   0.92193   0.00000  Uiso   1.00
C159   C     0.36698   0.15631   0.84082   0.00000  Uiso   1.00
C160   C     0.36652   0.20697   0.77528   0.00000  Uiso   1.00
C161   C     0.42995   0.22539   0.71484   0.00000  Uiso   1.00
H162   H     0.46499   0.04672   0.92666   0.00000  Uiso   1.00
H163   H     0.53438   0.13312   0.06059   0.00000  Uiso   1.00
H164   H     0.33809   0.87890   0.93142   0.00000  Uiso   1.00
H165   H     0.53970   0.11937   0.78935   0.00000  Uiso   1.00
H166   H     0.58411   0.24263   0.20688   0.00000  Uiso   1.00
H167   H     0.17023   0.70659   0.93449   0.00000  Uiso   1.00
H168   H     0.59536   0.21366   0.63492   0.00000  Uiso   1.00
H169   H     0.25561   0.15261   0.90967   0.00000  Uiso   1.00
H170   H     0.31351   0.24483   0.04267   0.00000  Uiso   1.00
H171   H     0.11723   0.99060   0.91350   0.00000  Uiso   1.00
H172   H     0.31883   0.23107   0.77143   0.00000  Uiso   1.00
H173   H     0.40484   0.33329   0.19234   0.00000  Uiso   1.00
H174   H     0.99097   0.79724   0.91995   0.00000  Uiso   1.00
H175   H     0.41609   0.30432   0.62038   0.00000  Uiso   1.00
O176   O     0.53632   0.34669   0.28742   0.00000  Uiso   1.00
O177   O     0.99333   0.64342   0.93004   0.00000  Uiso   1.00
O178   O     0.55109   0.30869   0.53702   0.00000  Uiso   1.00
N179   N     0.53398   0.25133   0.18520   0.00000  Uiso   1.00
N180   N     0.14703   0.75016   0.93054   0.00000  Uiso   1.00
N181   N     0.54447   0.22421   0.65046   0.00000  Uiso   1.00
N182   N     0.43753   0.30011   0.17737   0.00000  Uiso   1.00
N183   N     0.05057   0.79894   0.92272   0.00000  Uiso   1.00
N184   N     0.44802   0.27299   0.64263   0.00000  Uiso   1.00
C185   C     0.65396   0.58297   0.25610   0.00000  Uiso   1.00
C186   C     0.70692   0.57430   0.32651   0.00000  Uiso   1.00
C187   C     0.67055   0.51329   0.39007   0.00000  Uiso   1.00
C188   C     0.73030   0.51607   0.44853   0.00000  Uiso   1.00
C189   C     0.79842   0.49327   0.55864   0.00000  Uiso   1.00
C190   C     0.67545   0.68095   0.25634   0.00000  Uiso   1.00
C191   C     0.61260   0.70961   0.26089   0.00000  Uiso   1.00
C192   C     0.64586   0.80217   0.26027   0.00000  Uiso   1.00
C193   C     0.66510   0.94494   0.26137   0.00000  Uiso   1.00
C194   C     0.69656   0.57141   0.17915   0.00000  Uiso   1.00
C195   C     0.65147   0.50797   0.11880   0.00000  Uiso   1.00
C196   C     0.70250   0.50832   0.05319   0.00000  Uiso   1.00
C197   C     0.75453   0.48101   0.93445   0.00000  Uiso   1.00
C198   C     0.82477   0.69641   0.24689   0.00000  Uiso   1.00
C199   C     0.79970   0.63592   0.32150   0.00000  Uiso   1.00
C200   C     0.85953   0.63880   0.37988   0.00000  Uiso   1.00
C201   C     0.82325   0.57780   0.44352   0.00000  Uiso   1.00
C202   C     0.76822   0.74257   0.25134   0.00000  Uiso   1.00
C203   C     0.80158   0.83511   0.25070   0.00000  Uiso   1.00
C204   C     0.73880   0.86390   0.25526   0.00000  Uiso   1.00
C205   C     0.78934   0.63302   0.17415   0.00000  Uiso   1.00
C206   C     0.84045   0.63348   0.10862   0.00000  Uiso   1.00
C207   C     0.79544   0.57005   0.04818   0.00000  Uiso   1.00
H208   H     0.58173   0.53501   0.25999   0.00000  Uiso   1.00
H209   H     0.59875   0.46562   0.39392   0.00000  Uiso   1.00
H210   H     0.54081   0.66191   0.26475   0.00000  Uiso   1.00
H211   H     0.57968   0.46030   0.12269   0.00000  Uiso   1.00
H212   H     0.65852   0.41589   0.54022   0.00000  Uiso   1.00
H213   H     0.53636   0.82977   0.26783   0.00000  Uiso   1.00
H214   H     0.61831   0.40464   0.96826   0.00000  Uiso   1.00
H215   H     0.89700   0.74439   0.24300   0.00000  Uiso   1.00
H216   H     0.93132   0.68649   0.37600   0.00000  Uiso   1.00
H217   H     0.87337   0.88277   0.24683   0.00000  Uiso   1.00
H218   H     0.91224   0.68117   0.10477   0.00000  Uiso   1.00
H219   H     0.92845   0.59516   0.52567   0.00000  Uiso   1.00
H220   H     0.80628   0.00903   0.25328   0.00000  Uiso   1.00
H221   H     0.88823   0.58391   0.95371   0.00000  Uiso   1.00
O222   O     0.81037   0.46368   0.62076   0.00000  Uiso   1.00
O223   O     0.65009   0.00667   0.26337   0.00000  Uiso   1.00
O224   O     0.75760   0.44891   0.87035   0.00000  Uiso   1.00
N225   N     0.71734   0.46602   0.51853   0.00000  Uiso   1.00
N226   N     0.60312   0.85297   0.26388   0.00000  Uiso   1.00
N227   N     0.67974   0.45553   0.98379   0.00000  Uiso   1.00
N228   N     0.86259   0.56247   0.51071   0.00000  Uiso   1.00
N229   N     0.74837   0.94943   0.25605   0.00000  Uiso   1.00
N230   N     0.82498   0.55198   0.97597   0.00000  Uiso   1.00
C231   C     0.92901   0.34604   0.58943   0.00000  Uiso   1.00
C232   C     0.86738   0.29308   0.65984   0.00000  Uiso   1.00
C233   C     0.84274   0.32945   0.72340   0.00000  Uiso   1.00
C234   C     0.78577   0.26970   0.78187   0.00000  Uiso   1.00
C235   C     0.69485   0.20158   0.89197   0.00000  Uiso   1.00
C236   C     0.00551   0.32455   0.58967   0.00000  Uiso   1.00
C237   C     0.09701   0.38740   0.59422   0.00000  Uiso   1.00
C238   C     0.15631   0.35414   0.59360   0.00000  Uiso   1.00
C239   C     0.27984   0.33490   0.59471   0.00000  Uiso   1.00
C240   C     0.87485   0.30344   0.51249   0.00000  Uiso   1.00
C241   C     0.85650   0.34853   0.45213   0.00000  Uiso   1.00
C242   C     0.80582   0.29750   0.38652   0.00000  Uiso   1.00
C243   C     0.72647   0.24547   0.26779   0.00000  Uiso   1.00
C244   C     0.87165   0.17523   0.58023   0.00000  Uiso   1.00
C245   C     0.83622   0.20030   0.65484   0.00000  Uiso   1.00
C246   C     0.77927   0.14047   0.71322   0.00000  Uiso   1.00
C247   C     0.75455   0.17675   0.77686   0.00000  Uiso   1.00
C248   C     0.97435   0.23178   0.58467   0.00000  Uiso   1.00
C249   C     0.03354   0.19842   0.58404   0.00000  Uiso   1.00
C250   C     0.12510   0.26120   0.58859   0.00000  Uiso   1.00
C251   C     0.84369   0.21066   0.50749   0.00000  Uiso   1.00
C252   C     0.79303   0.15955   0.44195   0.00000  Uiso   1.00
C253   C     0.77461   0.20456   0.38151   0.00000  Uiso   1.00
H254   H     0.95328   0.41827   0.59333   0.00000  Uiso   1.00
H255   H     0.86688   0.40125   0.72725   0.00000  Uiso   1.00
H256   H     0.12110   0.45919   0.59808   0.00000  Uiso   1.00
H257   H     0.88063   0.42032   0.45602   0.00000  Uiso   1.00
H258   H     0.75737   0.34148   0.87355   0.00000  Uiso   1.00
H259   H     0.29341   0.46364   0.60116   0.00000  Uiso   1.00
H260   H     0.78634   0.38169   0.30159   0.00000  Uiso   1.00
H261   H     0.84739   0.10300   0.57633   0.00000  Uiso   1.00
H262   H     0.75517   0.06868   0.70933   0.00000  Uiso   1.00
H263   H     0.00940   0.12663   0.58016   0.00000  Uiso   1.00
H264   H     0.76893   0.08776   0.43810   0.00000  Uiso   1.00
H265   H     0.66671   0.07155   0.85901   0.00000  Uiso   1.00
H266   H     0.20276   0.19372   0.58661   0.00000  Uiso   1.00
H267   H     0.69568   0.11177   0.28705   0.00000  Uiso   1.00
O268   O     0.65331   0.18963   0.95409   0.00000  Uiso   1.00
O269   O     0.35658   0.34991   0.59671   0.00000  Uiso   1.00
O270   O     0.69131   0.24240   0.20368   0.00000  Uiso   1.00
N271   N     0.74867   0.28266   0.85187   0.00000  Uiso   1.00
N272   N     0.24984   0.39688   0.59721   0.00000  Uiso   1.00
N273   N     0.77579   0.32026   0.31713   0.00000  Uiso   1.00
N274   N     0.69989   0.13741   0.84404   0.00000  Uiso   1.00
N275   N     0.20106   0.25163   0.58938   0.00000  Uiso   1.00
N276   N     0.72701   0.17502   0.30930   0.00000  Uiso   1.00
