data_job_07006
_audit_creation_date              2018-12-19
_audit_creation_method            'Materials Studio'
_symmetry_space_group_name_H-M    'P1'
_symmetry_Int_Tables_number       1
_symmetry_cell_setting            triclinic
loop_
_symmetry_equiv_pos_as_xyz
  x,y,z
_cell_length_a                    18.8791
_cell_length_b                    22.6810
_cell_length_c                    23.2790
_cell_angle_alpha                 116.5799
_cell_angle_beta                  85.4670
_cell_angle_gamma                 106.3470
loop_
_atom_site_label
_atom_site_type_symbol
_atom_site_fract_x
_atom_site_fract_y
_atom_site_fract_z
_atom_site_U_iso_or_equiv
_atom_site_adp_type
_atom_site_occupancy
C1     C     0.55370   0.60566   0.93654   0.00000  Uiso   1.00
C2     C     0.61143   0.58908   0.88646   0.00000  Uiso   1.00
C3     C     0.67268   0.56911   0.89181   0.00000  Uiso   1.00
C4     C     0.71890   0.55629   0.84076   0.00000  Uiso   1.00
C5     C     0.81077   0.52951   0.77130   0.00000  Uiso   1.00
C6     C     0.55193   0.67818   0.95256   0.00000  Uiso   1.00
C7     C     0.56315   0.73312   0.01348   0.00000  Uiso   1.00
C8     C     0.55927   0.79530   0.01808   0.00000  Uiso   1.00
C9     C     0.55871   0.90685   0.05124   0.00000  Uiso   1.00
C10    C     0.47937   0.55848   0.90195   0.00000  Uiso   1.00
C11    C     0.42956   0.51278   0.92033   0.00000  Uiso   1.00
C12    C     0.36458   0.47419   0.88232   0.00000  Uiso   1.00
C13    C     0.25135   0.39987   0.83691   0.00000  Uiso   1.00
C14    C     0.52687   0.61841   0.83639   0.00000  Uiso   1.00
C15    C     0.59685   0.59601   0.83207   0.00000  Uiso   1.00
C16    C     0.64299   0.58321   0.78100   0.00000  Uiso   1.00
C17    C     0.70430   0.56322   0.78627   0.00000  Uiso   1.00
C18    C     0.53736   0.68511   0.89817   0.00000  Uiso   1.00
C19    C     0.53346   0.74722   0.90268   0.00000  Uiso   1.00
C20    C     0.54467   0.80224   0.96359   0.00000  Uiso   1.00
C21    C     0.46479   0.56540   0.84756   0.00000  Uiso   1.00
C22    C     0.39987   0.52688   0.80952   0.00000  Uiso   1.00
C23    C     0.34997   0.48113   0.82783   0.00000  Uiso   1.00
H24    H     0.56505   0.60028   0.97889   0.00000  Uiso   1.00
H25    H     0.68395   0.56376   0.93391   0.00000  Uiso   1.00
H26    H     0.57442   0.72774   0.05557   0.00000  Uiso   1.00
H27    H     0.44085   0.50743   0.96242   0.00000  Uiso   1.00
H28    H     0.80935   0.52635   0.86007   0.00000  Uiso   1.00
H29    H     0.57838   0.87211   0.11659   0.00000  Uiso   1.00
H30    H     0.29673   0.40755   0.92018   0.00000  Uiso   1.00
H31    H     0.51552   0.62380   0.79404   0.00000  Uiso   1.00
H32    H     0.63170   0.58857   0.73892   0.00000  Uiso   1.00
H33    H     0.52217   0.75256   0.86057   0.00000  Uiso   1.00
H34    H     0.38861   0.53225   0.76743   0.00000  Uiso   1.00
H35    H     0.76695   0.54649   0.70181   0.00000  Uiso   1.00
H36    H     0.53597   0.89226   0.95833   0.00000  Uiso   1.00
H37    H     0.25433   0.42769   0.76192   0.00000  Uiso   1.00
O38    O     0.86548   0.51284   0.74802   0.00000  Uiso   1.00
O39    O     0.56244   0.96647   0.08457   0.00000  Uiso   1.00
O40    O     0.19293   0.35696   0.82688   0.00000  Uiso   1.00
N41    N     0.78342   0.53591   0.83038   0.00000  Uiso   1.00
N42    N     0.56749   0.85918   0.07021   0.00000  Uiso   1.00
N43    N     0.30416   0.42487   0.88660   0.00000  Uiso   1.00
N44    N     0.76060   0.54675   0.74522   0.00000  Uiso   1.00
N45    N     0.54467   0.87002   0.98505   0.00000  Uiso   1.00
N46    N     0.28134   0.43570   0.80143   0.00000  Uiso   1.00
C47    C     0.48030   0.77341   0.49427   0.00000  Uiso   1.00
C48    C     0.45762   0.73334   0.53383   0.00000  Uiso   1.00
C49    C     0.48676   0.75329   0.59472   0.00000  Uiso   1.00
C50    C     0.45863   0.70949   0.62285   0.00000  Uiso   1.00
C51    C     0.43184   0.65661   0.68908   0.00000  Uiso   1.00
C52    C     0.50392   0.72482   0.43049   0.00000  Uiso   1.00
C53    C     0.57199   0.73762   0.40449   0.00000  Uiso   1.00
C54    C     0.58283   0.68665   0.34562   0.00000  Uiso   1.00
C55    C     0.62791   0.62056   0.25140   0.00000  Uiso   1.00
C56    C     0.40963   0.78445   0.47850   0.00000  Uiso   1.00
C57    C     0.39842   0.84739   0.49285   0.00000  Uiso   1.00
C58    C     0.32989   0.84662   0.47439   0.00000  Uiso   1.00
C59    C     0.22857   0.87313   0.45471   0.00000  Uiso   1.00
C60    C     0.37853   0.66014   0.43593   0.00000  Uiso   1.00
C61    C     0.40234   0.67181   0.50214   0.00000  Uiso   1.00
C62    C     0.37416   0.62797   0.53018   0.00000  Uiso   1.00
C63    C     0.40325   0.64786   0.59111   0.00000  Uiso   1.00
C64    C     0.44864   0.66330   0.39880   0.00000  Uiso   1.00
C65    C     0.45939   0.61230   0.33995   0.00000  Uiso   1.00
C66    C     0.52745   0.62501   0.31387   0.00000  Uiso   1.00
C67    C     0.35435   0.72293   0.44681   0.00000  Uiso   1.00
C68    C     0.28582   0.72207   0.42831   0.00000  Uiso   1.00
C69    C     0.27451   0.78499   0.44264   0.00000  Uiso   1.00
H70    H     0.52334   0.82131   0.51893   0.00000  Uiso   1.00
H71    H     0.52954   0.80090   0.61923   0.00000  Uiso   1.00
H72    H     0.61475   0.78523   0.42902   0.00000  Uiso   1.00
H73    H     0.44121   0.89499   0.51737   0.00000  Uiso   1.00
H74    H     0.51206   0.75114   0.71644   0.00000  Uiso   1.00
H75    H     0.69172   0.71811   0.31537   0.00000  Uiso   1.00
H76    H     0.32579   0.94955   0.50168   0.00000  Uiso   1.00
H77    H     0.33549   0.61224   0.41126   0.00000  Uiso   1.00
H78    H     0.33138   0.58037   0.50565   0.00000  Uiso   1.00
H79    H     0.41659   0.56470   0.31544   0.00000  Uiso   1.00
H80    H     0.24306   0.67445   0.40379   0.00000  Uiso   1.00
H81    H     0.35123   0.57214   0.62425   0.00000  Uiso   1.00
H82    H     0.53089   0.53911   0.22318   0.00000  Uiso   1.00
H83    H     0.16495   0.77055   0.40949   0.00000  Uiso   1.00
O84    O     0.43235   0.64443   0.73437   0.00000  Uiso   1.00
O85    O     0.66805   0.60110   0.20818   0.00000  Uiso   1.00
O86    O     0.18795   0.90474   0.45261   0.00000  Uiso   1.00
N87    N     0.47476   0.71339   0.68179   0.00000  Uiso   1.00
N88    N     0.64274   0.68251   0.30683   0.00000  Uiso   1.00
N89    N     0.30063   0.89888   0.48099   0.00000  Uiso   1.00
N90    N     0.38822   0.61707   0.63219   0.00000  Uiso   1.00
N91    N     0.55619   0.58619   0.25722   0.00000  Uiso   1.00
N92    N     0.21408   0.80256   0.43138   0.00000  Uiso   1.00
C93    C     0.48787   0.06680   0.44017   0.00000  Uiso   1.00
C94    C     0.50699   0.14378   0.46129   0.00000  Uiso   1.00
C95    C     0.56787   0.18196   0.44356   0.00000  Uiso   1.00
C96    C     0.57558   0.25174   0.46800   0.00000  Uiso   1.00
C97    C     0.61310   0.36665   0.49463   0.00000  Uiso   1.00
C98    C     0.48189   0.05821   0.50186   0.00000  Uiso   1.00
C99    C     0.52166   0.02442   0.51822   0.00000  Uiso   1.00
C100   C     0.50823   0.02216   0.57681   0.00000  Uiso   1.00
C101   C     0.50675   0.00416   0.66640   0.00000  Uiso   1.00
C102   C     0.40992   0.03683   0.40874   0.00000  Uiso   1.00
C103   C     0.38916   0.98506   0.34681   0.00000  Uiso   1.00
C104   C     0.31513   0.96479   0.32700   0.00000  Uiso   1.00
C105   C     0.20190   0.91361   0.27199   0.00000  Uiso   1.00
C106   C     0.39330   0.12285   0.51512   0.00000  Uiso   1.00
C107   C     0.45562   0.17422   0.50200   0.00000  Uiso   1.00
C108   C     0.46324   0.24397   0.52648   0.00000  Uiso   1.00
C109   C     0.52412   0.28224   0.50878   0.00000  Uiso   1.00
C110   C     0.43053   0.08864   0.54257   0.00000  Uiso   1.00
C111   C     0.41703   0.08643   0.60115   0.00000  Uiso   1.00
C112   C     0.45678   0.05266   0.61760   0.00000  Uiso   1.00
C113   C     0.35855   0.06727   0.44944   0.00000  Uiso   1.00
C114   C     0.28454   0.04707   0.42973   0.00000  Uiso   1.00
C115   C     0.26367   0.99529   0.36778   0.00000  Uiso   1.00
H116   H     0.52786   0.04310   0.40848   0.00000  Uiso   1.00
H117   H     0.60761   0.15838   0.41206   0.00000  Uiso   1.00
H118   H     0.56140   0.00087   0.48671   0.00000  Uiso   1.00
H119   H     0.42893   0.96152   0.31532   0.00000  Uiso   1.00
H120   H     0.67339   0.29962   0.43399   0.00000  Uiso   1.00
H121   H     0.57594   0.96747   0.59139   0.00000  Uiso   1.00
H122   H     0.29659   0.88449   0.22998   0.00000  Uiso   1.00
H123   H     0.35331   0.14655   0.54682   0.00000  Uiso   1.00
H124   H     0.42348   0.26751   0.55798   0.00000  Uiso   1.00
H125   H     0.37728   0.10999   0.63263   0.00000  Uiso   1.00
H126   H     0.24480   0.07064   0.46124   0.00000  Uiso   1.00
H127   H     0.52395   0.38819   0.55243   0.00000  Uiso   1.00
H128   H     0.42650   0.05603   0.70983   0.00000  Uiso   1.00
H129   H     0.14715   0.97306   0.34842   0.00000  Uiso   1.00
O130   O     0.64800   0.42162   0.49808   0.00000  Uiso   1.00
O131   O     0.52014   0.98583   0.70457   0.00000  Uiso   1.00
O132   O     0.15364   0.87697   0.23040   0.00000  Uiso   1.00
N133   N     0.62858   0.30387   0.46032   0.00000  Uiso   1.00
N134   N     0.53748   0.99333   0.60749   0.00000  Uiso   1.00
N135   N     0.27631   0.91574   0.26960   0.00000  Uiso   1.00
N136   N     0.54817   0.35152   0.52405   0.00000  Uiso   1.00
N137   N     0.45707   0.04099   0.67122   0.00000  Uiso   1.00
N138   N     0.19590   0.96340   0.33333   0.00000  Uiso   1.00
C139   C     0.98250   0.25146   0.48147   0.00000  Uiso   1.00
C140   C     0.01068   0.24340   0.41586   0.00000  Uiso   1.00
C141   C     0.08435   0.25863   0.40144   0.00000  Uiso   1.00
C142   C     0.09871   0.24770   0.33857   0.00000  Uiso   1.00
C143   C     0.15119   0.23899   0.24380   0.00000  Uiso   1.00
C144   C     0.93283   0.18111   0.47071   0.00000  Uiso   1.00
C145   C     0.94103   0.14397   0.50242   0.00000  Uiso   1.00
C146   C     0.88985   0.08062   0.48572   0.00000  Uiso   1.00
C147   C     0.82143   0.97523   0.47615   0.00000  Uiso   1.00
C148   C     0.93168   0.29802   0.49888   0.00000  Uiso   1.00
C149   C     0.93891   0.35917   0.55428   0.00000  Uiso   1.00
C150   C     0.88675   0.39423   0.56131   0.00000  Uiso   1.00
C151   C     0.81655   0.47035   0.59547   0.00000  Uiso   1.00
C152   C     0.87699   0.20498   0.39545   0.00000  Uiso   1.00
C153   C     0.95337   0.21815   0.36914   0.00000  Uiso   1.00
C154   C     0.96762   0.20720   0.30627   0.00000  Uiso   1.00
C155   C     0.04130   0.22241   0.29176   0.00000  Uiso   1.00
C156   C     0.87552   0.15586   0.42399   0.00000  Uiso   1.00
C157   C     0.82431   0.09255   0.40725   0.00000  Uiso   1.00
C158   C     0.83244   0.05532   0.43892   0.00000  Uiso   1.00
C159   C     0.87438   0.27277   0.45216   0.00000  Uiso   1.00
C160   C     0.82219   0.30774   0.45911   0.00000  Uiso   1.00
C161   C     0.82934   0.36894   0.51450   0.00000  Uiso   1.00
H162   H     0.02711   0.27111   0.51784   0.00000  Uiso   1.00
H163   H     0.12868   0.27816   0.43761   0.00000  Uiso   1.00
H164   H     0.98538   0.16353   0.53858   0.00000  Uiso   1.00
H165   H     0.98327   0.37869   0.59043   0.00000  Uiso   1.00
H166   H     0.21602   0.27481   0.32805   0.00000  Uiso   1.00
H167   H     0.91385   0.03312   0.54096   0.00000  Uiso   1.00
H168   H     0.90939   0.48682   0.65029   0.00000  Uiso   1.00
H169   H     0.83237   0.18532   0.35908   0.00000  Uiso   1.00
H170   H     0.92326   0.18766   0.27013   0.00000  Uiso   1.00
H171   H     0.77997   0.07303   0.37110   0.00000  Uiso   1.00
H172   H     0.77785   0.28819   0.42294   0.00000  Uiso   1.00
H173   H     0.04930   0.20136   0.19211   0.00000  Uiso   1.00
H174   H     0.74713   0.95966   0.40502   0.00000  Uiso   1.00
H175   H     0.74267   0.41337   0.51436   0.00000  Uiso   1.00
O176   O     0.19596   0.24115   0.20443   0.00000  Uiso   1.00
O177   O     0.79952   0.92406   0.48377   0.00000  Uiso   1.00
O178   O     0.79367   0.51932   0.62721   0.00000  Uiso   1.00
N179   N     0.16431   0.25722   0.30827   0.00000  Uiso   1.00
N180   N     0.88181   0.03124   0.50732   0.00000  Uiso   1.00
N181   N     0.87762   0.45541   0.60954   0.00000  Uiso   1.00
N182   N     0.07460   0.21769   0.23512   0.00000  Uiso   1.00
N183   N     0.79210   0.99172   0.43417   0.00000  Uiso   1.00
N184   N     0.78791   0.41589   0.53640   0.00000  Uiso   1.00
C185   C     0.06308   0.52179   0.91652   0.00000  Uiso   1.00
C186   C     0.10504   0.59313   0.96591   0.00000  Uiso   1.00
C187   C     0.16527   0.60813   0.00551   0.00000  Uiso   1.00
C188   C     0.19592   0.67663   0.04745   0.00000  Uiso   1.00
C189   C     0.26544   0.77956   0.12380   0.00000  Uiso   1.00
C190   C     0.06565   0.52512   0.85237   0.00000  Uiso   1.00
C191   C     0.09276   0.48292   0.79649   0.00000  Uiso   1.00
C192   C     0.09024   0.49416   0.74285   0.00000  Uiso   1.00
C193   C     0.09857   0.49146   0.64290   0.00000  Uiso   1.00
C194   C     0.98247   0.51221   0.93405   0.00000  Uiso   1.00
C195   C     0.93962   0.45915   0.94684   0.00000  Uiso   1.00
C196   C     0.86706   0.45952   0.96196   0.00000  Uiso   1.00
C197   C     0.74623   0.43678   0.98883   0.00000  Uiso   1.00
C198   C     0.01041   0.61678   0.92059   0.00000  Uiso   1.00
C199   C     0.07642   0.64473   0.96812   0.00000  Uiso   1.00
C200   C     0.10699   0.71322   0.01002   0.00000  Uiso   1.00
C201   C     0.16726   0.72831   0.04967   0.00000  Uiso   1.00
C202   C     0.03704   0.57671   0.85458   0.00000  Uiso   1.00
C203   C     0.03448   0.58801   0.80100   0.00000  Uiso   1.00
C204   C     0.06158   0.54584   0.74506   0.00000  Uiso   1.00
C205   C     0.95385   0.56381   0.93626   0.00000  Uiso   1.00
C206   C     0.88135   0.56425   0.95135   0.00000  Uiso   1.00
C207   C     0.83840   0.51120   0.96417   0.00000  Uiso   1.00
H208   H     0.08536   0.48162   0.91479   0.00000  Uiso   1.00
H209   H     0.18740   0.56819   0.00378   0.00000  Uiso   1.00
H210   H     0.11489   0.44300   0.79480   0.00000  Uiso   1.00
H211   H     0.96178   0.41924   0.94513   0.00000  Uiso   1.00
H212   H     0.28793   0.68691   0.10340   0.00000  Uiso   1.00
H213   H     0.13502   0.42292   0.66274   0.00000  Uiso   1.00
H214   H     0.81215   0.37282   0.97974   0.00000  Uiso   1.00
H215   H     0.98813   0.65695   0.92231   0.00000  Uiso   1.00
H216   H     0.08484   0.75313   0.01172   0.00000  Uiso   1.00
H217   H     0.01233   0.62794   0.80273   0.00000  Uiso   1.00
H218   H     0.85922   0.60418   0.95306   0.00000  Uiso   1.00
H219   H     0.20469   0.83702   0.10984   0.00000  Uiso   1.00
H220   H     0.05178   0.57303   0.66918   0.00000  Uiso   1.00
H221   H     0.72892   0.52293   0.98618   0.00000  Uiso   1.00
O222   O     0.31170   0.82208   0.16529   0.00000  Uiso   1.00
O223   O     0.11107   0.47573   0.58716   0.00000  Uiso   1.00
O224   O     0.68748   0.41000   0.00305   0.00000  Uiso   1.00
N225   N     0.25506   0.70904   0.09266   0.00000  Uiso   1.00
N226   N     0.11211   0.46223   0.68067   0.00000  Uiso   1.00
N227   N     0.81025   0.41538   0.97702   0.00000  Uiso   1.00
N228   N     0.21027   0.78981   0.09612   0.00000  Uiso   1.00
N229   N     0.06732   0.54301   0.68413   0.00000  Uiso   1.00
N230   N     0.76546   0.49615   0.98048   0.00000  Uiso   1.00
C231   C     0.97663   0.05361   0.77773   0.00000  Uiso   1.00
C232   C     0.97796   0.01152   0.81335   0.00000  Uiso   1.00
C233   C     0.02461   0.97034   0.80225   0.00000  Uiso   1.00
C234   C     0.01720   0.93600   0.83995   0.00000  Uiso   1.00
C235   C     0.02723   0.86965   0.88813   0.00000  Uiso   1.00
C236   C     0.98848   0.12742   0.82922   0.00000  Uiso   1.00
C237   C     0.04398   0.18370   0.83145   0.00000  Uiso   1.00
C238   C     0.04542   0.24692   0.88250   0.00000  Uiso   1.00
C239   C     0.07176   0.36053   0.95529   0.00000  Uiso   1.00
C240   C     0.89758   0.03028   0.75002   0.00000  Uiso   1.00
C241   C     0.87665   0.00489   0.68566   0.00000  Uiso   1.00
C242   C     0.80155   0.98635   0.67004   0.00000  Uiso   1.00
C243   C     0.68675   0.94913   0.61986   0.00000  Uiso   1.00
C244   C     0.88050   0.06584   0.86443   0.00000  Uiso   1.00
C245   C     0.92574   0.01816   0.86045   0.00000  Uiso   1.00
C246   C     0.91826   0.98387   0.89818   0.00000  Uiso   1.00
C247   C     0.96489   0.94265   0.88713   0.00000  Uiso   1.00
C248   C     0.93627   0.13407   0.87632   0.00000  Uiso   1.00
C249   C     0.93763   0.19723   0.92738   0.00000  Uiso   1.00
C250   C     0.99311   0.25358   0.92968   0.00000  Uiso   1.00
C251   C     0.84537   0.03692   0.79712   0.00000  Uiso   1.00
C252   C     0.77029   0.01842   0.78159   0.00000  Uiso   1.00
C253   C     0.74925   0.99301   0.71722   0.00000  Uiso   1.00
H254   H     0.01728   0.04844   0.74106   0.00000  Uiso   1.00
H255   H     0.06501   0.96522   0.76580   0.00000  Uiso   1.00
H256   H     0.08437   0.17854   0.79499   0.00000  Uiso   1.00
H257   H     0.91706   0.99976   0.64923   0.00000  Uiso   1.00
H258   H     0.09493   0.87589   0.81401   0.00000  Uiso   1.00
H259   H     0.13573   0.32570   0.87555   0.00000  Uiso   1.00
H260   H     0.78293   0.94871   0.56818   0.00000  Uiso   1.00
H261   H     0.83985   0.07102   0.90110   0.00000  Uiso   1.00
H262   H     0.87785   0.98902   0.93462   0.00000  Uiso   1.00
H263   H     0.89721   0.20235   0.96381   0.00000  Uiso   1.00
H264   H     0.72991   0.02357   0.81805   0.00000  Uiso   1.00
H265   H     0.94303   0.89522   0.95104   0.00000  Uiso   1.00
H266   H     0.98383   0.34503   0.01257   0.00000  Uiso   1.00
H267   H     0.63103   0.96804   0.70521   0.00000  Uiso   1.00
O268   O     0.04719   0.83123   0.90170   0.00000  Uiso   1.00
O269   O     0.10071   0.42136   0.98243   0.00000  Uiso   1.00
O270   O     0.63785   0.92676   0.57917   0.00000  Uiso   1.00
N271   N     0.05395   0.89168   0.84165   0.00000  Uiso   1.00
N272   N     0.09211   0.31222   0.89919   0.00000  Uiso   1.00
N273   N     0.76227   0.95979   0.61183   0.00000  Uiso   1.00
N274   N     0.97221   0.90208   0.91538   0.00000  Uiso   1.00
N275   N     0.01037   0.32262   0.97292   0.00000  Uiso   1.00
N276   N     0.68054   0.97019   0.68556   0.00000  Uiso   1.00
C277   C     0.37535   0.27080   0.23307   0.00000  Uiso   1.00
C278   C     0.37215   0.30749   0.30598   0.00000  Uiso   1.00
C279   C     0.33274   0.35497   0.33917   0.00000  Uiso   1.00
C280   C     0.33693   0.38273   0.40583   0.00000  Uiso   1.00
C281   C     0.32553   0.44258   0.51415   0.00000  Uiso   1.00
C282   C     0.34997   0.19428   0.21473   0.00000  Uiso   1.00
C283   C     0.29191   0.14657   0.17119   0.00000  Uiso   1.00
C284   C     0.27742   0.07902   0.16102   0.00000  Uiso   1.00
C285   C     0.23162   0.96310   0.12763   0.00000  Uiso   1.00
C286   C     0.45703   0.28655   0.21916   0.00000  Uiso   1.00
C287   C     0.48900   0.31642   0.17934   0.00000  Uiso   1.00
C288   C     0.56466   0.32655   0.17289   0.00000  Uiso   1.00
C289   C     0.68510   0.35389   0.14638   0.00000  Uiso   1.00
C290   C     0.45286   0.23567   0.29243   0.00000  Uiso   1.00
C291   C     0.41426   0.28840   0.33822   0.00000  Uiso   1.00
C292   C     0.41851   0.31610   0.40485   0.00000  Uiso   1.00
C293   C     0.37911   0.36362   0.43813   0.00000  Uiso   1.00
C294   C     0.39207   0.17519   0.24697   0.00000  Uiso   1.00
C295   C     0.37767   0.10770   0.23686   0.00000  Uiso   1.00
C296   C     0.31960   0.05991   0.19332   0.00000  Uiso   1.00
C297   C     0.49914   0.26747   0.25141   0.00000  Uiso   1.00
C298   C     0.57477   0.27755   0.24502   0.00000  Uiso   1.00
C299   C     0.60684   0.30743   0.20519   0.00000  Uiso   1.00
H300   H     0.34256   0.28565   0.20796   0.00000  Uiso   1.00
H301   H     0.30016   0.36972   0.31420   0.00000  Uiso   1.00
H302   H     0.25934   0.16135   0.14624   0.00000  Uiso   1.00
H303   H     0.45640   0.33118   0.15439   0.00000  Uiso   1.00
H304   H     0.27169   0.45449   0.44621   0.00000  Uiso   1.00
H305   H     0.18563   0.01513   0.09203   0.00000  Uiso   1.00
H306   H     0.60118   0.37324   0.10922   0.00000  Uiso   1.00
H307   H     0.48565   0.22081   0.31753   0.00000  Uiso   1.00
H308   H     0.45109   0.30132   0.42979   0.00000  Uiso   1.00
H309   H     0.41027   0.09295   0.26182   0.00000  Uiso   1.00
H310   H     0.60733   0.26278   0.26997   0.00000  Uiso   1.00
H311   H     0.39419   0.39898   0.54002   0.00000  Uiso   1.00
H312   H     0.30814   0.95961   0.18584   0.00000  Uiso   1.00
H313   H     0.72368   0.31772   0.20303   0.00000  Uiso   1.00
O314   O     0.30761   0.48085   0.56499   0.00000  Uiso   1.00
O315   O     0.19472   0.90443   0.10031   0.00000  Uiso   1.00
O316   O     0.73990   0.37426   0.12286   0.00000  Uiso   1.00
N317   N     0.30528   0.43039   0.45289   0.00000  Uiso   1.00
N318   N     0.22481   0.01961   0.12176   0.00000  Uiso   1.00
N319   N     0.61330   0.35440   0.13781   0.00000  Uiso   1.00
N320   N     0.37119   0.40051   0.50336   0.00000  Uiso   1.00
N321   N     0.29073   0.98974   0.17224   0.00000  Uiso   1.00
N322   N     0.67922   0.32452   0.18829   0.00000  Uiso   1.00
C323   C     0.41684   0.29213   0.86817   0.00000  Uiso   1.00
C324   C     0.43947   0.32336   0.82125   0.00000  Uiso   1.00
C325   C     0.39476   0.31348   0.77139   0.00000  Uiso   1.00
C326   C     0.42575   0.34655   0.73384   0.00000  Uiso   1.00
C327   C     0.44975   0.38877   0.65919   0.00000  Uiso   1.00
C328   C     0.43055   0.35228   0.93525   0.00000  Uiso   1.00
C329   C     0.37833   0.36671   0.98124   0.00000  Uiso   1.00
C330   C     0.40182   0.42413   0.03967   0.00000  Uiso   1.00
C331   C     0.41199   0.51121   0.14203   0.00000  Uiso   1.00
C332   C     0.47271   0.25305   0.86309   0.00000  Uiso   1.00
C333   C     0.45596   0.18405   0.84842   0.00000  Uiso   1.00
C334   C     0.51495   0.15792   0.84611   0.00000  Uiso   1.00
C335   C     0.59059   0.09093   0.83642   0.00000  Uiso   1.00
C336   C     0.55139   0.36843   0.89017   0.00000  Uiso   1.00
C337   C     0.51255   0.36480   0.83320   0.00000  Uiso   1.00
C338   C     0.54362   0.39790   0.79572   0.00000  Uiso   1.00
C339   C     0.49896   0.38807   0.74581   0.00000  Uiso   1.00
C340   C     0.50363   0.39372   0.94720   0.00000  Uiso   1.00
C341   C     0.52720   0.45113   0.00558   0.00000  Uiso   1.00
C342   C     0.47504   0.46565   0.05164   0.00000  Uiso   1.00
C343   C     0.54580   0.29449   0.87504   0.00000  Uiso   1.00
C344   C     0.60482   0.26847   0.87275   0.00000  Uiso   1.00
C345   C     0.58816   0.19944   0.85808   0.00000  Uiso   1.00
H346   H     0.35994   0.25987   0.85887   0.00000  Uiso   1.00
H347   H     0.33820   0.28141   0.76216   0.00000  Uiso   1.00
H348   H     0.32179   0.33463   0.97198   0.00000  Uiso   1.00
H349   H     0.39940   0.15199   0.83918   0.00000  Uiso   1.00
H350   H     0.34631   0.32359   0.66022   0.00000  Uiso   1.00
H351   H     0.31171   0.43579   0.10265   0.00000  Uiso   1.00
H352   H     0.47537   0.05067   0.82261   0.00000  Uiso   1.00
H353   H     0.60829   0.40070   0.89947   0.00000  Uiso   1.00
H354   H     0.60017   0.42997   0.80498   0.00000  Uiso   1.00
H355   H     0.58376   0.48318   0.01481   0.00000  Uiso   1.00
H356   H     0.66137   0.30055   0.88200   0.00000  Uiso   1.00
H357   H     0.55894   0.44417   0.69497   0.00000  Uiso   1.00
H358   H     0.52433   0.55636   0.13742   0.00000  Uiso   1.00
H359   H     0.68800   0.17124   0.85737   0.00000  Uiso   1.00
O360   O     0.44280   0.40061   0.61472   0.00000  Uiso   1.00
O361   O     0.39740   0.54780   0.19518   0.00000  Uiso   1.00
O362   O     0.61212   0.04253   0.82776   0.00000  Uiso   1.00
N363   N     0.39747   0.34794   0.68136   0.00000  Uiso   1.00
N364   N     0.36512   0.45284   0.09501   0.00000  Uiso   1.00
N365   N     0.51813   0.09279   0.83320   0.00000  Uiso   1.00
N366   N     0.51188   0.41282   0.70006   0.00000  Uiso   1.00
N367   N     0.47953   0.51773   0.11371   0.00000  Uiso   1.00
N368   N     0.63254   0.15767   0.85190   0.00000  Uiso   1.00
C369   C     0.32775   0.95050   0.95033   0.00000  Uiso   1.00
C370   C     0.32671   0.87511   0.91997   0.00000  Uiso   1.00
C371   C     0.28086   0.82535   0.93567   0.00000  Uiso   1.00
C372   C     0.28841   0.75933   0.90237   0.00000  Uiso   1.00
C373   C     0.27892   0.64464   0.86239   0.00000  Uiso   1.00
C374   C     0.31459   0.96538   0.89495   0.00000  Uiso   1.00
C375   C     0.25855   0.99152   0.88962   0.00000  Uiso   1.00
C376   C     0.25590   0.00149   0.83525   0.00000  Uiso   1.00
C377   C     0.22763   0.02700   0.75645   0.00000  Uiso   1.00
C378   C     0.40701   0.99129   0.97642   0.00000  Uiso   1.00
C379   C     0.42868   0.03923   0.03959   0.00000  Uiso   1.00
C380   C     0.50385   0.07103   0.05381   0.00000  Uiso   1.00
C381   C     0.61907   0.13676   0.10150   0.00000  Uiso   1.00
C382   C     0.42270   0.92172   0.86326   0.00000  Uiso   1.00
C383   C     0.37828   0.85948   0.87267   0.00000  Uiso   1.00
C384   C     0.38590   0.79351   0.83934   0.00000  Uiso   1.00
C385   C     0.34007   0.74367   0.85499   0.00000  Uiso   1.00
C386   C     0.36616   0.94975   0.84765   0.00000  Uiso   1.00
C387   C     0.36359   0.95969   0.79329   0.00000  Uiso   1.00
C388   C     0.30756   0.98584   0.78787   0.00000  Uiso   1.00
C389   C     0.45858   0.97566   0.92912   0.00000  Uiso   1.00
C390   C     0.53373   0.00739   0.94325   0.00000  Uiso   1.00
C391   C     0.55551   0.05537   0.00643   0.00000  Uiso   1.00
H392   H     0.28760   0.96267   0.98715   0.00000  Uiso   1.00
H393   H     0.24095   0.83747   0.97227   0.00000  Uiso   1.00
H394   H     0.21866   0.00362   0.92623   0.00000  Uiso   1.00
H395   H     0.38876   0.05131   0.07617   0.00000  Uiso   1.00
H396   H     0.21196   0.69176   0.93490   0.00000  Uiso   1.00
H397   H     0.16496   0.04213   0.83783   0.00000  Uiso   1.00
H398   H     0.52366   0.14270   0.15401   0.00000  Uiso   1.00
H399   H     0.46285   0.90955   0.82644   0.00000  Uiso   1.00
H400   H     0.42582   0.78143   0.80274   0.00000  Uiso   1.00
H401   H     0.40351   0.94759   0.75670   0.00000  Uiso   1.00
H402   H     0.57362   0.99528   0.90664   0.00000  Uiso   1.00
H403   H     0.36200   0.64628   0.79730   0.00000  Uiso   1.00
H404   H     0.31499   0.99665   0.70023   0.00000  Uiso   1.00
H405   H     0.67369   0.09722   0.01641   0.00000  Uiso   1.00
O406   O     0.25944   0.58569   0.85340   0.00000  Uiso   1.00
O407   O     0.19778   0.04537   0.72605   0.00000  Uiso   1.00
O408   O     0.66838   0.17732   0.14087   0.00000  Uiso   1.00
N409   N     0.25236   0.69864   0.90578   0.00000  Uiso   1.00
N410   N     0.20841   0.02620   0.81501   0.00000  Uiso   1.00
N411   N     0.54376   0.12025   0.11062   0.00000  Uiso   1.00
N412   N     0.33310   0.67417   0.83174   0.00000  Uiso   1.00
N413   N     0.28914   0.00173   0.74097   0.00000  Uiso   1.00
N414   N     0.62450   0.09578   0.03658   0.00000  Uiso   1.00
C415   C     0.82219   0.69834   0.68431   0.00000  Uiso   1.00
C416   C     0.79977   0.74286   0.75065   0.00000  Uiso   1.00
C417   C     0.79593   0.73032   0.80411   0.00000  Uiso   1.00
C418   C     0.77423   0.77716   0.86039   0.00000  Uiso   1.00
C419   C     0.74200   0.83754   0.96299   0.00000  Uiso   1.00
C420   C     0.75821   0.67896   0.63739   0.00000  Uiso   1.00
C421   C     0.71943   0.61268   0.59561   0.00000  Uiso   1.00
C422   C     0.66274   0.60573   0.55654   0.00000  Uiso   1.00
C423   C     0.56602   0.56690   0.48326   0.00000  Uiso   1.00
C424   C     0.88686   0.74550   0.66824   0.00000  Uiso   1.00
C425   C     0.95624   0.73517   0.65239   0.00000  Uiso   1.00
C426   C     0.00787   0.78424   0.63928   0.00000  Uiso   1.00
C427   C     0.11090   0.84874   0.61391   0.00000  Uiso   1.00
C428   C     0.79048   0.80383   0.68920   0.00000  Uiso   1.00
C429   C     0.78255   0.80016   0.75330   0.00000  Uiso   1.00
C430   C     0.76085   0.84703   0.80952   0.00000  Uiso   1.00
C431   C     0.75698   0.83456   0.86305   0.00000  Uiso   1.00
C432   C     0.74098   0.73625   0.64004   0.00000  Uiso   1.00
C433   C     0.68435   0.72939   0.60102   0.00000  Uiso   1.00
C434   C     0.64549   0.66313   0.55920   0.00000  Uiso   1.00
C435   C     0.86964   0.80280   0.67090   0.00000  Uiso   1.00
C436   C     0.92116   0.85189   0.65780   0.00000  Uiso   1.00
C437   C     0.99062   0.84164   0.64194   0.00000  Uiso   1.00
H438   H     0.83560   0.65373   0.68224   0.00000  Uiso   1.00
H439   H     0.80926   0.68597   0.80203   0.00000  Uiso   1.00
H440   H     0.73277   0.56835   0.59356   0.00000  Uiso   1.00
H441   H     0.96955   0.69083   0.65034   0.00000  Uiso   1.00
H442   H     0.77243   0.74696   0.93601   0.00000  Uiso   1.00
H443   H     0.61118   0.49896   0.49642   0.00000  Uiso   1.00
H444   H     0.11047   0.75722   0.61614   0.00000  Uiso   1.00
H445   H     0.77707   0.84844   0.69126   0.00000  Uiso   1.00
H446   H     0.74752   0.89136   0.81156   0.00000  Uiso   1.00
H447   H     0.67104   0.77375   0.60309   0.00000  Uiso   1.00
H448   H     0.90782   0.89622   0.65986   0.00000  Uiso   1.00
H449   H     0.72232   0.91366   0.94374   0.00000  Uiso   1.00
H450   H     0.56107   0.66566   0.50415   0.00000  Uiso   1.00
H451   H     0.06037   0.92393   0.62387   0.00000  Uiso   1.00
O452   O     0.72897   0.85502   0.01884   0.00000  Uiso   1.00
O453   O     0.51742   0.52966   0.44211   0.00000  Uiso   1.00
O454   O     0.17249   0.86849   0.59919   0.00000  Uiso   1.00
N455   N     0.76471   0.78031   0.92133   0.00000  Uiso   1.00
N456   N     0.61394   0.54845   0.51034   0.00000  Uiso   1.00
N457   N     0.08073   0.78989   0.62226   0.00000  Uiso   1.00
N458   N     0.73775   0.87001   0.92549   0.00000  Uiso   1.00
N459   N     0.58698   0.63815   0.51450   0.00000  Uiso   1.00
N460   N     0.05377   0.87959   0.62642   0.00000  Uiso   1.00
C461   C     0.99562   0.51297   0.28679   0.00000  Uiso   1.00
C462   C     0.96901   0.43662   0.24133   0.00000  Uiso   1.00
C463   C     0.90432   0.40414   0.20242   0.00000  Uiso   1.00
C464   C     0.88985   0.33392   0.16428   0.00000  Uiso   1.00
C465   C     0.84113   0.22089   0.09360   0.00000  Uiso   1.00
C466   C     0.00641   0.51783   0.35316   0.00000  Uiso   1.00
C467   C     0.97318   0.55363   0.40827   0.00000  Uiso   1.00
C468   C     0.99020   0.55177   0.46427   0.00000  Uiso   1.00
C469   C     0.99960   0.56486   0.56721   0.00000  Uiso   1.00
C470   C     0.07264   0.53859   0.26690   0.00000  Uiso   1.00
C471   C     0.09511   0.59186   0.24950   0.00000  Uiso   1.00
C472   C     0.16789   0.60749   0.23289   0.00000  Uiso   1.00
C473   C     0.28012   0.65281   0.20190   0.00000  Uiso   1.00
C474   C     0.08494   0.44603   0.28826   0.00000  Uiso   1.00
C475   C     0.01753   0.40026   0.24213   0.00000  Uiso   1.00
C476   C     0.00315   0.33007   0.20404   0.00000  Uiso   1.00
C477   C     0.93845   0.29749   0.16508   0.00000  Uiso   1.00
C478   C     0.05493   0.48147   0.35396   0.00000  Uiso   1.00
C479   C     0.07201   0.47956   0.40989   0.00000  Uiso   1.00
C480   C     0.03881   0.51534   0.46507   0.00000  Uiso   1.00
C481   C     0.12116   0.50223   0.26769   0.00000  Uiso   1.00
C482   C     0.19393   0.51778   0.25112   0.00000  Uiso   1.00
C483   C     0.21650   0.57106   0.23369   0.00000  Uiso   1.00
H484   H     0.95785   0.54129   0.28617   0.00000  Uiso   1.00
H485   H     0.86679   0.43230   0.20182   0.00000  Uiso   1.00
H486   H     0.93564   0.58177   0.40763   0.00000  Uiso   1.00
H487   H     0.05755   0.61999   0.24888   0.00000  Uiso   1.00
H488   H     0.78721   0.29543   0.10866   0.00000  Uiso   1.00
H489   H     0.93242   0.61061   0.54265   0.00000  Uiso   1.00
H490   H     0.18947   0.69121   0.20789   0.00000  Uiso   1.00
H491   H     0.12272   0.41772   0.28888   0.00000  Uiso   1.00
H492   H     0.04070   0.30194   0.20467   0.00000  Uiso   1.00
H493   H     0.10956   0.45142   0.41049   0.00000  Uiso   1.00
H494   H     0.23146   0.48963   0.25174   0.00000  Uiso   1.00
H495   H     0.92837   0.18962   0.11098   0.00000  Uiso   1.00
H496   H     0.07357   0.50481   0.54497   0.00000  Uiso   1.00
H497   H     0.33063   0.58540   0.21021   0.00000  Uiso   1.00
O498   O     0.80085   0.16859   0.05439   0.00000  Uiso   1.00
O499   O     0.99137   0.58212   0.62376   0.00000  Uiso   1.00
O500   O     0.32861   0.68785   0.18457   0.00000  Uiso   1.00
N501   N     0.83170   0.28641   0.12076   0.00000  Uiso   1.00
N502   N     0.96745   0.58109   0.52650   0.00000  Uiso   1.00
N503   N     0.20778   0.65645   0.21355   0.00000  Uiso   1.00
N504   N     0.90765   0.22948   0.12200   0.00000  Uiso   1.00
N505   N     0.04340   0.52416   0.52775   0.00000  Uiso   1.00
N506   N     0.28373   0.59952   0.21480   0.00000  Uiso   1.00
C507   C     0.86878   0.72217   0.21465   0.00000  Uiso   1.00
C508   C     0.89308   0.76094   0.17405   0.00000  Uiso   1.00
C509   C     0.84678   0.77947   0.14562   0.00000  Uiso   1.00
C510   C     0.87974   0.81474   0.11035   0.00000  Uiso   1.00
C511   C     0.90582   0.87246   0.04828   0.00000  Uiso   1.00
C512   C     0.89721   0.65873   0.18258   0.00000  Uiso   1.00
C513   C     0.85438   0.59133   0.16132   0.00000  Uiso   1.00
C514   C     0.89083   0.54056   0.13324   0.00000  Uiso   1.00
C515   C     0.92333   0.43961   0.08445   0.00000  Uiso   1.00
C516   C     0.91259   0.76716   0.27906   0.00000  Uiso   1.00
C517   C     0.88271   0.79092   0.33893   0.00000  Uiso   1.00
C518   C     0.93211   0.83143   0.39209   0.00000  Uiso   1.00
C519   C     0.98850   0.89883   0.49310   0.00000  Uiso   1.00
C520   C     0.00965   0.75185   0.20259   0.00000  Uiso   1.00
C521   C     0.96959   0.77706   0.16750   0.00000  Uiso   1.00
C522   C     0.00263   0.81232   0.13227   0.00000  Uiso   1.00
C523   C     0.95639   0.83090   0.10379   0.00000  Uiso   1.00
C524   C     0.97372   0.67486   0.17602   0.00000  Uiso   1.00
C525   C     0.01023   0.62418   0.14798   0.00000  Uiso   1.00
C526   C     0.96748   0.55672   0.12668   0.00000  Uiso   1.00
C527   C     0.98911   0.78329   0.27251   0.00000  Uiso   1.00
C528   C     0.03856   0.82377   0.32559   0.00000  Uiso   1.00
C529   C     0.00876   0.84758   0.38553   0.00000  Uiso   1.00
H530   H     0.80922   0.70961   0.21975   0.00000  Uiso   1.00
H531   H     0.78757   0.76698   0.15069   0.00000  Uiso   1.00
H532   H     0.79518   0.57887   0.16640   0.00000  Uiso   1.00
H533   H     0.82350   0.77843   0.34398   0.00000  Uiso   1.00
H534   H     0.79731   0.83767   0.07122   0.00000  Uiso   1.00
H535   H     0.81335   0.44104   0.10436   0.00000  Uiso   1.00
H536   H     0.87307   0.86184   0.47883   0.00000  Uiso   1.00
H537   H     0.06922   0.76441   0.19749   0.00000  Uiso   1.00
H538   H     0.06184   0.82479   0.12721   0.00000  Uiso   1.00
H539   H     0.06944   0.63668   0.14292   0.00000  Uiso   1.00
H540   H     0.09776   0.83623   0.32050   0.00000  Uiso   1.00
H541   H     0.01991   0.88459   0.05216   0.00000  Uiso   1.00
H542   H     0.03596   0.48795   0.08531   0.00000  Uiso   1.00
H543   H     0.09568   0.90876   0.45977   0.00000  Uiso   1.00
O544   O     0.89906   0.89984   0.01584   0.00000  Uiso   1.00
O545   O     0.92011   0.37947   0.05934   0.00000  Uiso   1.00
O546   O     0.99847   0.93156   0.55063   0.00000  Uiso   1.00
N547   N     0.85071   0.84044   0.07639   0.00000  Uiso   1.00
N548   N     0.86571   0.46961   0.10737   0.00000  Uiso   1.00
N549   N     0.92155   0.86301   0.45747   0.00000  Uiso   1.00
N550   N     0.97049   0.86569   0.06613   0.00000  Uiso   1.00
N551   N     0.98549   0.49485   0.09711   0.00000  Uiso   1.00
N552   N     0.04133   0.88826   0.44721   0.00000  Uiso   1.00
