data_job_00844
_audit_creation_date              2018-12-19
_audit_creation_method            'Materials Studio'
_symmetry_space_group_name_H-M    'P1'
_symmetry_Int_Tables_number       1
_symmetry_cell_setting            triclinic
loop_
_symmetry_equiv_pos_as_xyz
  x,y,z
_cell_length_a                    29.5956
_cell_length_b                    11.5849
_cell_length_c                    14.1056
_cell_angle_alpha                 90.0000
_cell_angle_beta                  90.0000
_cell_angle_gamma                 90.0000
loop_
_atom_site_label
_atom_site_type_symbol
_atom_site_fract_x
_atom_site_fract_y
_atom_site_fract_z
_atom_site_U_iso_or_equiv
_atom_site_adp_type
_atom_site_occupancy
C1     C     0.34777   0.75237   0.55437   0.00000  Uiso   1.00
C2     C     0.35006   0.88015   0.57986   0.00000  Uiso   1.00
C3     C     0.32426   0.96720   0.53940   0.00000  Uiso   1.00
C4     C     0.33139   0.07861   0.57245   0.00000  Uiso   1.00
C5     C     0.33011   0.27347   0.60121   0.00000  Uiso   1.00
C6     C     0.39562   0.71768   0.52612   0.00000  Uiso   1.00
C7     C     0.40812   0.66811   0.44048   0.00000  Uiso   1.00
C8     C     0.45360   0.64274   0.42830   0.00000  Uiso   1.00
C9     C     0.52306   0.58530   0.37365   0.00000  Uiso   1.00
C10    C     0.33776   0.68877   0.64666   0.00000  Uiso   1.00
C11    C     0.30162   0.61486   0.66236   0.00000  Uiso   1.00
C12    C     0.29840   0.56513   0.75166   0.00000  Uiso   1.00
C13    C     0.27802   0.46279   0.88416   0.00000  Uiso   1.00
C14    C     0.40632   0.79542   0.68503   0.00000  Uiso   1.00
C15    C     0.38186   0.90354   0.65083   0.00000  Uiso   1.00
C16    C     0.38903   0.01484   0.68396   0.00000  Uiso   1.00
C17    C     0.36324   0.10204   0.64355   0.00000  Uiso   1.00
C18    C     0.42742   0.74107   0.59709   0.00000  Uiso   1.00
C19    C     0.47289   0.71575   0.58504   0.00000  Uiso   1.00
C20    C     0.48546   0.66617   0.49940   0.00000  Uiso   1.00
C21    C     0.36956   0.71216   0.71763   0.00000  Uiso   1.00
C22    C     0.36639   0.66251   0.80692   0.00000  Uiso   1.00
C23    C     0.33026   0.58855   0.82276   0.00000  Uiso   1.00
H24    H     0.32302   0.73415   0.49911   0.00000  Uiso   1.00
H25    H     0.29966   0.94907   0.48447   0.00000  Uiso   1.00
H26    H     0.38351   0.65002   0.38557   0.00000  Uiso   1.00
H27    H     0.27703   0.59679   0.60742   0.00000  Uiso   1.00
H28    H     0.28779   0.19766   0.49951   0.00000  Uiso   1.00
H29    H     0.46459   0.56706   0.29099   0.00000  Uiso   1.00
H30    H     0.24005   0.45480   0.75880   0.00000  Uiso   1.00
H31    H     0.43107   0.81363   0.74029   0.00000  Uiso   1.00
H32    H     0.41364   0.03291   0.73888   0.00000  Uiso   1.00
H33    H     0.49749   0.73386   0.63998   0.00000  Uiso   1.00
H34    H     0.39101   0.68063   0.86183   0.00000  Uiso   1.00
H35    H     0.38030   0.26571   0.70600   0.00000  Uiso   1.00
H36    H     0.55710   0.63511   0.49747   0.00000  Uiso   1.00
H37    H     0.33256   0.52286   0.96528   0.00000  Uiso   1.00
O38    O     0.32063   0.37450   0.59745   0.00000  Uiso   1.00
O39    O     0.55259   0.54716   0.32389   0.00000  Uiso   1.00
O40    O     0.25800   0.39990   0.93764   0.00000  Uiso   1.00
N41    N     0.31195   0.18358   0.54831   0.00000  Uiso   1.00
N42    N     0.47725   0.59402   0.35335   0.00000  Uiso   1.00
N43    N     0.26733   0.48905   0.79070   0.00000  Uiso   1.00
N44    N     0.36173   0.22019   0.65942   0.00000  Uiso   1.00
N45    N     0.52703   0.63064   0.46446   0.00000  Uiso   1.00
N46    N     0.31711   0.52567   0.90181   0.00000  Uiso   1.00
C47    C     0.15223   0.74763   0.05437   0.00000  Uiso   1.00
C48    C     0.14994   0.61985   0.07986   0.00000  Uiso   1.00
C49    C     0.17574   0.53280   0.03940   0.00000  Uiso   1.00
C50    C     0.16861   0.42139   0.07245   0.00000  Uiso   1.00
C51    C     0.16989   0.22653   0.10121   0.00000  Uiso   1.00
C52    C     0.10438   0.78232   0.02612   0.00000  Uiso   1.00
C53    C     0.09188   0.83189   0.94048   0.00000  Uiso   1.00
C54    C     0.04640   0.85726   0.92830   0.00000  Uiso   1.00
C55    C     0.97694   0.91470   0.87365   0.00000  Uiso   1.00
C56    C     0.16224   0.81123   0.14666   0.00000  Uiso   1.00
C57    C     0.19838   0.88514   0.16236   0.00000  Uiso   1.00
C58    C     0.20160   0.93487   0.25166   0.00000  Uiso   1.00
C59    C     0.22198   0.03721   0.38416   0.00000  Uiso   1.00
C60    C     0.09368   0.70458   0.18503   0.00000  Uiso   1.00
C61    C     0.11814   0.59646   0.15083   0.00000  Uiso   1.00
C62    C     0.11097   0.48516   0.18396   0.00000  Uiso   1.00
C63    C     0.13676   0.39796   0.14355   0.00000  Uiso   1.00
C64    C     0.07258   0.75893   0.09709   0.00000  Uiso   1.00
C65    C     0.02711   0.78425   0.08504   0.00000  Uiso   1.00
C66    C     0.01454   0.83383   0.99940   0.00000  Uiso   1.00
C67    C     0.13044   0.78784   0.21763   0.00000  Uiso   1.00
C68    C     0.13361   0.83749   0.30692   0.00000  Uiso   1.00
C69    C     0.16974   0.91145   0.32276   0.00000  Uiso   1.00
H70    H     0.17698   0.76585   0.99911   0.00000  Uiso   1.00
H71    H     0.20034   0.55093   0.98447   0.00000  Uiso   1.00
H72    H     0.11649   0.84998   0.88557   0.00000  Uiso   1.00
H73    H     0.22297   0.90321   0.10742   0.00000  Uiso   1.00
H74    H     0.21221   0.30234   0.99951   0.00000  Uiso   1.00
H75    H     0.03541   0.93294   0.79099   0.00000  Uiso   1.00
H76    H     0.25995   0.04520   0.25880   0.00000  Uiso   1.00
H77    H     0.06893   0.68637   0.24029   0.00000  Uiso   1.00
H78    H     0.08636   0.46709   0.23888   0.00000  Uiso   1.00
H79    H     0.00251   0.76614   0.13998   0.00000  Uiso   1.00
H80    H     0.10899   0.81937   0.36183   0.00000  Uiso   1.00
H81    H     0.11970   0.23429   0.20600   0.00000  Uiso   1.00
H82    H     0.94290   0.86489   0.99747   0.00000  Uiso   1.00
H83    H     0.16744   0.97714   0.46528   0.00000  Uiso   1.00
O84    O     0.17937   0.12550   0.09745   0.00000  Uiso   1.00
O85    O     0.94741   0.95284   0.82389   0.00000  Uiso   1.00
O86    O     0.24200   0.10010   0.43764   0.00000  Uiso   1.00
N87    N     0.18805   0.31642   0.04831   0.00000  Uiso   1.00
N88    N     0.02275   0.90598   0.85335   0.00000  Uiso   1.00
N89    N     0.23267   0.01095   0.29070   0.00000  Uiso   1.00
N90    N     0.13827   0.27981   0.15942   0.00000  Uiso   1.00
N91    N     0.97297   0.86936   0.96446   0.00000  Uiso   1.00
N92    N     0.18289   0.97433   0.40181   0.00000  Uiso   1.00
C93    C     0.65223   0.75237   0.94563   0.00000  Uiso   1.00
C94    C     0.64994   0.88015   0.92014   0.00000  Uiso   1.00
C95    C     0.67574   0.96720   0.96060   0.00000  Uiso   1.00
C96    C     0.66861   0.07861   0.92755   0.00000  Uiso   1.00
C97    C     0.66989   0.27347   0.89879   0.00000  Uiso   1.00
C98    C     0.60438   0.71768   0.97388   0.00000  Uiso   1.00
C99    C     0.59188   0.66811   0.05952   0.00000  Uiso   1.00
C100   C     0.54640   0.64274   0.07170   0.00000  Uiso   1.00
C101   C     0.47694   0.58530   0.12635   0.00000  Uiso   1.00
C102   C     0.66224   0.68877   0.85334   0.00000  Uiso   1.00
C103   C     0.69838   0.61486   0.83764   0.00000  Uiso   1.00
C104   C     0.70160   0.56513   0.74834   0.00000  Uiso   1.00
C105   C     0.72198   0.46279   0.61584   0.00000  Uiso   1.00
C106   C     0.59368   0.79542   0.81497   0.00000  Uiso   1.00
C107   C     0.61814   0.90354   0.84917   0.00000  Uiso   1.00
C108   C     0.61097   0.01484   0.81604   0.00000  Uiso   1.00
C109   C     0.63676   0.10204   0.85645   0.00000  Uiso   1.00
C110   C     0.57258   0.74107   0.90291   0.00000  Uiso   1.00
C111   C     0.52711   0.71575   0.91496   0.00000  Uiso   1.00
C112   C     0.51454   0.66617   0.00060   0.00000  Uiso   1.00
C113   C     0.63044   0.71216   0.78237   0.00000  Uiso   1.00
C114   C     0.63361   0.66251   0.69308   0.00000  Uiso   1.00
C115   C     0.66974   0.58855   0.67724   0.00000  Uiso   1.00
H116   H     0.67698   0.73415   0.00089   0.00000  Uiso   1.00
H117   H     0.70034   0.94907   0.01553   0.00000  Uiso   1.00
H118   H     0.61649   0.65002   0.11443   0.00000  Uiso   1.00
H119   H     0.72297   0.59679   0.89258   0.00000  Uiso   1.00
H120   H     0.71221   0.19766   0.00049   0.00000  Uiso   1.00
H121   H     0.53541   0.56706   0.20901   0.00000  Uiso   1.00
H122   H     0.75995   0.45480   0.74120   0.00000  Uiso   1.00
H123   H     0.56893   0.81363   0.75971   0.00000  Uiso   1.00
H124   H     0.58636   0.03291   0.76112   0.00000  Uiso   1.00
H125   H     0.50251   0.73386   0.86002   0.00000  Uiso   1.00
H126   H     0.60899   0.68063   0.63817   0.00000  Uiso   1.00
H127   H     0.61970   0.26571   0.79400   0.00000  Uiso   1.00
H128   H     0.44290   0.63511   0.00253   0.00000  Uiso   1.00
H129   H     0.66744   0.52286   0.53472   0.00000  Uiso   1.00
O130   O     0.67937   0.37450   0.90255   0.00000  Uiso   1.00
O131   O     0.44741   0.54716   0.17611   0.00000  Uiso   1.00
O132   O     0.74200   0.39990   0.56236   0.00000  Uiso   1.00
N133   N     0.68805   0.18358   0.95169   0.00000  Uiso   1.00
N134   N     0.52275   0.59402   0.14665   0.00000  Uiso   1.00
N135   N     0.73267   0.48905   0.70930   0.00000  Uiso   1.00
N136   N     0.63827   0.22019   0.84058   0.00000  Uiso   1.00
N137   N     0.47297   0.63064   0.03554   0.00000  Uiso   1.00
N138   N     0.68289   0.52567   0.59819   0.00000  Uiso   1.00
C139   C     0.84777   0.74763   0.44563   0.00000  Uiso   1.00
C140   C     0.85006   0.61985   0.42014   0.00000  Uiso   1.00
C141   C     0.82426   0.53280   0.46060   0.00000  Uiso   1.00
C142   C     0.83139   0.42139   0.42755   0.00000  Uiso   1.00
C143   C     0.83011   0.22653   0.39879   0.00000  Uiso   1.00
C144   C     0.89562   0.78232   0.47388   0.00000  Uiso   1.00
C145   C     0.90812   0.83189   0.55952   0.00000  Uiso   1.00
C146   C     0.95360   0.85726   0.57170   0.00000  Uiso   1.00
C147   C     0.02306   0.91470   0.62635   0.00000  Uiso   1.00
C148   C     0.83776   0.81123   0.35334   0.00000  Uiso   1.00
C149   C     0.80162   0.88514   0.33764   0.00000  Uiso   1.00
C150   C     0.79840   0.93487   0.24834   0.00000  Uiso   1.00
C151   C     0.77802   0.03721   0.11584   0.00000  Uiso   1.00
C152   C     0.90632   0.70458   0.31497   0.00000  Uiso   1.00
C153   C     0.88186   0.59646   0.34917   0.00000  Uiso   1.00
C154   C     0.88903   0.48516   0.31604   0.00000  Uiso   1.00
C155   C     0.86324   0.39796   0.35645   0.00000  Uiso   1.00
C156   C     0.92742   0.75893   0.40291   0.00000  Uiso   1.00
C157   C     0.97289   0.78425   0.41496   0.00000  Uiso   1.00
C158   C     0.98546   0.83383   0.50060   0.00000  Uiso   1.00
C159   C     0.86956   0.78784   0.28237   0.00000  Uiso   1.00
C160   C     0.86639   0.83749   0.19308   0.00000  Uiso   1.00
C161   C     0.83026   0.91145   0.17724   0.00000  Uiso   1.00
H162   H     0.82302   0.76585   0.50089   0.00000  Uiso   1.00
H163   H     0.79966   0.55093   0.51553   0.00000  Uiso   1.00
H164   H     0.88351   0.84998   0.61443   0.00000  Uiso   1.00
H165   H     0.77703   0.90321   0.39258   0.00000  Uiso   1.00
H166   H     0.78779   0.30234   0.50049   0.00000  Uiso   1.00
H167   H     0.96459   0.93294   0.70901   0.00000  Uiso   1.00
H168   H     0.74005   0.04520   0.24120   0.00000  Uiso   1.00
H169   H     0.93107   0.68637   0.25971   0.00000  Uiso   1.00
H170   H     0.91364   0.46709   0.26112   0.00000  Uiso   1.00
H171   H     0.99749   0.76614   0.36002   0.00000  Uiso   1.00
H172   H     0.89101   0.81937   0.13817   0.00000  Uiso   1.00
H173   H     0.88030   0.23429   0.29400   0.00000  Uiso   1.00
H174   H     0.05710   0.86489   0.50253   0.00000  Uiso   1.00
H175   H     0.83256   0.97714   0.03472   0.00000  Uiso   1.00
O176   O     0.82063   0.12550   0.40255   0.00000  Uiso   1.00
O177   O     0.05259   0.95284   0.67611   0.00000  Uiso   1.00
O178   O     0.75800   0.10010   0.06236   0.00000  Uiso   1.00
N179   N     0.81195   0.31642   0.45169   0.00000  Uiso   1.00
N180   N     0.97725   0.90598   0.64665   0.00000  Uiso   1.00
N181   N     0.76733   0.01095   0.20930   0.00000  Uiso   1.00
N182   N     0.86173   0.27981   0.34058   0.00000  Uiso   1.00
N183   N     0.02703   0.86936   0.53554   0.00000  Uiso   1.00
N184   N     0.81711   0.97433   0.09819   0.00000  Uiso   1.00
C185   C     0.65223   0.24763   0.44563   0.00000  Uiso   1.00
C186   C     0.64994   0.11985   0.42014   0.00000  Uiso   1.00
C187   C     0.67574   0.03280   0.46060   0.00000  Uiso   1.00
C188   C     0.66861   0.92139   0.42755   0.00000  Uiso   1.00
C189   C     0.66989   0.72653   0.39879   0.00000  Uiso   1.00
C190   C     0.60438   0.28232   0.47388   0.00000  Uiso   1.00
C191   C     0.59188   0.33189   0.55952   0.00000  Uiso   1.00
C192   C     0.54640   0.35726   0.57170   0.00000  Uiso   1.00
C193   C     0.47694   0.41470   0.62635   0.00000  Uiso   1.00
C194   C     0.66224   0.31123   0.35334   0.00000  Uiso   1.00
C195   C     0.69838   0.38514   0.33764   0.00000  Uiso   1.00
C196   C     0.70160   0.43487   0.24834   0.00000  Uiso   1.00
C197   C     0.72198   0.53721   0.11584   0.00000  Uiso   1.00
C198   C     0.59368   0.20458   0.31497   0.00000  Uiso   1.00
C199   C     0.61814   0.09646   0.34917   0.00000  Uiso   1.00
C200   C     0.61097   0.98516   0.31604   0.00000  Uiso   1.00
C201   C     0.63676   0.89796   0.35645   0.00000  Uiso   1.00
C202   C     0.57258   0.25893   0.40291   0.00000  Uiso   1.00
C203   C     0.52711   0.28425   0.41496   0.00000  Uiso   1.00
C204   C     0.51454   0.33383   0.50060   0.00000  Uiso   1.00
C205   C     0.63044   0.28784   0.28237   0.00000  Uiso   1.00
C206   C     0.63361   0.33749   0.19308   0.00000  Uiso   1.00
C207   C     0.66974   0.41145   0.17724   0.00000  Uiso   1.00
H208   H     0.67698   0.26585   0.50089   0.00000  Uiso   1.00
H209   H     0.70034   0.05093   0.51553   0.00000  Uiso   1.00
H210   H     0.61649   0.34998   0.61443   0.00000  Uiso   1.00
H211   H     0.72297   0.40321   0.39258   0.00000  Uiso   1.00
H212   H     0.71221   0.80234   0.50049   0.00000  Uiso   1.00
H213   H     0.53541   0.43294   0.70901   0.00000  Uiso   1.00
H214   H     0.75995   0.54520   0.24120   0.00000  Uiso   1.00
H215   H     0.56893   0.18637   0.25971   0.00000  Uiso   1.00
H216   H     0.58636   0.96709   0.26112   0.00000  Uiso   1.00
H217   H     0.50251   0.26614   0.36002   0.00000  Uiso   1.00
H218   H     0.60899   0.31937   0.13817   0.00000  Uiso   1.00
H219   H     0.61970   0.73429   0.29400   0.00000  Uiso   1.00
H220   H     0.44290   0.36489   0.50253   0.00000  Uiso   1.00
H221   H     0.66744   0.47714   0.03472   0.00000  Uiso   1.00
O222   O     0.67937   0.62550   0.40255   0.00000  Uiso   1.00
O223   O     0.44741   0.45284   0.67611   0.00000  Uiso   1.00
O224   O     0.74200   0.60010   0.06236   0.00000  Uiso   1.00
N225   N     0.68805   0.81642   0.45169   0.00000  Uiso   1.00
N226   N     0.52275   0.40598   0.64665   0.00000  Uiso   1.00
N227   N     0.73267   0.51095   0.20930   0.00000  Uiso   1.00
N228   N     0.63827   0.77981   0.34058   0.00000  Uiso   1.00
N229   N     0.47297   0.36936   0.53554   0.00000  Uiso   1.00
N230   N     0.68289   0.47433   0.09819   0.00000  Uiso   1.00
C231   C     0.84777   0.25237   0.94563   0.00000  Uiso   1.00
C232   C     0.85006   0.38015   0.92014   0.00000  Uiso   1.00
C233   C     0.82426   0.46720   0.96060   0.00000  Uiso   1.00
C234   C     0.83139   0.57861   0.92755   0.00000  Uiso   1.00
C235   C     0.83011   0.77347   0.89879   0.00000  Uiso   1.00
C236   C     0.89562   0.21768   0.97388   0.00000  Uiso   1.00
C237   C     0.90812   0.16811   0.05952   0.00000  Uiso   1.00
C238   C     0.95360   0.14274   0.07170   0.00000  Uiso   1.00
C239   C     0.02306   0.08530   0.12635   0.00000  Uiso   1.00
C240   C     0.83776   0.18877   0.85334   0.00000  Uiso   1.00
C241   C     0.80162   0.11486   0.83764   0.00000  Uiso   1.00
C242   C     0.79840   0.06513   0.74834   0.00000  Uiso   1.00
C243   C     0.77802   0.96279   0.61584   0.00000  Uiso   1.00
C244   C     0.90632   0.29542   0.81497   0.00000  Uiso   1.00
C245   C     0.88186   0.40354   0.84917   0.00000  Uiso   1.00
C246   C     0.88903   0.51484   0.81604   0.00000  Uiso   1.00
C247   C     0.86324   0.60204   0.85645   0.00000  Uiso   1.00
C248   C     0.92742   0.24107   0.90291   0.00000  Uiso   1.00
C249   C     0.97289   0.21575   0.91496   0.00000  Uiso   1.00
C250   C     0.98546   0.16617   0.00060   0.00000  Uiso   1.00
C251   C     0.86956   0.21216   0.78237   0.00000  Uiso   1.00
C252   C     0.86639   0.16251   0.69308   0.00000  Uiso   1.00
C253   C     0.83026   0.08855   0.67724   0.00000  Uiso   1.00
H254   H     0.82302   0.23415   0.00089   0.00000  Uiso   1.00
H255   H     0.79966   0.44907   0.01553   0.00000  Uiso   1.00
H256   H     0.88351   0.15002   0.11443   0.00000  Uiso   1.00
H257   H     0.77703   0.09679   0.89258   0.00000  Uiso   1.00
H258   H     0.78779   0.69766   0.00049   0.00000  Uiso   1.00
H259   H     0.96459   0.06706   0.20901   0.00000  Uiso   1.00
H260   H     0.74005   0.95480   0.74120   0.00000  Uiso   1.00
H261   H     0.93107   0.31363   0.75971   0.00000  Uiso   1.00
H262   H     0.91364   0.53291   0.76112   0.00000  Uiso   1.00
H263   H     0.99749   0.23386   0.86002   0.00000  Uiso   1.00
H264   H     0.89101   0.18063   0.63817   0.00000  Uiso   1.00
H265   H     0.88030   0.76571   0.79400   0.00000  Uiso   1.00
H266   H     0.05710   0.13511   0.00253   0.00000  Uiso   1.00
H267   H     0.83256   0.02286   0.53472   0.00000  Uiso   1.00
O268   O     0.82063   0.87450   0.90255   0.00000  Uiso   1.00
O269   O     0.05259   0.04716   0.17611   0.00000  Uiso   1.00
O270   O     0.75800   0.89990   0.56236   0.00000  Uiso   1.00
N271   N     0.81195   0.68358   0.95169   0.00000  Uiso   1.00
N272   N     0.97725   0.09402   0.14665   0.00000  Uiso   1.00
N273   N     0.76733   0.98905   0.70930   0.00000  Uiso   1.00
N274   N     0.86173   0.72019   0.84058   0.00000  Uiso   1.00
N275   N     0.02703   0.13064   0.03554   0.00000  Uiso   1.00
N276   N     0.81711   0.02567   0.59819   0.00000  Uiso   1.00
C277   C     0.34777   0.24763   0.05437   0.00000  Uiso   1.00
C278   C     0.35006   0.11985   0.07986   0.00000  Uiso   1.00
C279   C     0.32426   0.03280   0.03940   0.00000  Uiso   1.00
C280   C     0.33139   0.92139   0.07245   0.00000  Uiso   1.00
C281   C     0.33011   0.72653   0.10121   0.00000  Uiso   1.00
C282   C     0.39562   0.28232   0.02612   0.00000  Uiso   1.00
C283   C     0.40812   0.33189   0.94048   0.00000  Uiso   1.00
C284   C     0.45360   0.35726   0.92830   0.00000  Uiso   1.00
C285   C     0.52306   0.41470   0.87365   0.00000  Uiso   1.00
C286   C     0.33776   0.31123   0.14666   0.00000  Uiso   1.00
C287   C     0.30162   0.38514   0.16236   0.00000  Uiso   1.00
C288   C     0.29840   0.43487   0.25166   0.00000  Uiso   1.00
C289   C     0.27802   0.53721   0.38416   0.00000  Uiso   1.00
C290   C     0.40632   0.20458   0.18503   0.00000  Uiso   1.00
C291   C     0.38186   0.09646   0.15083   0.00000  Uiso   1.00
C292   C     0.38903   0.98516   0.18396   0.00000  Uiso   1.00
C293   C     0.36324   0.89796   0.14355   0.00000  Uiso   1.00
C294   C     0.42742   0.25893   0.09709   0.00000  Uiso   1.00
C295   C     0.47289   0.28425   0.08504   0.00000  Uiso   1.00
C296   C     0.48546   0.33383   0.99940   0.00000  Uiso   1.00
C297   C     0.36956   0.28784   0.21763   0.00000  Uiso   1.00
C298   C     0.36639   0.33749   0.30692   0.00000  Uiso   1.00
C299   C     0.33026   0.41145   0.32276   0.00000  Uiso   1.00
H300   H     0.32302   0.26585   0.99911   0.00000  Uiso   1.00
H301   H     0.29966   0.05093   0.98447   0.00000  Uiso   1.00
H302   H     0.38351   0.34998   0.88557   0.00000  Uiso   1.00
H303   H     0.27703   0.40321   0.10742   0.00000  Uiso   1.00
H304   H     0.28779   0.80234   0.99951   0.00000  Uiso   1.00
H305   H     0.46459   0.43294   0.79099   0.00000  Uiso   1.00
H306   H     0.24005   0.54520   0.25880   0.00000  Uiso   1.00
H307   H     0.43107   0.18637   0.24029   0.00000  Uiso   1.00
H308   H     0.41364   0.96709   0.23888   0.00000  Uiso   1.00
H309   H     0.49749   0.26614   0.13998   0.00000  Uiso   1.00
H310   H     0.39101   0.31937   0.36183   0.00000  Uiso   1.00
H311   H     0.38030   0.73429   0.20600   0.00000  Uiso   1.00
H312   H     0.55710   0.36489   0.99747   0.00000  Uiso   1.00
H313   H     0.33256   0.47714   0.46528   0.00000  Uiso   1.00
O314   O     0.32063   0.62550   0.09745   0.00000  Uiso   1.00
O315   O     0.55259   0.45284   0.82389   0.00000  Uiso   1.00
O316   O     0.25800   0.60010   0.43764   0.00000  Uiso   1.00
N317   N     0.31195   0.81642   0.04831   0.00000  Uiso   1.00
N318   N     0.47725   0.40598   0.85335   0.00000  Uiso   1.00
N319   N     0.26733   0.51095   0.29070   0.00000  Uiso   1.00
N320   N     0.36173   0.77981   0.15942   0.00000  Uiso   1.00
N321   N     0.52703   0.36936   0.96446   0.00000  Uiso   1.00
N322   N     0.31711   0.47433   0.40181   0.00000  Uiso   1.00
C323   C     0.15223   0.25237   0.55437   0.00000  Uiso   1.00
C324   C     0.14994   0.38015   0.57986   0.00000  Uiso   1.00
C325   C     0.17574   0.46720   0.53940   0.00000  Uiso   1.00
C326   C     0.16861   0.57861   0.57245   0.00000  Uiso   1.00
C327   C     0.16989   0.77347   0.60121   0.00000  Uiso   1.00
C328   C     0.10438   0.21768   0.52612   0.00000  Uiso   1.00
C329   C     0.09188   0.16811   0.44048   0.00000  Uiso   1.00
C330   C     0.04640   0.14274   0.42830   0.00000  Uiso   1.00
C331   C     0.97694   0.08530   0.37365   0.00000  Uiso   1.00
C332   C     0.16224   0.18877   0.64666   0.00000  Uiso   1.00
C333   C     0.19838   0.11486   0.66236   0.00000  Uiso   1.00
C334   C     0.20160   0.06513   0.75166   0.00000  Uiso   1.00
C335   C     0.22198   0.96279   0.88416   0.00000  Uiso   1.00
C336   C     0.09368   0.29542   0.68503   0.00000  Uiso   1.00
C337   C     0.11814   0.40354   0.65083   0.00000  Uiso   1.00
C338   C     0.11097   0.51484   0.68396   0.00000  Uiso   1.00
C339   C     0.13676   0.60204   0.64355   0.00000  Uiso   1.00
C340   C     0.07258   0.24107   0.59709   0.00000  Uiso   1.00
C341   C     0.02711   0.21575   0.58504   0.00000  Uiso   1.00
C342   C     0.01454   0.16617   0.49940   0.00000  Uiso   1.00
C343   C     0.13044   0.21216   0.71763   0.00000  Uiso   1.00
C344   C     0.13361   0.16251   0.80692   0.00000  Uiso   1.00
C345   C     0.16974   0.08855   0.82276   0.00000  Uiso   1.00
H346   H     0.17698   0.23415   0.49911   0.00000  Uiso   1.00
H347   H     0.20034   0.44907   0.48447   0.00000  Uiso   1.00
H348   H     0.11649   0.15002   0.38557   0.00000  Uiso   1.00
H349   H     0.22297   0.09679   0.60742   0.00000  Uiso   1.00
H350   H     0.21221   0.69766   0.49951   0.00000  Uiso   1.00
H351   H     0.03541   0.06706   0.29099   0.00000  Uiso   1.00
H352   H     0.25995   0.95480   0.75880   0.00000  Uiso   1.00
H353   H     0.06893   0.31363   0.74029   0.00000  Uiso   1.00
H354   H     0.08636   0.53291   0.73888   0.00000  Uiso   1.00
H355   H     0.00251   0.23386   0.63998   0.00000  Uiso   1.00
H356   H     0.10899   0.18063   0.86183   0.00000  Uiso   1.00
H357   H     0.11970   0.76571   0.70600   0.00000  Uiso   1.00
H358   H     0.94290   0.13511   0.49747   0.00000  Uiso   1.00
H359   H     0.16744   0.02286   0.96528   0.00000  Uiso   1.00
O360   O     0.17937   0.87450   0.59745   0.00000  Uiso   1.00
O361   O     0.94741   0.04716   0.32389   0.00000  Uiso   1.00
O362   O     0.24200   0.89990   0.93764   0.00000  Uiso   1.00
N363   N     0.18805   0.68358   0.54831   0.00000  Uiso   1.00
N364   N     0.02275   0.09402   0.35335   0.00000  Uiso   1.00
N365   N     0.23267   0.98905   0.79070   0.00000  Uiso   1.00
N366   N     0.13827   0.72019   0.65942   0.00000  Uiso   1.00
N367   N     0.97297   0.13064   0.46446   0.00000  Uiso   1.00
N368   N     0.18289   0.02567   0.90181   0.00000  Uiso   1.00
