data_job_05575
_audit_creation_date              2018-12-19
_audit_creation_method            'Materials Studio'
_symmetry_space_group_name_H-M    'P1'
_symmetry_Int_Tables_number       1
_symmetry_cell_setting            triclinic
loop_
_symmetry_equiv_pos_as_xyz
  x,y,z
_cell_length_a                    12.3496
_cell_length_b                    12.5525
_cell_length_c                    42.7596
_cell_angle_alpha                 90.0000
_cell_angle_beta                  111.5133
_cell_angle_gamma                 90.0000
loop_
_atom_site_label
_atom_site_type_symbol
_atom_site_fract_x
_atom_site_fract_y
_atom_site_fract_z
_atom_site_U_iso_or_equiv
_atom_site_adp_type
_atom_site_occupancy
C1     C     0.79854   0.24721   0.59830   0.00000  Uiso   1.00
C2     C     0.87578   0.17625   0.58630   0.00000  Uiso   1.00
C3     C     0.83839   0.09040   0.56453   0.00000  Uiso   1.00
C4     C     0.92260   0.03555   0.55662   0.00000  Uiso   1.00
C5     C     0.02469   0.92077   0.53597   0.00000  Uiso   1.00
C6     C     0.84945   0.24249   0.63660   0.00000  Uiso   1.00
C7     C     0.78992   0.21235   0.65712   0.00000  Uiso   1.00
C8     C     0.85196   0.21328   0.69155   0.00000  Uiso   1.00
C9     C     0.91315   0.20141   0.74898   0.00000  Uiso   1.00
C10    C     0.81845   0.36075   0.58892   0.00000  Uiso   1.00
C11    C     0.73284   0.43007   0.56935   0.00000  Uiso   1.00
C12    C     0.76879   0.53058   0.56364   0.00000  Uiso   1.00
C13    C     0.78183   0.70234   0.54704   0.00000  Uiso   1.00
C14    C     0.01457   0.30247   0.62298   0.00000  Uiso   1.00
C15    C     0.99312   0.20626   0.59971   0.00000  Uiso   1.00
C16    C     0.07741   0.15154   0.59183   0.00000  Uiso   1.00
C17    C     0.04015   0.06562   0.57005   0.00000  Uiso   1.00
C18    C     0.96679   0.27250   0.65000   0.00000  Uiso   1.00
C19    C     0.02893   0.27349   0.68442   0.00000  Uiso   1.00
C20    C     0.96951   0.24335   0.70498   0.00000  Uiso   1.00
C21    C     0.93579   0.39077   0.60232   0.00000  Uiso   1.00
C22    C     0.97186   0.49120   0.59665   0.00000  Uiso   1.00
C23    C     0.88634   0.56065   0.57707   0.00000  Uiso   1.00
H24    H     0.70719   0.22384   0.58787   0.00000  Uiso   1.00
H25    H     0.74758   0.06719   0.55417   0.00000  Uiso   1.00
H26    H     0.69911   0.18914   0.64674   0.00000  Uiso   1.00
H27    H     0.64205   0.40681   0.55898   0.00000  Uiso   1.00
H28    H     0.84411   0.90673   0.52272   0.00000  Uiso   1.00
H29    H     0.74190   0.16389   0.71791   0.00000  Uiso   1.00
H30    H     0.62158   0.62291   0.53286   0.00000  Uiso   1.00
H31    H     0.10593   0.32584   0.63342   0.00000  Uiso   1.00
H32    H     0.16820   0.17478   0.60221   0.00000  Uiso   1.00
H33    H     0.11973   0.29672   0.69478   0.00000  Uiso   1.00
H34    H     0.06267   0.51440   0.60702   0.00000  Uiso   1.00
H35    H     0.18551   0.99405   0.56171   0.00000  Uiso   1.00
H36    H     0.08329   0.25121   0.75690   0.00000  Uiso   1.00
H37    H     0.96297   0.71023   0.57185   0.00000  Uiso   1.00
O38    O     0.04858   0.84915   0.52087   0.00000  Uiso   1.00
O39    O     0.91448   0.18656   0.77696   0.00000  Uiso   1.00
O40    O     0.75662   0.78878   0.53417   0.00000  Uiso   1.00
N41    N     0.91591   0.94802   0.53617   0.00000  Uiso   1.00
N42    N     0.82035   0.18843   0.71867   0.00000  Uiso   1.00
N43    N     0.70786   0.61759   0.54566   0.00000  Uiso   1.00
N44    N     0.09961   0.99501   0.55716   0.00000  Uiso   1.00
N45    N     0.00406   0.23542   0.73965   0.00000  Uiso   1.00
N46    N     0.89156   0.66458   0.56665   0.00000  Uiso   1.00
C47    C     0.28994   0.89496   0.09969   0.00000  Uiso   1.00
C48    C     0.36983   0.81800   0.09082   0.00000  Uiso   1.00
C49    C     0.33468   0.72744   0.07105   0.00000  Uiso   1.00
C50    C     0.42112   0.66748   0.06589   0.00000  Uiso   1.00
C51    C     0.52733   0.54344   0.04997   0.00000  Uiso   1.00
C52    C     0.33513   0.89964   0.13798   0.00000  Uiso   1.00
C53    C     0.27079   0.87773   0.15787   0.00000  Uiso   1.00
C54    C     0.32802   0.88651   0.19242   0.00000  Uiso   1.00
C55    C     0.38032   0.88929   0.24973   0.00000  Uiso   1.00
C56    C     0.31291   0.00463   0.08809   0.00000  Uiso   1.00
C57    C     0.22988   0.07102   0.06603   0.00000  Uiso   1.00
C58    C     0.26840   0.16821   0.05857   0.00000  Uiso   1.00
C59    C     0.28621   0.33401   0.03840   0.00000  Uiso   1.00
C60    C     0.50598   0.94953   0.12567   0.00000  Uiso   1.00
C61    C     0.48718   0.84764   0.10493   0.00000  Uiso   1.00
C62    C     0.57370   0.78781   0.09979   0.00000  Uiso   1.00
C63    C     0.53867   0.69717   0.08002   0.00000  Uiso   1.00
C64    C     0.45247   0.92927   0.15209   0.00000  Uiso   1.00
C65    C     0.50981   0.93810   0.18662   0.00000  Uiso   1.00
C66    C     0.44557   0.91620   0.20655   0.00000  Uiso   1.00
C67    C     0.43025   0.03427   0.10219   0.00000  Uiso   1.00
C68    C     0.46891   0.13138   0.09477   0.00000  Uiso   1.00
C69    C     0.38596   0.19791   0.07270   0.00000  Uiso   1.00
H70    H     0.19858   0.87188   0.08871   0.00000  Uiso   1.00
H71    H     0.24386   0.70452   0.06014   0.00000  Uiso   1.00
H72    H     0.17998   0.85480   0.14695   0.00000  Uiso   1.00
H73    H     0.13909   0.04806   0.05512   0.00000  Uiso   1.00
H74    H     0.34580   0.53202   0.03469   0.00000  Uiso   1.00
H75    H     0.21110   0.84893   0.21774   0.00000  Uiso   1.00
H76    H     0.12486   0.25645   0.02409   0.00000  Uiso   1.00
H77    H     0.59734   0.97260   0.13666   0.00000  Uiso   1.00
H78    H     0.66450   0.81076   0.11071   0.00000  Uiso   1.00
H79    H     0.60061   0.96104   0.19753   0.00000  Uiso   1.00
H80    H     0.55972   0.15430   0.10569   0.00000  Uiso   1.00
H81    H     0.68721   0.61824   0.07575   0.00000  Uiso   1.00
H82    H     0.55250   0.93516   0.25879   0.00000  Uiso   1.00
H83    H     0.46627   0.34267   0.06514   0.00000  Uiso   1.00
O84    O     0.55349   0.46683   0.03730   0.00000  Uiso   1.00
O85    O     0.37676   0.88263   0.27744   0.00000  Uiso   1.00
O86    O     0.26362   0.41727   0.02338   0.00000  Uiso   1.00
N87    N     0.41693   0.57453   0.04791   0.00000  Uiso   1.00
N88    N     0.29100   0.87081   0.21904   0.00000  Uiso   1.00
N89    N     0.21037   0.25181   0.03801   0.00000  Uiso   1.00
N90    N     0.60064   0.62093   0.07000   0.00000  Uiso   1.00
N91    N     0.47471   0.91721   0.24113   0.00000  Uiso   1.00
N92    N     0.39408   0.29821   0.06010   0.00000  Uiso   1.00
C93    C     0.20146   0.74721   0.90170   0.00000  Uiso   1.00
C94    C     0.12422   0.67625   0.91370   0.00000  Uiso   1.00
C95    C     0.16161   0.59040   0.93547   0.00000  Uiso   1.00
C96    C     0.07740   0.53555   0.94338   0.00000  Uiso   1.00
C97    C     0.97531   0.42077   0.96403   0.00000  Uiso   1.00
C98    C     0.15055   0.74249   0.86340   0.00000  Uiso   1.00
C99    C     0.21008   0.71235   0.84288   0.00000  Uiso   1.00
C100   C     0.14804   0.71328   0.80845   0.00000  Uiso   1.00
C101   C     0.08685   0.70141   0.75102   0.00000  Uiso   1.00
C102   C     0.18155   0.86075   0.91108   0.00000  Uiso   1.00
C103   C     0.26716   0.93007   0.93065   0.00000  Uiso   1.00
C104   C     0.23121   0.03058   0.93636   0.00000  Uiso   1.00
C105   C     0.21817   0.20234   0.95296   0.00000  Uiso   1.00
C106   C     0.98543   0.80247   0.87702   0.00000  Uiso   1.00
C107   C     0.00688   0.70626   0.90029   0.00000  Uiso   1.00
C108   C     0.92259   0.65154   0.90817   0.00000  Uiso   1.00
C109   C     0.95985   0.56562   0.92995   0.00000  Uiso   1.00
C110   C     0.03321   0.77250   0.85000   0.00000  Uiso   1.00
C111   C     0.97107   0.77349   0.81558   0.00000  Uiso   1.00
C112   C     0.03049   0.74335   0.79502   0.00000  Uiso   1.00
C113   C     0.06421   0.89077   0.89768   0.00000  Uiso   1.00
C114   C     0.02814   0.99120   0.90335   0.00000  Uiso   1.00
C115   C     0.11366   0.06065   0.92293   0.00000  Uiso   1.00
H116   H     0.29281   0.72384   0.91213   0.00000  Uiso   1.00
H117   H     0.25242   0.56719   0.94583   0.00000  Uiso   1.00
H118   H     0.30089   0.68914   0.85326   0.00000  Uiso   1.00
H119   H     0.35795   0.90681   0.94102   0.00000  Uiso   1.00
H120   H     0.15589   0.40673   0.97728   0.00000  Uiso   1.00
H121   H     0.25810   0.66389   0.78209   0.00000  Uiso   1.00
H122   H     0.37842   0.12291   0.96714   0.00000  Uiso   1.00
H123   H     0.89407   0.82584   0.86658   0.00000  Uiso   1.00
H124   H     0.83180   0.67478   0.89779   0.00000  Uiso   1.00
H125   H     0.88027   0.79672   0.80522   0.00000  Uiso   1.00
H126   H     0.93733   0.01440   0.89298   0.00000  Uiso   1.00
H127   H     0.81449   0.49405   0.93829   0.00000  Uiso   1.00
H128   H     0.91671   0.75121   0.74310   0.00000  Uiso   1.00
H129   H     0.03703   0.21023   0.92815   0.00000  Uiso   1.00
O130   O     0.95142   0.34915   0.97913   0.00000  Uiso   1.00
O131   O     0.08552   0.68656   0.72304   0.00000  Uiso   1.00
O132   O     0.24338   0.28878   0.96583   0.00000  Uiso   1.00
N133   N     0.08409   0.44802   0.96383   0.00000  Uiso   1.00
N134   N     0.17965   0.68843   0.78133   0.00000  Uiso   1.00
N135   N     0.29214   0.11759   0.95434   0.00000  Uiso   1.00
N136   N     0.90039   0.49501   0.94284   0.00000  Uiso   1.00
N137   N     0.99594   0.73542   0.76035   0.00000  Uiso   1.00
N138   N     0.10844   0.16458   0.93335   0.00000  Uiso   1.00
C139   C     0.71006   0.39496   0.40031   0.00000  Uiso   1.00
C140   C     0.63017   0.31800   0.40918   0.00000  Uiso   1.00
C141   C     0.66532   0.22744   0.42895   0.00000  Uiso   1.00
C142   C     0.57888   0.16748   0.43411   0.00000  Uiso   1.00
C143   C     0.47267   0.04344   0.45003   0.00000  Uiso   1.00
C144   C     0.66487   0.39964   0.36202   0.00000  Uiso   1.00
C145   C     0.72921   0.37773   0.34213   0.00000  Uiso   1.00
C146   C     0.67198   0.38651   0.30758   0.00000  Uiso   1.00
C147   C     0.61968   0.38929   0.25027   0.00000  Uiso   1.00
C148   C     0.68709   0.50463   0.41191   0.00000  Uiso   1.00
C149   C     0.77012   0.57102   0.43397   0.00000  Uiso   1.00
C150   C     0.73160   0.66821   0.44143   0.00000  Uiso   1.00
C151   C     0.71379   0.83401   0.46160   0.00000  Uiso   1.00
C152   C     0.49402   0.44953   0.37433   0.00000  Uiso   1.00
C153   C     0.51282   0.34764   0.39507   0.00000  Uiso   1.00
C154   C     0.42630   0.28781   0.40021   0.00000  Uiso   1.00
C155   C     0.46133   0.19717   0.41998   0.00000  Uiso   1.00
C156   C     0.54753   0.42927   0.34791   0.00000  Uiso   1.00
C157   C     0.49019   0.43810   0.31338   0.00000  Uiso   1.00
C158   C     0.55443   0.41620   0.29345   0.00000  Uiso   1.00
C159   C     0.56975   0.53427   0.39781   0.00000  Uiso   1.00
C160   C     0.53109   0.63138   0.40523   0.00000  Uiso   1.00
C161   C     0.61404   0.69791   0.42730   0.00000  Uiso   1.00
H162   H     0.80142   0.37188   0.41129   0.00000  Uiso   1.00
H163   H     0.75614   0.20452   0.43986   0.00000  Uiso   1.00
H164   H     0.82002   0.35480   0.35305   0.00000  Uiso   1.00
H165   H     0.86091   0.54806   0.44488   0.00000  Uiso   1.00
H166   H     0.65420   0.03202   0.46531   0.00000  Uiso   1.00
H167   H     0.78890   0.34893   0.28226   0.00000  Uiso   1.00
H168   H     0.87514   0.75645   0.47591   0.00000  Uiso   1.00
H169   H     0.40266   0.47260   0.36334   0.00000  Uiso   1.00
H170   H     0.33550   0.31076   0.38929   0.00000  Uiso   1.00
H171   H     0.39939   0.46104   0.30247   0.00000  Uiso   1.00
H172   H     0.44028   0.65430   0.39431   0.00000  Uiso   1.00
H173   H     0.31279   0.11824   0.42425   0.00000  Uiso   1.00
H174   H     0.44750   0.43516   0.24121   0.00000  Uiso   1.00
H175   H     0.53373   0.84267   0.43486   0.00000  Uiso   1.00
O176   O     0.44651   0.96683   0.46270   0.00000  Uiso   1.00
O177   O     0.62324   0.38263   0.22256   0.00000  Uiso   1.00
O178   O     0.73638   0.91727   0.47662   0.00000  Uiso   1.00
N179   N     0.58307   0.07453   0.45209   0.00000  Uiso   1.00
N180   N     0.70900   0.37081   0.28096   0.00000  Uiso   1.00
N181   N     0.78963   0.75181   0.46199   0.00000  Uiso   1.00
N182   N     0.39936   0.12093   0.43000   0.00000  Uiso   1.00
N183   N     0.52529   0.41721   0.25887   0.00000  Uiso   1.00
N184   N     0.60592   0.79821   0.43990   0.00000  Uiso   1.00
C185   C     0.20146   0.75279   0.40170   0.00000  Uiso   1.00
C186   C     0.12422   0.82375   0.41370   0.00000  Uiso   1.00
C187   C     0.16161   0.90960   0.43547   0.00000  Uiso   1.00
C188   C     0.07740   0.96445   0.44338   0.00000  Uiso   1.00
C189   C     0.97531   0.07923   0.46403   0.00000  Uiso   1.00
C190   C     0.15055   0.75751   0.36340   0.00000  Uiso   1.00
C191   C     0.21008   0.78765   0.34288   0.00000  Uiso   1.00
C192   C     0.14804   0.78672   0.30845   0.00000  Uiso   1.00
C193   C     0.08685   0.79859   0.25102   0.00000  Uiso   1.00
C194   C     0.18155   0.63925   0.41108   0.00000  Uiso   1.00
C195   C     0.26716   0.56993   0.43065   0.00000  Uiso   1.00
C196   C     0.23121   0.46942   0.43636   0.00000  Uiso   1.00
C197   C     0.21817   0.29766   0.45296   0.00000  Uiso   1.00
C198   C     0.98543   0.69753   0.37702   0.00000  Uiso   1.00
C199   C     0.00688   0.79374   0.40029   0.00000  Uiso   1.00
C200   C     0.92259   0.84846   0.40817   0.00000  Uiso   1.00
C201   C     0.95985   0.93438   0.42995   0.00000  Uiso   1.00
C202   C     0.03321   0.72750   0.35000   0.00000  Uiso   1.00
C203   C     0.97107   0.72651   0.31558   0.00000  Uiso   1.00
C204   C     0.03049   0.75665   0.29502   0.00000  Uiso   1.00
C205   C     0.06421   0.60923   0.39768   0.00000  Uiso   1.00
C206   C     0.02814   0.50880   0.40335   0.00000  Uiso   1.00
C207   C     0.11366   0.43935   0.42293   0.00000  Uiso   1.00
H208   H     0.29281   0.77616   0.41213   0.00000  Uiso   1.00
H209   H     0.25242   0.93281   0.44583   0.00000  Uiso   1.00
H210   H     0.30089   0.81086   0.35326   0.00000  Uiso   1.00
H211   H     0.35795   0.59319   0.44102   0.00000  Uiso   1.00
H212   H     0.15589   0.09327   0.47728   0.00000  Uiso   1.00
H213   H     0.25810   0.83611   0.28209   0.00000  Uiso   1.00
H214   H     0.37842   0.37709   0.46714   0.00000  Uiso   1.00
H215   H     0.89407   0.67416   0.36658   0.00000  Uiso   1.00
H216   H     0.83180   0.82522   0.39779   0.00000  Uiso   1.00
H217   H     0.88027   0.70328   0.30522   0.00000  Uiso   1.00
H218   H     0.93733   0.48560   0.39298   0.00000  Uiso   1.00
H219   H     0.81449   0.00595   0.43829   0.00000  Uiso   1.00
H220   H     0.91671   0.74879   0.24310   0.00000  Uiso   1.00
H221   H     0.03703   0.28977   0.42815   0.00000  Uiso   1.00
O222   O     0.95142   0.15085   0.47913   0.00000  Uiso   1.00
O223   O     0.08552   0.81344   0.22304   0.00000  Uiso   1.00
O224   O     0.24338   0.21122   0.46583   0.00000  Uiso   1.00
N225   N     0.08409   0.05198   0.46383   0.00000  Uiso   1.00
N226   N     0.17965   0.81157   0.28133   0.00000  Uiso   1.00
N227   N     0.29214   0.38241   0.45434   0.00000  Uiso   1.00
N228   N     0.90039   0.00499   0.44284   0.00000  Uiso   1.00
N229   N     0.99594   0.76458   0.26035   0.00000  Uiso   1.00
N230   N     0.10844   0.33542   0.43335   0.00000  Uiso   1.00
C231   C     0.71006   0.10504   0.90031   0.00000  Uiso   1.00
C232   C     0.63017   0.18200   0.90918   0.00000  Uiso   1.00
C233   C     0.66532   0.27256   0.92895   0.00000  Uiso   1.00
C234   C     0.57888   0.33252   0.93411   0.00000  Uiso   1.00
C235   C     0.47267   0.45656   0.95003   0.00000  Uiso   1.00
C236   C     0.66487   0.10036   0.86202   0.00000  Uiso   1.00
C237   C     0.72921   0.12227   0.84213   0.00000  Uiso   1.00
C238   C     0.67198   0.11349   0.80758   0.00000  Uiso   1.00
C239   C     0.61968   0.11071   0.75027   0.00000  Uiso   1.00
C240   C     0.68709   0.99537   0.91191   0.00000  Uiso   1.00
C241   C     0.77012   0.92898   0.93397   0.00000  Uiso   1.00
C242   C     0.73160   0.83179   0.94143   0.00000  Uiso   1.00
C243   C     0.71379   0.66599   0.96160   0.00000  Uiso   1.00
C244   C     0.49402   0.05047   0.87433   0.00000  Uiso   1.00
C245   C     0.51282   0.15236   0.89507   0.00000  Uiso   1.00
C246   C     0.42630   0.21219   0.90021   0.00000  Uiso   1.00
C247   C     0.46133   0.30283   0.91998   0.00000  Uiso   1.00
C248   C     0.54753   0.07073   0.84791   0.00000  Uiso   1.00
C249   C     0.49019   0.06190   0.81338   0.00000  Uiso   1.00
C250   C     0.55443   0.08380   0.79345   0.00000  Uiso   1.00
C251   C     0.56975   0.96573   0.89781   0.00000  Uiso   1.00
C252   C     0.53109   0.86862   0.90523   0.00000  Uiso   1.00
C253   C     0.61404   0.80209   0.92730   0.00000  Uiso   1.00
H254   H     0.80142   0.12812   0.91129   0.00000  Uiso   1.00
H255   H     0.75614   0.29548   0.93986   0.00000  Uiso   1.00
H256   H     0.82002   0.14520   0.85305   0.00000  Uiso   1.00
H257   H     0.86091   0.95194   0.94488   0.00000  Uiso   1.00
H258   H     0.65420   0.46798   0.96531   0.00000  Uiso   1.00
H259   H     0.78890   0.15107   0.78226   0.00000  Uiso   1.00
H260   H     0.87514   0.74355   0.97591   0.00000  Uiso   1.00
H261   H     0.40266   0.02740   0.86334   0.00000  Uiso   1.00
H262   H     0.33550   0.18924   0.88929   0.00000  Uiso   1.00
H263   H     0.39939   0.03896   0.80247   0.00000  Uiso   1.00
H264   H     0.44028   0.84570   0.89431   0.00000  Uiso   1.00
H265   H     0.31279   0.38176   0.92425   0.00000  Uiso   1.00
H266   H     0.44750   0.06484   0.74121   0.00000  Uiso   1.00
H267   H     0.53373   0.65733   0.93486   0.00000  Uiso   1.00
O268   O     0.44651   0.53317   0.96270   0.00000  Uiso   1.00
O269   O     0.62324   0.11737   0.72256   0.00000  Uiso   1.00
O270   O     0.73638   0.58273   0.97662   0.00000  Uiso   1.00
N271   N     0.58307   0.42547   0.95209   0.00000  Uiso   1.00
N272   N     0.70900   0.12919   0.78096   0.00000  Uiso   1.00
N273   N     0.78963   0.74819   0.96199   0.00000  Uiso   1.00
N274   N     0.39936   0.37907   0.93000   0.00000  Uiso   1.00
N275   N     0.52529   0.08279   0.75887   0.00000  Uiso   1.00
N276   N     0.60592   0.70179   0.93990   0.00000  Uiso   1.00
C277   C     0.79854   0.25279   0.09830   0.00000  Uiso   1.00
C278   C     0.87578   0.32375   0.08630   0.00000  Uiso   1.00
C279   C     0.83839   0.40960   0.06453   0.00000  Uiso   1.00
C280   C     0.92260   0.46445   0.05662   0.00000  Uiso   1.00
C281   C     0.02469   0.57923   0.03597   0.00000  Uiso   1.00
C282   C     0.84945   0.25751   0.13660   0.00000  Uiso   1.00
C283   C     0.78992   0.28765   0.15712   0.00000  Uiso   1.00
C284   C     0.85196   0.28672   0.19155   0.00000  Uiso   1.00
C285   C     0.91315   0.29859   0.24898   0.00000  Uiso   1.00
C286   C     0.81845   0.13925   0.08892   0.00000  Uiso   1.00
C287   C     0.73284   0.06993   0.06935   0.00000  Uiso   1.00
C288   C     0.76879   0.96942   0.06364   0.00000  Uiso   1.00
C289   C     0.78183   0.79766   0.04704   0.00000  Uiso   1.00
C290   C     0.01457   0.19753   0.12298   0.00000  Uiso   1.00
C291   C     0.99312   0.29374   0.09971   0.00000  Uiso   1.00
C292   C     0.07741   0.34846   0.09183   0.00000  Uiso   1.00
C293   C     0.04015   0.43438   0.07005   0.00000  Uiso   1.00
C294   C     0.96679   0.22750   0.15000   0.00000  Uiso   1.00
C295   C     0.02893   0.22651   0.18442   0.00000  Uiso   1.00
C296   C     0.96951   0.25665   0.20498   0.00000  Uiso   1.00
C297   C     0.93579   0.10923   0.10232   0.00000  Uiso   1.00
C298   C     0.97186   0.00880   0.09665   0.00000  Uiso   1.00
C299   C     0.88634   0.93935   0.07707   0.00000  Uiso   1.00
H300   H     0.70719   0.27616   0.08787   0.00000  Uiso   1.00
H301   H     0.74758   0.43281   0.05417   0.00000  Uiso   1.00
H302   H     0.69911   0.31086   0.14674   0.00000  Uiso   1.00
H303   H     0.64205   0.09319   0.05898   0.00000  Uiso   1.00
H304   H     0.84411   0.59327   0.02272   0.00000  Uiso   1.00
H305   H     0.74190   0.33611   0.21791   0.00000  Uiso   1.00
H306   H     0.62158   0.87709   0.03286   0.00000  Uiso   1.00
H307   H     0.10593   0.17416   0.13342   0.00000  Uiso   1.00
H308   H     0.16820   0.32522   0.10221   0.00000  Uiso   1.00
H309   H     0.11973   0.20328   0.19478   0.00000  Uiso   1.00
H310   H     0.06267   0.98560   0.10702   0.00000  Uiso   1.00
H311   H     0.18551   0.50595   0.06171   0.00000  Uiso   1.00
H312   H     0.08329   0.24879   0.25690   0.00000  Uiso   1.00
H313   H     0.96297   0.78977   0.07185   0.00000  Uiso   1.00
O314   O     0.04858   0.65085   0.02087   0.00000  Uiso   1.00
O315   O     0.91448   0.31344   0.27696   0.00000  Uiso   1.00
O316   O     0.75662   0.71122   0.03417   0.00000  Uiso   1.00
N317   N     0.91591   0.55198   0.03617   0.00000  Uiso   1.00
N318   N     0.82035   0.31157   0.21867   0.00000  Uiso   1.00
N319   N     0.70786   0.88241   0.04566   0.00000  Uiso   1.00
N320   N     0.09961   0.50499   0.05716   0.00000  Uiso   1.00
N321   N     0.00406   0.26458   0.23965   0.00000  Uiso   1.00
N322   N     0.89156   0.83542   0.06665   0.00000  Uiso   1.00
C323   C     0.28994   0.60504   0.59969   0.00000  Uiso   1.00
C324   C     0.36983   0.68200   0.59082   0.00000  Uiso   1.00
C325   C     0.33468   0.77256   0.57105   0.00000  Uiso   1.00
C326   C     0.42112   0.83252   0.56589   0.00000  Uiso   1.00
C327   C     0.52733   0.95656   0.54997   0.00000  Uiso   1.00
C328   C     0.33513   0.60036   0.63798   0.00000  Uiso   1.00
C329   C     0.27079   0.62227   0.65787   0.00000  Uiso   1.00
C330   C     0.32802   0.61349   0.69242   0.00000  Uiso   1.00
C331   C     0.38032   0.61071   0.74973   0.00000  Uiso   1.00
C332   C     0.31291   0.49537   0.58809   0.00000  Uiso   1.00
C333   C     0.22988   0.42898   0.56603   0.00000  Uiso   1.00
C334   C     0.26840   0.33179   0.55857   0.00000  Uiso   1.00
C335   C     0.28621   0.16599   0.53840   0.00000  Uiso   1.00
C336   C     0.50598   0.55047   0.62567   0.00000  Uiso   1.00
C337   C     0.48718   0.65236   0.60493   0.00000  Uiso   1.00
C338   C     0.57370   0.71219   0.59979   0.00000  Uiso   1.00
C339   C     0.53867   0.80283   0.58002   0.00000  Uiso   1.00
C340   C     0.45247   0.57073   0.65209   0.00000  Uiso   1.00
C341   C     0.50981   0.56190   0.68662   0.00000  Uiso   1.00
C342   C     0.44557   0.58380   0.70655   0.00000  Uiso   1.00
C343   C     0.43025   0.46573   0.60219   0.00000  Uiso   1.00
C344   C     0.46891   0.36862   0.59477   0.00000  Uiso   1.00
C345   C     0.38596   0.30209   0.57270   0.00000  Uiso   1.00
H346   H     0.19858   0.62812   0.58871   0.00000  Uiso   1.00
H347   H     0.24386   0.79548   0.56014   0.00000  Uiso   1.00
H348   H     0.17998   0.64520   0.64695   0.00000  Uiso   1.00
H349   H     0.13909   0.45194   0.55512   0.00000  Uiso   1.00
H350   H     0.34580   0.96798   0.53469   0.00000  Uiso   1.00
H351   H     0.21110   0.65107   0.71774   0.00000  Uiso   1.00
H352   H     0.12486   0.24355   0.52409   0.00000  Uiso   1.00
H353   H     0.59734   0.52740   0.63666   0.00000  Uiso   1.00
H354   H     0.66450   0.68924   0.61071   0.00000  Uiso   1.00
H355   H     0.60061   0.53896   0.69753   0.00000  Uiso   1.00
H356   H     0.55972   0.34570   0.60569   0.00000  Uiso   1.00
H357   H     0.68721   0.88176   0.57575   0.00000  Uiso   1.00
H358   H     0.55250   0.56484   0.75879   0.00000  Uiso   1.00
H359   H     0.46627   0.15733   0.56514   0.00000  Uiso   1.00
O360   O     0.55349   0.03317   0.53730   0.00000  Uiso   1.00
O361   O     0.37676   0.61737   0.77744   0.00000  Uiso   1.00
O362   O     0.26362   0.08273   0.52338   0.00000  Uiso   1.00
N363   N     0.41693   0.92547   0.54791   0.00000  Uiso   1.00
N364   N     0.29100   0.62919   0.71904   0.00000  Uiso   1.00
N365   N     0.21037   0.24819   0.53801   0.00000  Uiso   1.00
N366   N     0.60064   0.87907   0.57000   0.00000  Uiso   1.00
N367   N     0.47471   0.58279   0.74113   0.00000  Uiso   1.00
N368   N     0.39408   0.20179   0.56010   0.00000  Uiso   1.00
