data_job_00776
_audit_creation_date              2018-12-19
_audit_creation_method            'Materials Studio'
_symmetry_space_group_name_H-M    'P1'
_symmetry_Int_Tables_number       1
_symmetry_cell_setting            triclinic
loop_
_symmetry_equiv_pos_as_xyz
  x,y,z
_cell_length_a                    14.1123
_cell_length_b                    28.3573
_cell_length_c                    11.6697
_cell_angle_alpha                 90.0000
_cell_angle_beta                  90.0000
_cell_angle_gamma                 90.0000
loop_
_atom_site_label
_atom_site_type_symbol
_atom_site_fract_x
_atom_site_fract_y
_atom_site_fract_z
_atom_site_U_iso_or_equiv
_atom_site_adp_type
_atom_site_occupancy
C1     C     0.67116   0.85258   0.46546   0.00000  Uiso   1.00
C2     C     0.62230   0.89126   0.39655   0.00000  Uiso   1.00
C3     C     0.66233   0.91645   0.30681   0.00000  Uiso   1.00
C4     C     0.60599   0.95040   0.25477   0.00000  Uiso   1.00
C5     C     0.54429   0.00919   0.14226   0.00000  Uiso   1.00
C6     C     0.66578   0.86797   0.59049   0.00000  Uiso   1.00
C7     C     0.74239   0.87357   0.66383   0.00000  Uiso   1.00
C8     C     0.72265   0.88791   0.77506   0.00000  Uiso   1.00
C9     C     0.72846   0.91052   0.96368   0.00000  Uiso   1.00
C10    C     0.60804   0.80913   0.45536   0.00000  Uiso   1.00
C11    C     0.63610   0.76525   0.41510   0.00000  Uiso   1.00
C12    C     0.56776   0.73004   0.41258   0.00000  Uiso   1.00
C13    C     0.48391   0.66129   0.39138   0.00000  Uiso   1.00
C14    C     0.49991   0.86808   0.53261   0.00000  Uiso   1.00
C15    C     0.52928   0.89968   0.43303   0.00000  Uiso   1.00
C16    C     0.47287   0.93360   0.38110   0.00000  Uiso   1.00
C17    C     0.51281   0.95883   0.29131   0.00000  Uiso   1.00
C18    C     0.57278   0.87639   0.62697   0.00000  Uiso   1.00
C19    C     0.55292   0.89072   0.73812   0.00000  Uiso   1.00
C20    C     0.62947   0.89634   0.81160   0.00000  Uiso   1.00
C21    C     0.51503   0.81755   0.49183   0.00000  Uiso   1.00
C22    C     0.44663   0.78240   0.48939   0.00000  Uiso   1.00
C23    C     0.47458   0.73848   0.44912   0.00000  Uiso   1.00
H24    H     0.74357   0.84602   0.43707   0.00000  Uiso   1.00
H25    H     0.73432   0.90992   0.27861   0.00000  Uiso   1.00
H26    H     0.81436   0.86705   0.63558   0.00000  Uiso   1.00
H27    H     0.70808   0.75875   0.38688   0.00000  Uiso   1.00
H28    H     0.68305   0.98449   0.11905   0.00000  Uiso   1.00
H29    H     0.85181   0.89407   0.87174   0.00000  Uiso   1.00
H30    H     0.62772   0.66569   0.34732   0.00000  Uiso   1.00
H31    H     0.42750   0.87464   0.56101   0.00000  Uiso   1.00
H32    H     0.40089   0.94011   0.40935   0.00000  Uiso   1.00
H33    H     0.48093   0.89723   0.76632   0.00000  Uiso   1.00
H34    H     0.37466   0.78893   0.51762   0.00000  Uiso   1.00
H35    H     0.41243   0.00899   0.22517   0.00000  Uiso   1.00
H36    H     0.58119   0.91857   0.97786   0.00000  Uiso   1.00
H37    H     0.35710   0.69019   0.45343   0.00000  Uiso   1.00
O38    O     0.53595   0.03931   0.07013   0.00000  Uiso   1.00
O39    O     0.75736   0.92067   0.05764   0.00000  Uiso   1.00
O40    O     0.46336   0.62104   0.36960   0.00000  Uiso   1.00
N41    N     0.62300   0.98127   0.16482   0.00000  Uiso   1.00
N42    N     0.78079   0.89674   0.86854   0.00000  Uiso   1.00
N43    N     0.57129   0.68322   0.37827   0.00000  Uiso   1.00
N44    N     0.47739   0.99445   0.22192   0.00000  Uiso   1.00
N45    N     0.63517   0.90992   0.92564   0.00000  Uiso   1.00
N46    N     0.42567   0.69640   0.43537   0.00000  Uiso   1.00
C47    C     0.82884   0.14742   0.46546   0.00000  Uiso   1.00
C48    C     0.87770   0.10874   0.39655   0.00000  Uiso   1.00
C49    C     0.83767   0.08355   0.30681   0.00000  Uiso   1.00
C50    C     0.89401   0.04960   0.25477   0.00000  Uiso   1.00
C51    C     0.95571   0.99081   0.14226   0.00000  Uiso   1.00
C52    C     0.83422   0.13203   0.59049   0.00000  Uiso   1.00
C53    C     0.75761   0.12643   0.66383   0.00000  Uiso   1.00
C54    C     0.77735   0.11209   0.77506   0.00000  Uiso   1.00
C55    C     0.77154   0.08948   0.96368   0.00000  Uiso   1.00
C56    C     0.89196   0.19087   0.45536   0.00000  Uiso   1.00
C57    C     0.86390   0.23475   0.41510   0.00000  Uiso   1.00
C58    C     0.93224   0.26996   0.41258   0.00000  Uiso   1.00
C59    C     0.01609   0.33871   0.39138   0.00000  Uiso   1.00
C60    C     0.00009   0.13192   0.53261   0.00000  Uiso   1.00
C61    C     0.97072   0.10032   0.43303   0.00000  Uiso   1.00
C62    C     0.02713   0.06640   0.38110   0.00000  Uiso   1.00
C63    C     0.98719   0.04117   0.29131   0.00000  Uiso   1.00
C64    C     0.92722   0.12361   0.62697   0.00000  Uiso   1.00
C65    C     0.94708   0.10928   0.73812   0.00000  Uiso   1.00
C66    C     0.87053   0.10366   0.81160   0.00000  Uiso   1.00
C67    C     0.98497   0.18245   0.49183   0.00000  Uiso   1.00
C68    C     0.05337   0.21760   0.48939   0.00000  Uiso   1.00
C69    C     0.02542   0.26152   0.44912   0.00000  Uiso   1.00
H70    H     0.75643   0.15398   0.43707   0.00000  Uiso   1.00
H71    H     0.76568   0.09008   0.27861   0.00000  Uiso   1.00
H72    H     0.68564   0.13295   0.63558   0.00000  Uiso   1.00
H73    H     0.79192   0.24125   0.38688   0.00000  Uiso   1.00
H74    H     0.81695   0.01551   0.11905   0.00000  Uiso   1.00
H75    H     0.64819   0.10593   0.87174   0.00000  Uiso   1.00
H76    H     0.87228   0.33431   0.34732   0.00000  Uiso   1.00
H77    H     0.07250   0.12536   0.56101   0.00000  Uiso   1.00
H78    H     0.09911   0.05989   0.40935   0.00000  Uiso   1.00
H79    H     0.01907   0.10277   0.76632   0.00000  Uiso   1.00
H80    H     0.12534   0.21107   0.51762   0.00000  Uiso   1.00
H81    H     0.08757   0.99101   0.22517   0.00000  Uiso   1.00
H82    H     0.91881   0.08143   0.97786   0.00000  Uiso   1.00
H83    H     0.14290   0.30981   0.45343   0.00000  Uiso   1.00
O84    O     0.96405   0.96069   0.07013   0.00000  Uiso   1.00
O85    O     0.74264   0.07933   0.05764   0.00000  Uiso   1.00
O86    O     0.03664   0.37896   0.36960   0.00000  Uiso   1.00
N87    N     0.87700   0.01873   0.16482   0.00000  Uiso   1.00
N88    N     0.71921   0.10326   0.86854   0.00000  Uiso   1.00
N89    N     0.92871   0.31678   0.37827   0.00000  Uiso   1.00
N90    N     0.02261   0.00555   0.22192   0.00000  Uiso   1.00
N91    N     0.86483   0.09008   0.92564   0.00000  Uiso   1.00
N92    N     0.07433   0.30360   0.43537   0.00000  Uiso   1.00
C93    C     0.82884   0.35258   0.03454   0.00000  Uiso   1.00
C94    C     0.87770   0.39126   0.10345   0.00000  Uiso   1.00
C95    C     0.83767   0.41645   0.19319   0.00000  Uiso   1.00
C96    C     0.89401   0.45040   0.24523   0.00000  Uiso   1.00
C97    C     0.95571   0.50919   0.35774   0.00000  Uiso   1.00
C98    C     0.83422   0.36797   0.90951   0.00000  Uiso   1.00
C99    C     0.75761   0.37357   0.83617   0.00000  Uiso   1.00
C100   C     0.77735   0.38791   0.72494   0.00000  Uiso   1.00
C101   C     0.77154   0.41052   0.53632   0.00000  Uiso   1.00
C102   C     0.89196   0.30913   0.04464   0.00000  Uiso   1.00
C103   C     0.86390   0.26525   0.08490   0.00000  Uiso   1.00
C104   C     0.93224   0.23004   0.08742   0.00000  Uiso   1.00
C105   C     0.01609   0.16129   0.10862   0.00000  Uiso   1.00
C106   C     0.00009   0.36808   0.96739   0.00000  Uiso   1.00
C107   C     0.97072   0.39968   0.06697   0.00000  Uiso   1.00
C108   C     0.02713   0.43360   0.11890   0.00000  Uiso   1.00
C109   C     0.98719   0.45883   0.20869   0.00000  Uiso   1.00
C110   C     0.92722   0.37639   0.87303   0.00000  Uiso   1.00
C111   C     0.94708   0.39072   0.76188   0.00000  Uiso   1.00
C112   C     0.87053   0.39634   0.68840   0.00000  Uiso   1.00
C113   C     0.98497   0.31755   0.00817   0.00000  Uiso   1.00
C114   C     0.05337   0.28240   0.01061   0.00000  Uiso   1.00
C115   C     0.02542   0.23848   0.05088   0.00000  Uiso   1.00
H116   H     0.75643   0.34602   0.06293   0.00000  Uiso   1.00
H117   H     0.76568   0.40992   0.22139   0.00000  Uiso   1.00
H118   H     0.68564   0.36705   0.86442   0.00000  Uiso   1.00
H119   H     0.79192   0.25875   0.11312   0.00000  Uiso   1.00
H120   H     0.81695   0.48449   0.38095   0.00000  Uiso   1.00
H121   H     0.64819   0.39407   0.62826   0.00000  Uiso   1.00
H122   H     0.87228   0.16569   0.15268   0.00000  Uiso   1.00
H123   H     0.07250   0.37464   0.93899   0.00000  Uiso   1.00
H124   H     0.09911   0.44011   0.09065   0.00000  Uiso   1.00
H125   H     0.01907   0.39723   0.73368   0.00000  Uiso   1.00
H126   H     0.12534   0.28893   0.98238   0.00000  Uiso   1.00
H127   H     0.08757   0.50899   0.27483   0.00000  Uiso   1.00
H128   H     0.91881   0.41857   0.52214   0.00000  Uiso   1.00
H129   H     0.14290   0.19019   0.04657   0.00000  Uiso   1.00
O130   O     0.96405   0.53931   0.42987   0.00000  Uiso   1.00
O131   O     0.74264   0.42067   0.44236   0.00000  Uiso   1.00
O132   O     0.03664   0.12104   0.13040   0.00000  Uiso   1.00
N133   N     0.87700   0.48127   0.33518   0.00000  Uiso   1.00
N134   N     0.71921   0.39674   0.63146   0.00000  Uiso   1.00
N135   N     0.92871   0.18322   0.12173   0.00000  Uiso   1.00
N136   N     0.02261   0.49445   0.27808   0.00000  Uiso   1.00
N137   N     0.86483   0.40992   0.57436   0.00000  Uiso   1.00
N138   N     0.07433   0.19640   0.06463   0.00000  Uiso   1.00
C139   C     0.67116   0.64742   0.03454   0.00000  Uiso   1.00
C140   C     0.62230   0.60874   0.10345   0.00000  Uiso   1.00
C141   C     0.66233   0.58355   0.19319   0.00000  Uiso   1.00
C142   C     0.60599   0.54960   0.24523   0.00000  Uiso   1.00
C143   C     0.54429   0.49081   0.35774   0.00000  Uiso   1.00
C144   C     0.66578   0.63203   0.90951   0.00000  Uiso   1.00
C145   C     0.74239   0.62643   0.83617   0.00000  Uiso   1.00
C146   C     0.72265   0.61209   0.72494   0.00000  Uiso   1.00
C147   C     0.72846   0.58948   0.53632   0.00000  Uiso   1.00
C148   C     0.60804   0.69087   0.04464   0.00000  Uiso   1.00
C149   C     0.63610   0.73475   0.08490   0.00000  Uiso   1.00
C150   C     0.56776   0.76996   0.08742   0.00000  Uiso   1.00
C151   C     0.48391   0.83871   0.10862   0.00000  Uiso   1.00
C152   C     0.49991   0.63192   0.96739   0.00000  Uiso   1.00
C153   C     0.52928   0.60032   0.06697   0.00000  Uiso   1.00
C154   C     0.47287   0.56640   0.11890   0.00000  Uiso   1.00
C155   C     0.51281   0.54117   0.20869   0.00000  Uiso   1.00
C156   C     0.57278   0.62361   0.87303   0.00000  Uiso   1.00
C157   C     0.55292   0.60928   0.76188   0.00000  Uiso   1.00
C158   C     0.62947   0.60366   0.68840   0.00000  Uiso   1.00
C159   C     0.51503   0.68245   0.00817   0.00000  Uiso   1.00
C160   C     0.44663   0.71760   0.01061   0.00000  Uiso   1.00
C161   C     0.47458   0.76152   0.05088   0.00000  Uiso   1.00
H162   H     0.74357   0.65398   0.06293   0.00000  Uiso   1.00
H163   H     0.73432   0.59008   0.22139   0.00000  Uiso   1.00
H164   H     0.81436   0.63295   0.86442   0.00000  Uiso   1.00
H165   H     0.70808   0.74125   0.11312   0.00000  Uiso   1.00
H166   H     0.68305   0.51551   0.38095   0.00000  Uiso   1.00
H167   H     0.85181   0.60593   0.62826   0.00000  Uiso   1.00
H168   H     0.62772   0.83431   0.15268   0.00000  Uiso   1.00
H169   H     0.42750   0.62536   0.93899   0.00000  Uiso   1.00
H170   H     0.40089   0.55989   0.09065   0.00000  Uiso   1.00
H171   H     0.48093   0.60277   0.73368   0.00000  Uiso   1.00
H172   H     0.37466   0.71107   0.98238   0.00000  Uiso   1.00
H173   H     0.41243   0.49101   0.27483   0.00000  Uiso   1.00
H174   H     0.58119   0.58143   0.52214   0.00000  Uiso   1.00
H175   H     0.35710   0.80981   0.04657   0.00000  Uiso   1.00
O176   O     0.53595   0.46069   0.42987   0.00000  Uiso   1.00
O177   O     0.75736   0.57933   0.44236   0.00000  Uiso   1.00
O178   O     0.46336   0.87896   0.13040   0.00000  Uiso   1.00
N179   N     0.62300   0.51873   0.33518   0.00000  Uiso   1.00
N180   N     0.78079   0.60326   0.63146   0.00000  Uiso   1.00
N181   N     0.57129   0.81678   0.12173   0.00000  Uiso   1.00
N182   N     0.47739   0.50555   0.27808   0.00000  Uiso   1.00
N183   N     0.63517   0.59008   0.57436   0.00000  Uiso   1.00
N184   N     0.42567   0.80360   0.06463   0.00000  Uiso   1.00
C185   C     0.32884   0.14742   0.53454   0.00000  Uiso   1.00
C186   C     0.37770   0.10874   0.60345   0.00000  Uiso   1.00
C187   C     0.33767   0.08355   0.69319   0.00000  Uiso   1.00
C188   C     0.39401   0.04960   0.74523   0.00000  Uiso   1.00
C189   C     0.45571   0.99081   0.85774   0.00000  Uiso   1.00
C190   C     0.33422   0.13203   0.40951   0.00000  Uiso   1.00
C191   C     0.25761   0.12643   0.33617   0.00000  Uiso   1.00
C192   C     0.27735   0.11209   0.22494   0.00000  Uiso   1.00
C193   C     0.27154   0.08948   0.03632   0.00000  Uiso   1.00
C194   C     0.39196   0.19087   0.54464   0.00000  Uiso   1.00
C195   C     0.36390   0.23475   0.58490   0.00000  Uiso   1.00
C196   C     0.43224   0.26996   0.58742   0.00000  Uiso   1.00
C197   C     0.51609   0.33871   0.60862   0.00000  Uiso   1.00
C198   C     0.50009   0.13192   0.46739   0.00000  Uiso   1.00
C199   C     0.47072   0.10032   0.56697   0.00000  Uiso   1.00
C200   C     0.52713   0.06640   0.61890   0.00000  Uiso   1.00
C201   C     0.48719   0.04117   0.70869   0.00000  Uiso   1.00
C202   C     0.42722   0.12361   0.37303   0.00000  Uiso   1.00
C203   C     0.44708   0.10928   0.26188   0.00000  Uiso   1.00
C204   C     0.37053   0.10366   0.18840   0.00000  Uiso   1.00
C205   C     0.48497   0.18245   0.50817   0.00000  Uiso   1.00
C206   C     0.55337   0.21760   0.51061   0.00000  Uiso   1.00
C207   C     0.52542   0.26152   0.55088   0.00000  Uiso   1.00
H208   H     0.25643   0.15398   0.56293   0.00000  Uiso   1.00
H209   H     0.26568   0.09008   0.72139   0.00000  Uiso   1.00
H210   H     0.18564   0.13295   0.36442   0.00000  Uiso   1.00
H211   H     0.29192   0.24125   0.61312   0.00000  Uiso   1.00
H212   H     0.31695   0.01551   0.88095   0.00000  Uiso   1.00
H213   H     0.14819   0.10593   0.12826   0.00000  Uiso   1.00
H214   H     0.37228   0.33431   0.65268   0.00000  Uiso   1.00
H215   H     0.57250   0.12536   0.43899   0.00000  Uiso   1.00
H216   H     0.59911   0.05989   0.59065   0.00000  Uiso   1.00
H217   H     0.51907   0.10277   0.23368   0.00000  Uiso   1.00
H218   H     0.62534   0.21107   0.48238   0.00000  Uiso   1.00
H219   H     0.58757   0.99101   0.77483   0.00000  Uiso   1.00
H220   H     0.41881   0.08143   0.02214   0.00000  Uiso   1.00
H221   H     0.64290   0.30981   0.54657   0.00000  Uiso   1.00
O222   O     0.46405   0.96069   0.92987   0.00000  Uiso   1.00
O223   O     0.24264   0.07933   0.94236   0.00000  Uiso   1.00
O224   O     0.53664   0.37896   0.63040   0.00000  Uiso   1.00
N225   N     0.37700   0.01873   0.83518   0.00000  Uiso   1.00
N226   N     0.21921   0.10326   0.13146   0.00000  Uiso   1.00
N227   N     0.42871   0.31678   0.62173   0.00000  Uiso   1.00
N228   N     0.52261   0.00555   0.77808   0.00000  Uiso   1.00
N229   N     0.36483   0.09008   0.07436   0.00000  Uiso   1.00
N230   N     0.57433   0.30360   0.56463   0.00000  Uiso   1.00
C231   C     0.17116   0.85258   0.53454   0.00000  Uiso   1.00
C232   C     0.12230   0.89126   0.60345   0.00000  Uiso   1.00
C233   C     0.16233   0.91645   0.69319   0.00000  Uiso   1.00
C234   C     0.10599   0.95040   0.74523   0.00000  Uiso   1.00
C235   C     0.04429   0.00919   0.85774   0.00000  Uiso   1.00
C236   C     0.16578   0.86797   0.40951   0.00000  Uiso   1.00
C237   C     0.24239   0.87357   0.33617   0.00000  Uiso   1.00
C238   C     0.22265   0.88791   0.22494   0.00000  Uiso   1.00
C239   C     0.22846   0.91052   0.03632   0.00000  Uiso   1.00
C240   C     0.10804   0.80913   0.54464   0.00000  Uiso   1.00
C241   C     0.13610   0.76525   0.58490   0.00000  Uiso   1.00
C242   C     0.06776   0.73004   0.58742   0.00000  Uiso   1.00
C243   C     0.98391   0.66129   0.60862   0.00000  Uiso   1.00
C244   C     0.99991   0.86808   0.46739   0.00000  Uiso   1.00
C245   C     0.02928   0.89968   0.56697   0.00000  Uiso   1.00
C246   C     0.97287   0.93360   0.61890   0.00000  Uiso   1.00
C247   C     0.01281   0.95883   0.70869   0.00000  Uiso   1.00
C248   C     0.07278   0.87639   0.37303   0.00000  Uiso   1.00
C249   C     0.05292   0.89072   0.26188   0.00000  Uiso   1.00
C250   C     0.12947   0.89634   0.18840   0.00000  Uiso   1.00
C251   C     0.01503   0.81755   0.50817   0.00000  Uiso   1.00
C252   C     0.94663   0.78240   0.51061   0.00000  Uiso   1.00
C253   C     0.97458   0.73848   0.55088   0.00000  Uiso   1.00
H254   H     0.24357   0.84602   0.56293   0.00000  Uiso   1.00
H255   H     0.23432   0.90992   0.72139   0.00000  Uiso   1.00
H256   H     0.31436   0.86705   0.36442   0.00000  Uiso   1.00
H257   H     0.20808   0.75875   0.61312   0.00000  Uiso   1.00
H258   H     0.18305   0.98449   0.88095   0.00000  Uiso   1.00
H259   H     0.35181   0.89407   0.12826   0.00000  Uiso   1.00
H260   H     0.12772   0.66569   0.65268   0.00000  Uiso   1.00
H261   H     0.92750   0.87464   0.43899   0.00000  Uiso   1.00
H262   H     0.90089   0.94011   0.59065   0.00000  Uiso   1.00
H263   H     0.98093   0.89723   0.23368   0.00000  Uiso   1.00
H264   H     0.87466   0.78893   0.48238   0.00000  Uiso   1.00
H265   H     0.91243   0.00899   0.77483   0.00000  Uiso   1.00
H266   H     0.08119   0.91857   0.02214   0.00000  Uiso   1.00
H267   H     0.85710   0.69019   0.54657   0.00000  Uiso   1.00
O268   O     0.03595   0.03931   0.92987   0.00000  Uiso   1.00
O269   O     0.25736   0.92067   0.94236   0.00000  Uiso   1.00
O270   O     0.96336   0.62104   0.63040   0.00000  Uiso   1.00
N271   N     0.12300   0.98127   0.83518   0.00000  Uiso   1.00
N272   N     0.28079   0.89674   0.13146   0.00000  Uiso   1.00
N273   N     0.07129   0.68322   0.62173   0.00000  Uiso   1.00
N274   N     0.97739   0.99445   0.77808   0.00000  Uiso   1.00
N275   N     0.13517   0.90992   0.07436   0.00000  Uiso   1.00
N276   N     0.92567   0.69640   0.56463   0.00000  Uiso   1.00
C277   C     0.17116   0.64742   0.96546   0.00000  Uiso   1.00
C278   C     0.12230   0.60874   0.89655   0.00000  Uiso   1.00
C279   C     0.16233   0.58355   0.80681   0.00000  Uiso   1.00
C280   C     0.10599   0.54960   0.75477   0.00000  Uiso   1.00
C281   C     0.04429   0.49081   0.64226   0.00000  Uiso   1.00
C282   C     0.16578   0.63203   0.09049   0.00000  Uiso   1.00
C283   C     0.24239   0.62643   0.16383   0.00000  Uiso   1.00
C284   C     0.22265   0.61209   0.27506   0.00000  Uiso   1.00
C285   C     0.22846   0.58948   0.46368   0.00000  Uiso   1.00
C286   C     0.10804   0.69087   0.95536   0.00000  Uiso   1.00
C287   C     0.13610   0.73475   0.91510   0.00000  Uiso   1.00
C288   C     0.06776   0.76996   0.91258   0.00000  Uiso   1.00
C289   C     0.98391   0.83871   0.89138   0.00000  Uiso   1.00
C290   C     0.99991   0.63192   0.03261   0.00000  Uiso   1.00
C291   C     0.02928   0.60032   0.93303   0.00000  Uiso   1.00
C292   C     0.97287   0.56640   0.88110   0.00000  Uiso   1.00
C293   C     0.01281   0.54117   0.79131   0.00000  Uiso   1.00
C294   C     0.07278   0.62361   0.12697   0.00000  Uiso   1.00
C295   C     0.05292   0.60928   0.23812   0.00000  Uiso   1.00
C296   C     0.12947   0.60366   0.31160   0.00000  Uiso   1.00
C297   C     0.01503   0.68245   0.99183   0.00000  Uiso   1.00
C298   C     0.94663   0.71760   0.98939   0.00000  Uiso   1.00
C299   C     0.97458   0.76152   0.94912   0.00000  Uiso   1.00
H300   H     0.24357   0.65398   0.93707   0.00000  Uiso   1.00
H301   H     0.23432   0.59008   0.77861   0.00000  Uiso   1.00
H302   H     0.31436   0.63295   0.13558   0.00000  Uiso   1.00
H303   H     0.20808   0.74125   0.88688   0.00000  Uiso   1.00
H304   H     0.18305   0.51551   0.61905   0.00000  Uiso   1.00
H305   H     0.35181   0.60593   0.37174   0.00000  Uiso   1.00
H306   H     0.12772   0.83431   0.84732   0.00000  Uiso   1.00
H307   H     0.92750   0.62536   0.06101   0.00000  Uiso   1.00
H308   H     0.90089   0.55989   0.90935   0.00000  Uiso   1.00
H309   H     0.98093   0.60277   0.26632   0.00000  Uiso   1.00
H310   H     0.87466   0.71107   0.01762   0.00000  Uiso   1.00
H311   H     0.91243   0.49101   0.72517   0.00000  Uiso   1.00
H312   H     0.08119   0.58143   0.47786   0.00000  Uiso   1.00
H313   H     0.85710   0.80981   0.95343   0.00000  Uiso   1.00
O314   O     0.03595   0.46069   0.57013   0.00000  Uiso   1.00
O315   O     0.25736   0.57933   0.55764   0.00000  Uiso   1.00
O316   O     0.96336   0.87896   0.86960   0.00000  Uiso   1.00
N317   N     0.12300   0.51873   0.66482   0.00000  Uiso   1.00
N318   N     0.28079   0.60326   0.36854   0.00000  Uiso   1.00
N319   N     0.07129   0.81678   0.87827   0.00000  Uiso   1.00
N320   N     0.97739   0.50555   0.72192   0.00000  Uiso   1.00
N321   N     0.13517   0.59008   0.42564   0.00000  Uiso   1.00
N322   N     0.92567   0.80360   0.93537   0.00000  Uiso   1.00
C323   C     0.32884   0.35258   0.96546   0.00000  Uiso   1.00
C324   C     0.37770   0.39126   0.89655   0.00000  Uiso   1.00
C325   C     0.33767   0.41645   0.80681   0.00000  Uiso   1.00
C326   C     0.39401   0.45040   0.75477   0.00000  Uiso   1.00
C327   C     0.45571   0.50919   0.64226   0.00000  Uiso   1.00
C328   C     0.33422   0.36797   0.09049   0.00000  Uiso   1.00
C329   C     0.25761   0.37357   0.16383   0.00000  Uiso   1.00
C330   C     0.27735   0.38791   0.27506   0.00000  Uiso   1.00
C331   C     0.27154   0.41052   0.46368   0.00000  Uiso   1.00
C332   C     0.39196   0.30913   0.95536   0.00000  Uiso   1.00
C333   C     0.36390   0.26525   0.91510   0.00000  Uiso   1.00
C334   C     0.43224   0.23004   0.91258   0.00000  Uiso   1.00
C335   C     0.51609   0.16129   0.89138   0.00000  Uiso   1.00
C336   C     0.50009   0.36808   0.03261   0.00000  Uiso   1.00
C337   C     0.47072   0.39968   0.93303   0.00000  Uiso   1.00
C338   C     0.52713   0.43360   0.88110   0.00000  Uiso   1.00
C339   C     0.48719   0.45883   0.79131   0.00000  Uiso   1.00
C340   C     0.42722   0.37639   0.12697   0.00000  Uiso   1.00
C341   C     0.44708   0.39072   0.23812   0.00000  Uiso   1.00
C342   C     0.37053   0.39634   0.31160   0.00000  Uiso   1.00
C343   C     0.48497   0.31755   0.99183   0.00000  Uiso   1.00
C344   C     0.55337   0.28240   0.98939   0.00000  Uiso   1.00
C345   C     0.52542   0.23848   0.94912   0.00000  Uiso   1.00
H346   H     0.25643   0.34602   0.93707   0.00000  Uiso   1.00
H347   H     0.26568   0.40992   0.77861   0.00000  Uiso   1.00
H348   H     0.18564   0.36705   0.13558   0.00000  Uiso   1.00
H349   H     0.29192   0.25875   0.88688   0.00000  Uiso   1.00
H350   H     0.31695   0.48449   0.61905   0.00000  Uiso   1.00
H351   H     0.14819   0.39407   0.37174   0.00000  Uiso   1.00
H352   H     0.37228   0.16569   0.84732   0.00000  Uiso   1.00
H353   H     0.57250   0.37464   0.06101   0.00000  Uiso   1.00
H354   H     0.59911   0.44011   0.90935   0.00000  Uiso   1.00
H355   H     0.51907   0.39723   0.26632   0.00000  Uiso   1.00
H356   H     0.62534   0.28893   0.01762   0.00000  Uiso   1.00
H357   H     0.58757   0.50899   0.72517   0.00000  Uiso   1.00
H358   H     0.41881   0.41857   0.47786   0.00000  Uiso   1.00
H359   H     0.64290   0.19019   0.95343   0.00000  Uiso   1.00
O360   O     0.46405   0.53931   0.57013   0.00000  Uiso   1.00
O361   O     0.24264   0.42067   0.55764   0.00000  Uiso   1.00
O362   O     0.53664   0.12104   0.86960   0.00000  Uiso   1.00
N363   N     0.37700   0.48127   0.66482   0.00000  Uiso   1.00
N364   N     0.21921   0.39674   0.36854   0.00000  Uiso   1.00
N365   N     0.42871   0.18322   0.87827   0.00000  Uiso   1.00
N366   N     0.52261   0.49445   0.72192   0.00000  Uiso   1.00
N367   N     0.36483   0.40992   0.42564   0.00000  Uiso   1.00
N368   N     0.57433   0.19640   0.93537   0.00000  Uiso   1.00
