data_job_06900
_audit_creation_date              2018-12-19
_audit_creation_method            'Materials Studio'
_symmetry_space_group_name_H-M    'P1'
_symmetry_Int_Tables_number       1
_symmetry_cell_setting            triclinic
loop_
_symmetry_equiv_pos_as_xyz
  x,y,z
_cell_length_a                    20.4070
_cell_length_b                    19.9053
_cell_length_c                    21.7730
_cell_angle_alpha                 76.8231
_cell_angle_beta                  84.1500
_cell_angle_gamma                 72.6831
loop_
_atom_site_label
_atom_site_type_symbol
_atom_site_fract_x
_atom_site_fract_y
_atom_site_fract_z
_atom_site_U_iso_or_equiv
_atom_site_adp_type
_atom_site_occupancy
C1     C     0.18259   0.91310   0.73300   0.00000  Uiso   1.00
C2     C     0.17995   0.97380   0.76593   0.00000  Uiso   1.00
C3     C     0.23511   0.98291   0.79216   0.00000  Uiso   1.00
C4     C     0.22213   0.04187   0.82017   0.00000  Uiso   1.00
C5     C     0.22804   0.12880   0.87107   0.00000  Uiso   1.00
C6     C     0.12940   0.87679   0.76786   0.00000  Uiso   1.00
C7     C     0.14206   0.80432   0.79569   0.00000  Uiso   1.00
C8     C     0.08652   0.78162   0.82531   0.00000  Uiso   1.00
C9     C     0.01394   0.71792   0.87916   0.00000  Uiso   1.00
C10    C     0.15540   0.94936   0.66735   0.00000  Uiso   1.00
C11    C     0.18991   0.93789   0.61068   0.00000  Uiso   1.00
C12    C     0.15625   0.97627   0.55567   0.00000  Uiso   1.00
C13    C     0.12403   0.02524   0.45347   0.00000  Uiso   1.00
C14    C     0.06145   0.00161   0.73609   0.00000  Uiso   1.00
C15    C     0.11415   0.02188   0.76761   0.00000  Uiso   1.00
C16    C     0.10108   0.08084   0.79558   0.00000  Uiso   1.00
C17    C     0.15622   0.09004   0.82185   0.00000  Uiso   1.00
C18    C     0.06360   0.92486   0.76954   0.00000  Uiso   1.00
C19    C     0.00803   0.90226   0.79911   0.00000  Uiso   1.00
C20    C     0.02060   0.82978   0.82699   0.00000  Uiso   1.00
C21    C     0.08960   0.99744   0.66903   0.00000  Uiso   1.00
C22    C     0.05588   0.03583   0.61410   0.00000  Uiso   1.00
C23    C     0.09033   0.02444   0.55735   0.00000  Uiso   1.00
H24    H     0.23382   0.87566   0.73170   0.00000  Uiso   1.00
H25    H     0.28603   0.94569   0.79086   0.00000  Uiso   1.00
H26    H     0.19299   0.76713   0.79438   0.00000  Uiso   1.00
H27    H     0.24083   0.90069   0.60940   0.00000  Uiso   1.00
H28    H     0.31489   0.04451   0.85721   0.00000  Uiso   1.00
H29    H     0.11870   0.66801   0.86462   0.00000  Uiso   1.00
H30    H     0.21958   0.94963   0.47454   0.00000  Uiso   1.00
H31    H     0.01022   0.03904   0.73740   0.00000  Uiso   1.00
H32    H     0.05016   0.11804   0.79687   0.00000  Uiso   1.00
H33    H     0.95712   0.93948   0.80040   0.00000  Uiso   1.00
H34    H     0.00496   0.07303   0.61541   0.00000  Uiso   1.00
H35    H     0.12345   0.18440   0.86209   0.00000  Uiso   1.00
H36    H     0.92726   0.80789   0.86950   0.00000  Uiso   1.00
H37    H     0.02814   0.08951   0.47943   0.00000  Uiso   1.00
O38    O     0.24947   0.16346   0.89869   0.00000  Uiso   1.00
O39    O     0.99209   0.66950   0.90840   0.00000  Uiso   1.00
O40    O     0.12444   0.03898   0.39663   0.00000  Uiso   1.00
N41    N     0.26435   0.06660   0.85018   0.00000  Uiso   1.00
N42    N     0.08094   0.71459   0.85712   0.00000  Uiso   1.00
N43    N     0.17524   0.97787   0.49243   0.00000  Uiso   1.00
N44    N     0.16134   0.14187   0.85281   0.00000  Uiso   1.00
N45    N     0.97792   0.78986   0.85975   0.00000  Uiso   1.00
N46    N     0.07223   0.05314   0.49506   0.00000  Uiso   1.00
C47    C     0.64030   0.09164   0.06865   0.00000  Uiso   1.00
C48    C     0.68190   0.10628   0.11589   0.00000  Uiso   1.00
C49    C     0.68793   0.17314   0.11868   0.00000  Uiso   1.00
C50    C     0.72839   0.17523   0.16536   0.00000  Uiso   1.00
C51    C     0.78797   0.20747   0.23225   0.00000  Uiso   1.00
C52    C     0.69053   0.03611   0.03567   0.00000  Uiso   1.00
C53    C     0.70378   0.04398   0.97102   0.00000  Uiso   1.00
C54    C     0.75150   0.98700   0.95018   0.00000  Uiso   1.00
C55    C     0.82443   0.91028   0.89252   0.00000  Uiso   1.00
C56    C     0.59038   0.05361   0.10779   0.00000  Uiso   1.00
C57    C     0.51944   0.07617   0.10378   0.00000  Uiso   1.00
C58    C     0.48284   0.03390   0.14365   0.00000  Uiso   1.00
C59    C     0.40028   0.98435   0.19797   0.00000  Uiso   1.00
C60    C     0.70146   0.97647   0.14658   0.00000  Uiso   1.00
C61    C     0.71512   0.04372   0.15821   0.00000  Uiso   1.00
C62    C     0.75559   0.04571   0.20490   0.00000  Uiso   1.00
C63    C     0.76167   0.11256   0.20777   0.00000  Uiso   1.00
C64    C     0.72374   0.97355   0.07799   0.00000  Uiso   1.00
C65    C     0.77145   0.91655   0.05724   0.00000  Uiso   1.00
C66    C     0.78478   0.92432   0.99258   0.00000  Uiso   1.00
C67    C     0.62360   0.99105   0.15012   0.00000  Uiso   1.00
C68    C     0.58711   0.94874   0.19000   0.00000  Uiso   1.00
C69    C     0.51612   0.97123   0.18605   0.00000  Uiso   1.00
H70    H     0.61444   0.14035   0.03569   0.00000  Uiso   1.00
H71    H     0.66222   0.22154   0.08591   0.00000  Uiso   1.00
H72    H     0.67807   0.09239   0.93828   0.00000  Uiso   1.00
H73    H     0.49375   0.12458   0.07102   0.00000  Uiso   1.00
H74    H     0.72986   0.28397   0.16024   0.00000  Uiso   1.00
H75    H     0.76326   0.01164   0.84894   0.00000  Uiso   1.00
H76    H     0.37460   0.07952   0.12885   0.00000  Uiso   1.00
H77    H     0.72732   0.92776   0.17953   0.00000  Uiso   1.00
H78    H     0.78129   0.99729   0.23765   0.00000  Uiso   1.00
H79    H     0.79714   0.86814   0.09001   0.00000  Uiso   1.00
H80    H     0.61283   0.90033   0.22275   0.00000  Uiso   1.00
H81    H     0.82651   0.10196   0.28340   0.00000  Uiso   1.00
H82    H     0.85991   0.82963   0.97209   0.00000  Uiso   1.00
H83    H     0.47124   0.89750   0.25200   0.00000  Uiso   1.00
O84    O     0.81167   0.24253   0.25744   0.00000  Uiso   1.00
O85    O     0.85548   0.88525   0.84903   0.00000  Uiso   1.00
O86    O     0.34556   0.97430   0.21625   0.00000  Uiso   1.00
N87    N     0.74518   0.23159   0.18126   0.00000  Uiso   1.00
N88    N     0.77642   0.97699   0.89021   0.00000  Uiso   1.00
N89    N     0.41306   0.04043   0.15189   0.00000  Uiso   1.00
N90    N     0.79719   0.13365   0.24753   0.00000  Uiso   1.00
N91    N     0.82843   0.87905   0.95648   0.00000  Uiso   1.00
N92    N     0.46506   0.94249   0.21815   0.00000  Uiso   1.00
C93    C     0.90375   0.59917   0.23325   0.00000  Uiso   1.00
C94    C     0.94174   0.65124   0.24270   0.00000  Uiso   1.00
C95    C     0.98167   0.64203   0.29355   0.00000  Uiso   1.00
C96    C     0.01214   0.69581   0.29346   0.00000  Uiso   1.00
C97    C     0.07249   0.76743   0.31563   0.00000  Uiso   1.00
C98    C     0.82859   0.64268   0.22568   0.00000  Uiso   1.00
C99    C     0.77340   0.62625   0.26221   0.00000  Uiso   1.00
C100   C     0.70862   0.67281   0.24778   0.00000  Uiso   1.00
C101   C     0.59330   0.73110   0.24349   0.00000  Uiso   1.00
C102   C     0.92933   0.58028   0.16932   0.00000  Uiso   1.00
C103   C     0.95883   0.51139   0.15846   0.00000  Uiso   1.00
C104   C     0.97886   0.50543   0.09659   0.00000  Uiso   1.00
C105   C     0.01996   0.46685   0.00479   0.00000  Uiso   1.00
C106   C     0.88684   0.71107   0.14268   0.00000  Uiso   1.00
C107   C     0.93255   0.71202   0.19350   0.00000  Uiso   1.00
C108   C     0.96297   0.76583   0.19334   0.00000  Uiso   1.00
C109   C     0.00294   0.75669   0.24418   0.00000  Uiso   1.00
C110   C     0.81940   0.70345   0.17648   0.00000  Uiso   1.00
C111   C     0.75469   0.75005   0.16200   0.00000  Uiso   1.00
C112   C     0.69942   0.73370   0.19850   0.00000  Uiso   1.00
C113   C     0.92015   0.64106   0.12012   0.00000  Uiso   1.00
C114   C     0.94012   0.63520   0.05825   0.00000  Uiso   1.00
C115   C     0.96965   0.56632   0.04730   0.00000  Uiso   1.00
H116   H     0.91090   0.55186   0.27155   0.00000  Uiso   1.00
H117   H     0.98877   0.59499   0.33161   0.00000  Uiso   1.00
H118   H     0.78052   0.57921   0.30027   0.00000  Uiso   1.00
H119   H     0.96593   0.46438   0.19654   0.00000  Uiso   1.00
H120   H     0.07102   0.66962   0.37651   0.00000  Uiso   1.00
H121   H     0.63193   0.63633   0.31042   0.00000  Uiso   1.00
H122   H     0.02290   0.39419   0.09168   0.00000  Uiso   1.00
H123   H     0.87969   0.75839   0.10438   0.00000  Uiso   1.00
H124   H     0.95585   0.81286   0.15526   0.00000  Uiso   1.00
H125   H     0.74760   0.79707   0.12392   0.00000  Uiso   1.00
H126   H     0.93301   0.68224   0.02020   0.00000  Uiso   1.00
H127   H     0.04430   0.84646   0.23338   0.00000  Uiso   1.00
H128   H     0.60521   0.81316   0.16729   0.00000  Uiso   1.00
H129   H     0.99618   0.57102   0.94855   0.00000  Uiso   1.00
O130   O     0.10831   0.79015   0.34145   0.00000  Uiso   1.00
O131   O     0.53224   0.74647   0.25472   0.00000  Uiso   1.00
O132   O     0.04518   0.42878   0.96775   0.00000  Uiso   1.00
N133   N     0.05430   0.70376   0.33584   0.00000  Uiso   1.00
N134   N     0.64377   0.67264   0.27405   0.00000  Uiso   1.00
N135   N     0.00927   0.44625   0.06955   0.00000  Uiso   1.00
N136   N     0.03992   0.79891   0.25882   0.00000  Uiso   1.00
N137   N     0.62939   0.76779   0.19703   0.00000  Uiso   1.00
N138   N     0.99490   0.54141   0.99253   0.00000  Uiso   1.00
C139   C     0.51690   0.11060   0.46474   0.00000  Uiso   1.00
C140   C     0.51549   0.17635   0.49017   0.00000  Uiso   1.00
C141   C     0.57242   0.19254   0.50594   0.00000  Uiso   1.00
C142   C     0.56034   0.25523   0.52840   0.00000  Uiso   1.00
C143   C     0.56829   0.35053   0.56688   0.00000  Uiso   1.00
C144   C     0.48043   0.13955   0.40234   0.00000  Uiso   1.00
C145   C     0.50788   0.12478   0.34427   0.00000  Uiso   1.00
C146   C     0.46628   0.15648   0.29279   0.00000  Uiso   1.00
C147   C     0.41979   0.19459   0.19492   0.00000  Uiso   1.00
C148   C     0.47070   0.07248   0.50980   0.00000  Uiso   1.00
C149   C     0.48995   0.00131   0.54207   0.00000  Uiso   1.00
C150   C     0.44015   0.97655   0.58106   0.00000  Uiso   1.00
C151   C     0.37855   0.91053   0.65004   0.00000  Uiso   1.00
C152   C     0.39421   0.19316   0.47657   0.00000  Uiso   1.00
C153   C     0.44885   0.22120   0.49660   0.00000  Uiso   1.00
C154   C     0.43668   0.28388   0.51904   0.00000  Uiso   1.00
C155   C     0.49358   0.30016   0.53484   0.00000  Uiso   1.00
C156   C     0.41379   0.18439   0.40877   0.00000  Uiso   1.00
C157   C     0.37214   0.21612   0.35736   0.00000  Uiso   1.00
C158   C     0.39953   0.20141   0.29923   0.00000  Uiso   1.00
C159   C     0.40406   0.11733   0.51623   0.00000  Uiso   1.00
C160   C     0.35422   0.09266   0.55517   0.00000  Uiso   1.00
C161   C     0.37340   0.02147   0.58749   0.00000  Uiso   1.00
H162   H     0.56878   0.07569   0.45973   0.00000  Uiso   1.00
H163   H     0.62398   0.15782   0.50096   0.00000  Uiso   1.00
H164   H     0.55945   0.09007   0.33931   0.00000  Uiso   1.00
H165   H     0.54153   0.96663   0.53709   0.00000  Uiso   1.00
H166   H     0.65580   0.26867   0.54948   0.00000  Uiso   1.00
H167   H     0.51972   0.12579   0.20864   0.00000  Uiso   1.00
H168   H     0.48193   0.86549   0.62569   0.00000  Uiso   1.00
H169   H     0.34233   0.22808   0.48158   0.00000  Uiso   1.00
H170   H     0.38511   0.31858   0.52401   0.00000  Uiso   1.00
H171   H     0.32058   0.25082   0.36236   0.00000  Uiso   1.00
H172   H     0.30265   0.12738   0.56013   0.00000  Uiso   1.00
H173   H     0.46192   0.39915   0.56818   0.00000  Uiso   1.00
H174   H     0.32585   0.25626   0.22734   0.00000  Uiso   1.00
H175   H     0.28805   0.99596   0.64439   0.00000  Uiso   1.00
O176   O     0.59109   0.39071   0.58633   0.00000  Uiso   1.00
O177   O     0.41256   0.20323   0.13916   0.00000  Uiso   1.00
O178   O     0.36298   0.86173   0.68632   0.00000  Uiso   1.00
N179   N     0.60430   0.28695   0.54807   0.00000  Uiso   1.00
N180   N     0.47708   0.15337   0.22940   0.00000  Uiso   1.00
N181   N     0.44174   0.91001   0.61930   0.00000  Uiso   1.00
N182   N     0.49997   0.35716   0.55814   0.00000  Uiso   1.00
N183   N     0.37276   0.22358   0.23947   0.00000  Uiso   1.00
N184   N     0.33742   0.98022   0.62936   0.00000  Uiso   1.00
C185   C     0.02562   0.39845   0.68285   0.00000  Uiso   1.00
C186   C     0.05037   0.45091   0.70932   0.00000  Uiso   1.00
C187   C     0.08449   0.43480   0.76513   0.00000  Uiso   1.00
C188   C     0.10285   0.49025   0.78112   0.00000  Uiso   1.00
C189   C     0.14363   0.56119   0.82806   0.00000  Uiso   1.00
C190   C     0.05850   0.39915   0.61668   0.00000  Uiso   1.00
C191   C     0.09944   0.33952   0.59459   0.00000  Uiso   1.00
C192   C     0.12462   0.35139   0.53259   0.00000  Uiso   1.00
C193   C     0.17798   0.34197   0.43569   0.00000  Uiso   1.00
C194   C     0.94876   0.43241   0.67400   0.00000  Uiso   1.00
C195   C     0.89743   0.40073   0.70009   0.00000  Uiso   1.00
C196   C     0.83022   0.44061   0.68634   0.00000  Uiso   1.00
C197   C     0.71320   0.48282   0.67844   0.00000  Uiso   1.00
C198   C     0.99755   0.52557   0.61201   0.00000  Uiso   1.00
C199   C     0.03513   0.51995   0.67084   0.00000  Uiso   1.00
C200   C     0.05343   0.57544   0.68675   0.00000  Uiso   1.00
C201   C     0.08757   0.55942   0.74257   0.00000  Uiso   1.00
C202   C     0.04325   0.46819   0.57820   0.00000  Uiso   1.00
C203   C     0.06838   0.48016   0.51621   0.00000  Uiso   1.00
C204   C     0.10935   0.42056   0.49404   0.00000  Uiso   1.00
C205   C     0.93351   0.50145   0.63552   0.00000  Uiso   1.00
C206   C     0.86637   0.54138   0.62172   0.00000  Uiso   1.00
C207   C     0.81495   0.50978   0.64779   0.00000  Uiso   1.00
H208   H     0.03749   0.34469   0.71280   0.00000  Uiso   1.00
H209   H     0.09629   0.38136   0.79489   0.00000  Uiso   1.00
H210   H     0.11122   0.28609   0.62438   0.00000  Uiso   1.00
H211   H     0.90925   0.34730   0.72986   0.00000  Uiso   1.00
H212   H     0.15477   0.45245   0.86892   0.00000  Uiso   1.00
H213   H     0.18624   0.25157   0.50938   0.00000  Uiso   1.00
H214   H     0.76034   0.38064   0.73182   0.00000  Uiso   1.00
H215   H     0.98568   0.57933   0.58205   0.00000  Uiso   1.00
H216   H     0.04162   0.62887   0.65696   0.00000  Uiso   1.00
H217   H     0.05656   0.53360   0.48645   0.00000  Uiso   1.00
H218   H     0.85459   0.59481   0.59194   0.00000  Uiso   1.00
H219   H     0.11041   0.65334   0.75697   0.00000  Uiso   1.00
H220   H     0.14188   0.45245   0.39743   0.00000  Uiso   1.00
H221   H     0.71598   0.58153   0.61988   0.00000  Uiso   1.00
O222   O     0.17035   0.58124   0.86457   0.00000  Uiso   1.00
O223   O     0.21163   0.31769   0.39287   0.00000  Uiso   1.00
O224   O     0.65286   0.48703   0.68471   0.00000  Uiso   1.00
N225   N     0.13664   0.49293   0.83229   0.00000  Uiso   1.00
N226   N     0.16607   0.30512   0.49615   0.00000  Uiso   1.00
N227   N     0.76789   0.42579   0.70410   0.00000  Uiso   1.00
N228   N     0.11276   0.60103   0.77206   0.00000  Uiso   1.00
N229   N     0.14220   0.41322   0.43591   0.00000  Uiso   1.00
N230   N     0.74402   0.53388   0.64387   0.00000  Uiso   1.00
C231   C     0.35931   0.54207   0.15693   0.00000  Uiso   1.00
C232   C     0.40751   0.53542   0.20850   0.00000  Uiso   1.00
C233   C     0.42772   0.59128   0.22145   0.00000  Uiso   1.00
C234   C     0.47209   0.57417   0.27057   0.00000  Uiso   1.00
C235   C     0.54336   0.57457   0.34536   0.00000  Uiso   1.00
C236   C     0.30093   0.51283   0.19009   0.00000  Uiso   1.00
C237   C     0.23153   0.54970   0.18755   0.00000  Uiso   1.00
C238   C     0.18619   0.51355   0.22117   0.00000  Uiso   1.00
C239   C     0.09198   0.47886   0.26734   0.00000  Uiso   1.00
C240   C     0.39887   0.48905   0.11621   0.00000  Uiso   1.00
C241   C     0.41181   0.50592   0.05154   0.00000  Uiso   1.00
C242   C     0.44891   0.44975   0.02295   0.00000  Uiso   1.00
C243   C     0.50677   0.37814   0.95441   0.00000  Uiso   1.00
C244   C     0.40218   0.41232   0.22114   0.00000  Uiso   1.00
C245   C     0.43079   0.46495   0.24337   0.00000  Uiso   1.00
C246   C     0.47515   0.44774   0.29249   0.00000  Uiso   1.00
C247   C     0.49542   0.50357   0.30551   0.00000  Uiso   1.00
C248   C     0.32421   0.44236   0.22496   0.00000  Uiso   1.00
C249   C     0.27896   0.40615   0.25859   0.00000  Uiso   1.00
C250   C     0.20951   0.44296   0.25611   0.00000  Uiso   1.00
C251   C     0.42216   0.41857   0.15108   0.00000  Uiso   1.00
C252   C     0.45924   0.36237   0.12258   0.00000  Uiso   1.00
C253   C     0.47223   0.37915   0.05789   0.00000  Uiso   1.00
H254   H     0.34118   0.59693   0.12978   0.00000  Uiso   1.00
H255   H     0.40968   0.64581   0.19445   0.00000  Uiso   1.00
H256   H     0.21353   0.60423   0.16056   0.00000  Uiso   1.00
H257   H     0.39378   0.56046   0.02457   0.00000  Uiso   1.00
H258   H     0.49588   0.66894   0.28155   0.00000  Uiso   1.00
H259   H     0.08227   0.58124   0.21006   0.00000  Uiso   1.00
H260   H     0.46237   0.48894   0.92331   0.00000  Uiso   1.00
H261   H     0.42031   0.35746   0.24829   0.00000  Uiso   1.00
H262   H     0.49316   0.39320   0.31947   0.00000  Uiso   1.00
H263   H     0.29700   0.35161   0.28557   0.00000  Uiso   1.00
H264   H     0.47725   0.30784   0.14959   0.00000  Uiso   1.00
H265   H     0.56362   0.46391   0.38302   0.00000  Uiso   1.00
H266   H     0.15002   0.37621   0.31153   0.00000  Uiso   1.00
H267   H     0.53011   0.28391   0.02478   0.00000  Uiso   1.00
O268   O     0.57623   0.59426   0.37699   0.00000  Uiso   1.00
O269   O     0.03359   0.47920   0.28318   0.00000  Uiso   1.00
O270   O     0.53227   0.35811   0.90697   0.00000  Uiso   1.00
N271   N     0.50183   0.61578   0.29566   0.00000  Uiso   1.00
N272   N     0.11514   0.53379   0.22882   0.00000  Uiso   1.00
N273   N     0.47048   0.44749   0.96073   0.00000  Uiso   1.00
N274   N     0.53829   0.50545   0.35026   0.00000  Uiso   1.00
N275   N     0.15159   0.42346   0.28342   0.00000  Uiso   1.00
N276   N     0.50693   0.33717   0.01533   0.00000  Uiso   1.00
C277   C     0.87285   0.98572   0.46954   0.00000  Uiso   1.00
C278   C     0.84812   0.94735   0.42736   0.00000  Uiso   1.00
C279   C     0.78206   0.94123   0.42792   0.00000  Uiso   1.00
C280   C     0.76972   0.90404   0.38565   0.00000  Uiso   1.00
C281   C     0.72341   0.84904   0.32642   0.00000  Uiso   1.00
C282   C     0.90212   0.04183   0.42515   0.00000  Uiso   1.00
C283   C     0.88147   0.11515   0.42386   0.00000  Uiso   1.00
C284   C     0.91459   0.15749   0.37973   0.00000  Uiso   1.00
C285   C     0.95216   0.24917   0.31710   0.00000  Uiso   1.00
C286   C     0.93380   0.93017   0.50398   0.00000  Uiso   1.00
C287   C     0.93980   0.90962   0.56896   0.00000  Uiso   1.00
C288   C     0.99961   0.85796   0.59120   0.00000  Uiso   1.00
C289   C     0.08636   0.77628   0.65097   0.00000  Uiso   1.00
C290   C     0.96841   0.93053   0.39348   0.00000  Uiso   1.00
C291   C     0.90002   0.91737   0.38605   0.00000  Uiso   1.00
C292   C     0.88778   0.88017   0.34377   0.00000  Uiso   1.00
C293   C     0.82171   0.87400   0.34426   0.00000  Uiso   1.00
C294   C     0.95402   0.01185   0.38384   0.00000  Uiso   1.00
C295   C     0.98719   0.05409   0.33970   0.00000  Uiso   1.00
C296   C     0.96659   0.12746   0.33834   0.00000  Uiso   1.00
C297   C     0.98570   0.90019   0.46266   0.00000  Uiso   1.00
C298   C     0.04552   0.84856   0.48481   0.00000  Uiso   1.00
C299   C     0.05160   0.82793   0.54982   0.00000  Uiso   1.00
H300   H     0.83245   0.00906   0.50170   0.00000  Uiso   1.00
H301   H     0.74191   0.96445   0.45989   0.00000  Uiso   1.00
H302   H     0.84131   0.13833   0.45584   0.00000  Uiso   1.00
H303   H     0.89963   0.93283   0.60092   0.00000  Uiso   1.00
H304   H     0.66441   0.90178   0.39531   0.00000  Uiso   1.00
H305   H     0.87401   0.26843   0.38677   0.00000  Uiso   1.00
H306   H     0.99699   0.83510   0.69270   0.00000  Uiso   1.00
H307   H     0.00882   0.90719   0.36131   0.00000  Uiso   1.00
H308   H     0.92795   0.85698   0.31180   0.00000  Uiso   1.00
H309   H     0.02735   0.03087   0.30774   0.00000  Uiso   1.00
H310   H     0.08567   0.82537   0.45283   0.00000  Uiso   1.00
H311   H     0.81540   0.81456   0.27511   0.00000  Uiso   1.00
H312   H     0.02501   0.18121   0.26657   0.00000  Uiso   1.00
H313   H     0.14799   0.74788   0.57251   0.00000  Uiso   1.00
O314   O     0.68352   0.82700   0.30516   0.00000  Uiso   1.00
O315   O     0.95853   0.30803   0.29396   0.00000  Uiso   1.00
O316   O     0.11987   0.73950   0.69534   0.00000  Uiso   1.00
N317   N     0.71104   0.88813   0.37382   0.00000  Uiso   1.00
N318   N     0.90701   0.23093   0.36583   0.00000  Uiso   1.00
N319   N     0.02199   0.82581   0.65186   0.00000  Uiso   1.00
N320   N     0.79230   0.84120   0.30914   0.00000  Uiso   1.00
N321   N     0.98826   0.18400   0.30115   0.00000  Uiso   1.00
N322   N     0.10324   0.77888   0.58718   0.00000  Uiso   1.00
C323   C     0.26327   0.83013   0.11632   0.00000  Uiso   1.00
C324   C     0.19257   0.84032   0.09237   0.00000  Uiso   1.00
C325   C     0.16987   0.78715   0.07722   0.00000  Uiso   1.00
C326   C     0.10346   0.80730   0.05614   0.00000  Uiso   1.00
C327   C     0.00008   0.81235   0.01986   0.00000  Uiso   1.00
C328   C     0.25044   0.85501   0.17886   0.00000  Uiso   1.00
C329   C     0.27640   0.81418   0.23641   0.00000  Uiso   1.00
C330   C     0.25871   0.84670   0.28813   0.00000  Uiso   1.00
C331   C     0.24521   0.87455   0.38611   0.00000  Uiso   1.00
C332   C     0.29364   0.88439   0.07054   0.00000  Uiso   1.00
C333   C     0.35593   0.86827   0.03704   0.00000  Uiso   1.00
C334   C     0.37461   0.92553   0.99758   0.00000  Uiso   1.00
C335   C     0.42818   0.99900   0.92738   0.00000  Uiso   1.00
C336   C     0.18569   0.96047   0.10584   0.00000  Uiso   1.00
C337   C     0.15043   0.91112   0.08668   0.00000  Uiso   1.00
C338   C     0.08404   0.93135   0.06562   0.00000  Uiso   1.00
C339   C     0.06124   0.87822   0.05043   0.00000  Uiso   1.00
C340   C     0.20830   0.92580   0.17317   0.00000  Uiso   1.00
C341   C     0.19057   0.95838   0.22482   0.00000  Uiso   1.00
C342   C     0.21650   0.91762   0.28243   0.00000  Uiso   1.00
C343   C     0.25150   0.95518   0.06485   0.00000  Uiso   1.00
C344   C     0.27009   0.01247   0.02544   0.00000  Uiso   1.00
C345   C     0.33240   0.99645   0.99187   0.00000  Uiso   1.00
H346   H     0.29608   0.77502   0.12075   0.00000  Uiso   1.00
H347   H     0.20250   0.73237   0.08163   0.00000  Uiso   1.00
H348   H     0.30902   0.75940   0.24080   0.00000  Uiso   1.00
H349   H     0.38852   0.81348   0.04145   0.00000  Uiso   1.00
H350   H     0.08015   0.71631   0.03577   0.00000  Uiso   1.00
H351   H     0.30477   0.77331   0.37138   0.00000  Uiso   1.00
H352   H     0.47244   0.88735   0.95102   0.00000  Uiso   1.00
H353   H     0.15288   0.01558   0.10141   0.00000  Uiso   1.00
H354   H     0.05144   0.98614   0.06122   0.00000  Uiso   1.00
H355   H     0.15796   0.01317   0.22039   0.00000  Uiso   1.00
H356   H     0.23747   0.06725   0.02104   0.00000  Uiso   1.00
H357   H     0.95755   0.92227   0.01921   0.00000  Uiso   1.00
H358   H     0.18218   0.97927   0.35482   0.00000  Uiso   1.00
H359   H     0.34983   0.09331   0.93446   0.00000  Uiso   1.00
O360   O     0.95469   0.79557   0.00143   0.00000  Uiso   1.00
O361   O     0.24940   0.87036   0.44173   0.00000  Uiso   1.00
O362   O     0.46937   0.01997   0.89023   0.00000  Uiso   1.00
N363   N     0.06522   0.76882   0.03738   0.00000  Uiso   1.00
N364   N     0.27522   0.82211   0.35116   0.00000  Uiso   1.00
N365   N     0.43198   0.92873   0.95817   0.00000  Uiso   1.00
N366   N     0.99925   0.87965   0.02846   0.00000  Uiso   1.00
N367   N     0.20925   0.93294   0.34224   0.00000  Uiso   1.00
N368   N     0.36601   0.03956   0.94925   0.00000  Uiso   1.00
C369   C     0.98304   0.30467   0.92895   0.00000  Uiso   1.00
C370   C     0.95160   0.24793   0.91817   0.00000  Uiso   1.00
C371   C     0.94733   0.23161   0.86031   0.00000  Uiso   1.00
C372   C     0.91672   0.17794   0.86039   0.00000  Uiso   1.00
C373   C     0.87181   0.09528   0.83514   0.00000  Uiso   1.00
C374   C     0.03845   0.26543   0.97699   0.00000  Uiso   1.00
C375   C     0.10719   0.26384   0.96858   0.00000  Uiso   1.00
C376   C     0.14968   0.22490   0.01817   0.00000  Uiso   1.00
C377   C     0.23958   0.16946   0.08426   0.00000  Uiso   1.00
C378   C     0.92703   0.35523   0.96230   0.00000  Uiso   1.00
C379   C     0.90210   0.42915   0.94155   0.00000  Uiso   1.00
C380   C     0.85080   0.46582   0.97878   0.00000  Uiso   1.00
C381   C     0.76771   0.54980   0.02205   0.00000  Uiso   1.00
C382   C     0.93628   0.23837   0.03198   0.00000  Uiso   1.00
C383   C     0.92621   0.21191   0.97413   0.00000  Uiso   1.00
C384   C     0.89560   0.15826   0.97430   0.00000  Uiso   1.00
C385   C     0.89128   0.14187   0.91645   0.00000  Uiso   1.00
C386   C     0.01305   0.22941   0.03295   0.00000  Uiso   1.00
C387   C     0.05545   0.19048   0.08256   0.00000  Uiso   1.00
C388   C     0.12424   0.18883   0.07423   0.00000  Uiso   1.00
C389   C     0.90163   0.31921   0.01826   0.00000  Uiso   1.00
C390   C     0.85037   0.35579   0.05553   0.00000  Uiso   1.00
C391   C     0.82536   0.42974   0.03484   0.00000  Uiso   1.00
H392   H     0.00281   0.33271   0.88539   0.00000  Uiso   1.00
H393   H     0.96700   0.25949   0.81702   0.00000  Uiso   1.00
H394   H     0.12682   0.29172   0.92527   0.00000  Uiso   1.00
H395   H     0.92177   0.45699   0.89824   0.00000  Uiso   1.00
H396   H     0.91611   0.16241   0.76590   0.00000  Uiso   1.00
H397   H     0.25311   0.23038   0.99417   0.00000  Uiso   1.00
H398   H     0.82071   0.57891   0.93716   0.00000  Uiso   1.00
H399   H     0.91651   0.21033   0.07555   0.00000  Uiso   1.00
H400   H     0.87595   0.13040   0.01761   0.00000  Uiso   1.00
H401   H     0.03578   0.16262   0.12586   0.00000  Uiso   1.00
H402   H     0.83072   0.32790   0.09883   0.00000  Uiso   1.00
H403   H     0.84221   0.05763   0.92871   0.00000  Uiso   1.00
H404   H     0.17921   0.12560   0.15698   0.00000  Uiso   1.00
H405   H     0.74681   0.47413   0.09997   0.00000  Uiso   1.00
O406   O     0.85406   0.05963   0.80576   0.00000  Uiso   1.00
O407   O     0.29618   0.14882   0.10525   0.00000  Uiso   1.00
O408   O     0.72889   0.60607   0.03045   0.00000  Uiso   1.00
N409   N     0.90427   0.14873   0.81216   0.00000  Uiso   1.00
N410   N     0.21935   0.21227   0.02558   0.00000  Uiso   1.00
N411   N     0.81510   0.53812   0.97229   0.00000  Uiso   1.00
N412   N     0.86451   0.09235   0.89977   0.00000  Uiso   1.00
N413   N     0.17958   0.15589   0.11318   0.00000  Uiso   1.00
N414   N     0.77534   0.48174   0.05990   0.00000  Uiso   1.00
C415   C     0.35684   0.74716   0.53877   0.00000  Uiso   1.00
C416   C     0.33384   0.70025   0.50390   0.00000  Uiso   1.00
C417   C     0.26668   0.70847   0.48995   0.00000  Uiso   1.00
C418   C     0.25628   0.66004   0.45772   0.00000  Uiso   1.00
C419   C     0.21222   0.59549   0.40629   0.00000  Uiso   1.00
C420   C     0.39595   0.69607   0.59514   0.00000  Uiso   1.00
C421   C     0.38101   0.70078   0.65792   0.00000  Uiso   1.00
C422   C     0.42290   0.64882   0.70250   0.00000  Uiso   1.00
C423   C     0.47530   0.57781   0.79272   0.00000  Uiso   1.00
C424   C     0.40991   0.77620   0.49504   0.00000  Uiso   1.00
C425   C     0.40673   0.84829   0.47365   0.00000  Uiso   1.00
C426   C     0.46039   0.86380   0.43396   0.00000  Uiso   1.00
C427   C     0.53446   0.91721   0.36875   0.00000  Uiso   1.00
C428   C     0.45779   0.64653   0.50633   0.00000  Uiso   1.00
C429   C     0.38867   0.64559   0.48628   0.00000  Uiso   1.00
C430   C     0.37837   0.59713   0.45406   0.00000  Uiso   1.00
C431   C     0.31121   0.60528   0.44007   0.00000  Uiso   1.00
C432   C     0.45078   0.64141   0.57753   0.00000  Uiso   1.00
C433   C     0.49271   0.58944   0.62202   0.00000  Uiso   1.00
C434   C     0.47784   0.59406   0.68485   0.00000  Uiso   1.00
C435   C     0.46474   0.72154   0.47742   0.00000  Uiso   1.00
C436   C     0.51842   0.73695   0.43776   0.00000  Uiso   1.00
C437   C     0.51532   0.80904   0.41631   0.00000  Uiso   1.00
H438   H     0.31415   0.78972   0.55249   0.00000  Uiso   1.00
H439   H     0.22426   0.75078   0.50360   0.00000  Uiso   1.00
H440   H     0.33858   0.74309   0.67154   0.00000  Uiso   1.00
H441   H     0.36429   0.89057   0.48730   0.00000  Uiso   1.00
H442   H     0.14877   0.68348   0.44165   0.00000  Uiso   1.00
H443   H     0.38984   0.66728   0.79575   0.00000  Uiso   1.00
H444   H     0.44406   0.97829   0.40725   0.00000  Uiso   1.00
H445   H     0.50049   0.60397   0.49261   0.00000  Uiso   1.00
H446   H     0.42082   0.55484   0.44043   0.00000  Uiso   1.00
H447   H     0.53514   0.54715   0.60837   0.00000  Uiso   1.00
H448   H     0.56085   0.69463   0.42413   0.00000  Uiso   1.00
H449   H     0.30831   0.52445   0.39038   0.00000  Uiso   1.00
H450   H     0.54938   0.50825   0.74448   0.00000  Uiso   1.00
H451   H     0.60359   0.81925   0.35598   0.00000  Uiso   1.00
O452   O     0.17277   0.57498   0.38279   0.00000  Uiso   1.00
O453   O     0.48905   0.55373   0.84735   0.00000  Uiso   1.00
O454   O     0.56017   0.96176   0.33765   0.00000  Uiso   1.00
N455   N     0.19726   0.65281   0.43673   0.00000  Uiso   1.00
N456   N     0.42263   0.63765   0.76780   0.00000  Uiso   1.00
N457   N     0.47333   0.92841   0.40459   0.00000  Uiso   1.00
N458   N     0.28310   0.56723   0.40914   0.00000  Uiso   1.00
N459   N     0.50848   0.55208   0.74021   0.00000  Uiso   1.00
N460   N     0.55917   0.84284   0.37701   0.00000  Uiso   1.00
C461   C     0.84839   0.47129   0.43364   0.00000  Uiso   1.00
C462   C     0.80993   0.45116   0.38735   0.00000  Uiso   1.00
C463   C     0.83227   0.44389   0.32620   0.00000  Uiso   1.00
C464   C     0.78963   0.42514   0.29139   0.00000  Uiso   1.00
C465   C     0.73944   0.39559   0.21562   0.00000  Uiso   1.00
C466   C     0.79925   0.53781   0.45342   0.00000  Uiso   1.00
C467   C     0.81262   0.60338   0.44784   0.00000  Uiso   1.00
C468   C     0.76100   0.65757   0.46865   0.00000  Uiso   1.00
C469   C     0.69425   0.76253   0.49550   0.00000  Uiso   1.00
C470   C     0.85687   0.41096   0.49230   0.00000  Uiso   1.00
C471   C     0.91868   0.36990   0.51942   0.00000  Uiso   1.00
C472   C     0.91557   0.31730   0.57298   0.00000  Uiso   1.00
C473   C     0.93827   0.22532   0.66019   0.00000  Uiso   1.00
C474   C     0.73294   0.45092   0.48054   0.00000  Uiso   1.00
C475   C     0.74722   0.44010   0.41282   0.00000  Uiso   1.00
C476   C     0.70454   0.42135   0.37809   0.00000  Uiso   1.00
C477   C     0.72681   0.41405   0.31691   0.00000  Uiso   1.00
C478   C     0.73654   0.52675   0.47889   0.00000  Uiso   1.00
C479   C     0.68489   0.58085   0.49973   0.00000  Uiso   1.00
C480   C     0.69818   0.64649   0.49417   0.00000  Uiso   1.00
C481   C     0.79416   0.39990   0.51777   0.00000  Uiso   1.00
C482   C     0.79094   0.34736   0.57130   0.00000  Uiso   1.00
C483   C     0.85274   0.30622   0.59850   0.00000  Uiso   1.00
H484   H     0.89721   0.47991   0.41381   0.00000  Uiso   1.00
H485   H     0.88080   0.45246   0.30650   0.00000  Uiso   1.00
H486   H     0.86116   0.61193   0.42813   0.00000  Uiso   1.00
H487   H     0.96720   0.37848   0.49969   0.00000  Uiso   1.00
H488   H     0.83494   0.41717   0.19876   0.00000  Uiso   1.00
H489   H     0.79354   0.75341   0.45523   0.00000  Uiso   1.00
H490   H     0.01714   0.26114   0.60614   0.00000  Uiso   1.00
H491   H     0.68411   0.44231   0.50038   0.00000  Uiso   1.00
H492   H     0.65601   0.41279   0.39782   0.00000  Uiso   1.00
H493   H     0.63637   0.57226   0.51944   0.00000  Uiso   1.00
H494   H     0.74241   0.33881   0.59101   0.00000  Uiso   1.00
H495   H     0.65249   0.38498   0.27288   0.00000  Uiso   1.00
H496   H     0.61109   0.72122   0.52934   0.00000  Uiso   1.00
H497   H     0.83469   0.22895   0.68025   0.00000  Uiso   1.00
O498   O     0.72907   0.38236   0.16679   0.00000  Uiso   1.00
O499   O     0.67475   0.82349   0.50327   0.00000  Uiso   1.00
O500   O     0.96812   0.17764   0.70126   0.00000  Uiso   1.00
N501   N     0.79587   0.41363   0.23029   0.00000  Uiso   1.00
N502   N     0.75715   0.72800   0.47005   0.00000  Uiso   1.00
N503   N     0.96620   0.26778   0.61115   0.00000  Uiso   1.00
N504   N     0.69769   0.39631   0.27017   0.00000  Uiso   1.00
N505   N     0.65897   0.71068   0.50993   0.00000  Uiso   1.00
N506   N     0.86803   0.25045   0.65103   0.00000  Uiso   1.00
C507   C     0.43216   0.21956   0.85073   0.00000  Uiso   1.00
C508   C     0.38364   0.23107   0.79805   0.00000  Uiso   1.00
C509   C     0.36314   0.17775   0.78060   0.00000  Uiso   1.00
C510   C     0.31850   0.19925   0.73121   0.00000  Uiso   1.00
C511   C     0.24673   0.20612   0.65406   0.00000  Uiso   1.00
C512   C     0.49052   0.25038   0.82017   0.00000  Uiso   1.00
C513   C     0.55989   0.21331   0.82133   0.00000  Uiso   1.00
C514   C     0.60523   0.25107   0.79056   0.00000  Uiso   1.00
C515   C     0.69941   0.28795   0.74779   0.00000  Uiso   1.00
C516   C     0.39296   0.26836   0.89512   0.00000  Uiso   1.00
C517   C     0.38031   0.24641   0.95931   0.00000  Uiso   1.00
C518   C     0.34352   0.29931   0.99165   0.00000  Uiso   1.00
C519   C     0.28622   0.36409   0.06527   0.00000  Uiso   1.00
C520   C     0.38932   0.35254   0.79403   0.00000  Uiso   1.00
C521   C     0.36038   0.30330   0.76725   0.00000  Uiso   1.00
C522   C     0.31575   0.32488   0.71787   0.00000  Uiso   1.00
C523   C     0.29519   0.27161   0.70035   0.00000  Uiso   1.00
C524   C     0.46726   0.32261   0.78937   0.00000  Uiso   1.00
C525   C     0.51251   0.36044   0.75859   0.00000  Uiso   1.00
C526   C     0.58193   0.32343   0.75970   0.00000  Uiso   1.00
C527   C     0.36970   0.34059   0.86432   0.00000  Uiso   1.00
C528   C     0.33292   0.39353   0.89657   0.00000  Uiso   1.00
C529   C     0.32022   0.37167   0.96079   0.00000  Uiso   1.00
H530   H     0.45027   0.16333   0.87471   0.00000  Uiso   1.00
H531   H     0.38116   0.12186   0.80445   0.00000  Uiso   1.00
H532   H     0.57788   0.15742   0.84517   0.00000  Uiso   1.00
H533   H     0.39833   0.19051   0.98313   0.00000  Uiso   1.00
H534   H     0.29429   0.10774   0.71295   0.00000  Uiso   1.00
H535   H     0.70910   0.18272   0.79884   0.00000  Uiso   1.00
H536   H     0.33047   0.25249   0.08975   0.00000  Uiso   1.00
H537   H     0.37121   0.40878   0.77005   0.00000  Uiso   1.00
H538   H     0.29776   0.38078   0.69404   0.00000  Uiso   1.00
H539   H     0.49448   0.41633   0.73476   0.00000  Uiso   1.00
H540   H     0.31493   0.44942   0.87272   0.00000  Uiso   1.00
H541   H     0.22660   0.31788   0.62334   0.00000  Uiso   1.00
H542   H     0.64141   0.39286   0.70923   0.00000  Uiso   1.00
H543   H     0.26278   0.46264   0.00014   0.00000  Uiso   1.00
O544   O     0.21357   0.18996   0.62002   0.00000  Uiso   1.00
O545   O     0.75778   0.28833   0.73271   0.00000  Uiso   1.00
O546   O     0.26103   0.37988   0.11438   0.00000  Uiso   1.00
N547   N     0.28843   0.16104   0.70230   0.00000  Uiso   1.00
N548   N     0.67625   0.23114   0.78259   0.00000  Uiso   1.00
N549   N     0.32228   0.29637   0.05457   0.00000  Uiso   1.00
N550   N     0.25201   0.27412   0.65408   0.00000  Uiso   1.00
N551   N     0.63983   0.34421   0.73437   0.00000  Uiso   1.00
N552   N     0.28586   0.40945   0.00635   0.00000  Uiso   1.00
