data_job_06200
_audit_creation_date              2018-12-19
_audit_creation_method            'Materials Studio'
_symmetry_space_group_name_H-M    'P1'
_symmetry_Int_Tables_number       1
_symmetry_cell_setting            triclinic
loop_
_symmetry_equiv_pos_as_xyz
  x,y,z
_cell_length_a                    16.8441
_cell_length_b                    16.3927
_cell_length_c                    15.4777
_cell_angle_alpha                 101.0650
_cell_angle_beta                  101.2990
_cell_angle_gamma                 100.1140
loop_
_atom_site_label
_atom_site_type_symbol
_atom_site_fract_x
_atom_site_fract_y
_atom_site_fract_z
_atom_site_U_iso_or_equiv
_atom_site_adp_type
_atom_site_occupancy
C1     C     0.94370   0.78368   0.30127   0.00000  Uiso   1.00
C2     C     0.91369   0.80202   0.38831   0.00000  Uiso   1.00
C3     C     0.91881   0.88228   0.44111   0.00000  Uiso   1.00
C4     C     0.88786   0.88557   0.51821   0.00000  Uiso   1.00
C5     C     0.84659   0.92535   0.64982   0.00000  Uiso   1.00
C6     C     0.00477   0.72637   0.31647   0.00000  Uiso   1.00
C7     C     0.08647   0.74302   0.30886   0.00000  Uiso   1.00
C8     C     0.13219   0.68262   0.32548   0.00000  Uiso   1.00
C9     C     0.23231   0.60493   0.34549   0.00000  Uiso   1.00
C10    C     0.86875   0.72885   0.22854   0.00000  Uiso   1.00
C11    C     0.83609   0.74756   0.14698   0.00000  Uiso   1.00
C12    C     0.76731   0.68923   0.08955   0.00000  Uiso   1.00
C13    C     0.65624   0.61539   0.97304   0.00000  Uiso   1.00
C14    C     0.87963   0.64681   0.34431   0.00000  Uiso   1.00
C15    C     0.87889   0.72768   0.41168   0.00000  Uiso   1.00
C16    C     0.84792   0.73084   0.48872   0.00000  Uiso   1.00
C17    C     0.85299   0.81109   0.54162   0.00000  Uiso   1.00
C18    C     0.96997   0.65203   0.33985   0.00000  Uiso   1.00
C19    C     0.01558   0.59158   0.35647   0.00000  Uiso   1.00
C20    C     0.09733   0.60814   0.34889   0.00000  Uiso   1.00
C21    C     0.83395   0.65450   0.25191   0.00000  Uiso   1.00
C22    C     0.76521   0.59613   0.19460   0.00000  Uiso   1.00
C23    C     0.73245   0.61475   0.11297   0.00000  Uiso   1.00
H24    H     0.97080   0.84156   0.28308   0.00000  Uiso   1.00
H25    H     0.94575   0.93980   0.42300   0.00000  Uiso   1.00
H26    H     0.11338   0.80055   0.29076   0.00000  Uiso   1.00
H27    H     0.86304   0.80510   0.12892   0.00000  Uiso   1.00
H28    H     0.90266   0.01593   0.58846   0.00000  Uiso   1.00
H29    H     0.25611   0.72231   0.30960   0.00000  Uiso   1.00
H30    H     0.72822   0.73190   0.96831   0.00000  Uiso   1.00
H31    H     0.85254   0.58892   0.36250   0.00000  Uiso   1.00
H32    H     0.82100   0.67330   0.50679   0.00000  Uiso   1.00
H33    H     0.98863   0.53406   0.37455   0.00000  Uiso   1.00
H34    H     0.73829   0.53860   0.21271   0.00000  Uiso   1.00
H35    H     0.80141   0.79962   0.65647   0.00000  Uiso   1.00
H36    H     0.15486   0.50601   0.37760   0.00000  Uiso   1.00
H37    H     0.62697   0.51560   0.03632   0.00000  Uiso   1.00
O38    O     0.83344   0.96784   0.71596   0.00000  Uiso   1.00
O39    O     0.29715   0.58262   0.35008   0.00000  Uiso   1.00
O40    O     0.60458   0.59520   0.90233   0.00000  Uiso   1.00
N41    N     0.88314   0.95344   0.58465   0.00000  Uiso   1.00
N42    N     0.21360   0.67893   0.32395   0.00000  Uiso   1.00
N43    N     0.72009   0.68789   0.00486   0.00000  Uiso   1.00
N44    N     0.82866   0.83705   0.62125   0.00000  Uiso   1.00
N45    N     0.15912   0.56254   0.36054   0.00000  Uiso   1.00
N46    N     0.66560   0.57150   0.04145   0.00000  Uiso   1.00
C47    C     0.30368   0.94610   0.79375   0.00000  Uiso   1.00
C48    C     0.38391   0.91473   0.81324   0.00000  Uiso   1.00
C49    C     0.43237   0.92015   0.89858   0.00000  Uiso   1.00
C50    C     0.50348   0.88779   0.90206   0.00000  Uiso   1.00
C51    C     0.62476   0.84466   0.94436   0.00000  Uiso   1.00
C52    C     0.31698   0.00831   0.73352   0.00000  Uiso   1.00
C53    C     0.30915   0.09239   0.75182   0.00000  Uiso   1.00
C54    C     0.32391   0.13880   0.68819   0.00000  Uiso   1.00
C55    C     0.34121   0.24093   0.60668   0.00000  Uiso   1.00
C56    C     0.23765   0.86930   0.73474   0.00000  Uiso   1.00
C57    C     0.16311   0.83652   0.75405   0.00000  Uiso   1.00
C58    C     0.11106   0.76591   0.69142   0.00000  Uiso   1.00
C59    C     0.00520   0.65221   0.61181   0.00000  Uiso   1.00
C60    C     0.34378   0.87901   0.64819   0.00000  Uiso   1.00
C61    C     0.40568   0.87829   0.73418   0.00000  Uiso   1.00
C62    C     0.47673   0.84591   0.73753   0.00000  Uiso   1.00
C63    C     0.52530   0.85128   0.82286   0.00000  Uiso   1.00
C64    C     0.33875   0.97187   0.65446   0.00000  Uiso   1.00
C65    C     0.35351   0.01816   0.59078   0.00000  Uiso   1.00
C66    C     0.34572   0.10230   0.60898   0.00000  Uiso   1.00
C67    C     0.25942   0.83286   0.65567   0.00000  Uiso   1.00
C68    C     0.20748   0.76229   0.59300   0.00000  Uiso   1.00
C69    C     0.13288   0.72940   0.61222   0.00000  Uiso   1.00
H70    H     0.28673   0.97448   0.85530   0.00000  Uiso   1.00
H71    H     0.41550   0.94836   0.95975   0.00000  Uiso   1.00
H72    H     0.29229   0.12057   0.81301   0.00000  Uiso   1.00
H73    H     0.14628   0.86474   0.81524   0.00000  Uiso   1.00
H74    H     0.56789   0.90336   0.04068   0.00000  Uiso   1.00
H75    H     0.30807   0.26647   0.73126   0.00000  Uiso   1.00
H76    H     0.00017   0.72700   0.73595   0.00000  Uiso   1.00
H77    H     0.36073   0.85064   0.58663   0.00000  Uiso   1.00
H78    H     0.49357   0.81772   0.67634   0.00000  Uiso   1.00
H79    H     0.37036   0.98994   0.52960   0.00000  Uiso   1.00
H80    H     0.22435   0.73410   0.53183   0.00000  Uiso   1.00
H81    H     0.63126   0.79733   0.81065   0.00000  Uiso   1.00
H82    H     0.37143   0.16045   0.50123   0.00000  Uiso   1.00
H83    H     0.06354   0.62097   0.50593   0.00000  Uiso   1.00
O84    O     0.68564   0.83095   0.98953   0.00000  Uiso   1.00
O85    O     0.34475   0.30734   0.58357   0.00000  Uiso   1.00
O86    O     0.94079   0.59956   0.58974   0.00000  Uiso   1.00
N87    N     0.56457   0.88291   0.97423   0.00000  Uiso   1.00
N88    N     0.32166   0.22240   0.68495   0.00000  Uiso   1.00
N89    N     0.03379   0.71805   0.68933   0.00000  Uiso   1.00
N90    N     0.59867   0.82585   0.85046   0.00000  Uiso   1.00
N91    N     0.35576   0.16535   0.56117   0.00000  Uiso   1.00
N92    N     0.06789   0.66100   0.56555   0.00000  Uiso   1.00
C93    C     0.77989   0.30187   0.94922   0.00000  Uiso   1.00
C94    C     0.79694   0.38390   0.91667   0.00000  Uiso   1.00
C95    C     0.87479   0.43305   0.92310   0.00000  Uiso   1.00
C96    C     0.87724   0.50583   0.88937   0.00000  Uiso   1.00
C97    C     0.91480   0.62976   0.84477   0.00000  Uiso   1.00
C98    C     0.72448   0.31642   0.01511   0.00000  Uiso   1.00
C99    C     0.74141   0.30884   0.10429   0.00000  Uiso   1.00
C100   C     0.68286   0.32481   0.15342   0.00000  Uiso   1.00
C101   C     0.60790   0.34392   0.26162   0.00000  Uiso   1.00
C102   C     0.72634   0.23396   0.86703   0.00000  Uiso   1.00
C103   C     0.74482   0.15703   0.83171   0.00000  Uiso   1.00
C104   C     0.68783   0.10356   0.75618   0.00000  Uiso   1.00
C105   C     0.61576   0.99465   0.63446   0.00000  Uiso   1.00
C106   C     0.64579   0.34370   0.87791   0.00000  Uiso   1.00
C107   C     0.72410   0.40662   0.87794   0.00000  Uiso   1.00
C108   C     0.72644   0.47934   0.84420   0.00000  Uiso   1.00
C109   C     0.80428   0.52859   0.85057   0.00000  Uiso   1.00
C110   C     0.65165   0.33915   0.97638   0.00000  Uiso   1.00
C111   C     0.59306   0.35512   0.02539   0.00000  Uiso   1.00
C112   C     0.60990   0.34757   0.11462   0.00000  Uiso   1.00
C113   C     0.65351   0.25668   0.82829   0.00000  Uiso   1.00
C114   C     0.59647   0.20332   0.75281   0.00000  Uiso   1.00
C115   C     0.61486   0.12633   0.71738   0.00000  Uiso   1.00
H116   H     0.83659   0.28418   0.97938   0.00000  Uiso   1.00
H117   H     0.93114   0.41545   0.95308   0.00000  Uiso   1.00
H118   H     0.79778   0.29124   0.13424   0.00000  Uiso   1.00
H119   H     0.80119   0.13947   0.86170   0.00000  Uiso   1.00
H120   H     0.00385   0.57103   0.90687   0.00000  Uiso   1.00
H121   H     0.72264   0.30911   0.28885   0.00000  Uiso   1.00
H122   H     0.72983   0.98905   0.71415   0.00000  Uiso   1.00
H123   H     0.58909   0.36139   0.84776   0.00000  Uiso   1.00
H124   H     0.67006   0.49691   0.81423   0.00000  Uiso   1.00
H125   H     0.53670   0.37270   0.99539   0.00000  Uiso   1.00
H126   H     0.54011   0.22093   0.72285   0.00000  Uiso   1.00
H127   H     0.79195   0.63714   0.79418   0.00000  Uiso   1.00
H128   H     0.51073   0.37522   0.17615   0.00000  Uiso   1.00
H129   H     0.51793   0.05517   0.60145   0.00000  Uiso   1.00
O130   O     0.95564   0.69185   0.83087   0.00000  Uiso   1.00
O131   O     0.58668   0.34820   0.33200   0.00000  Uiso   1.00
O132   O     0.59613   0.92831   0.57801   0.00000  Uiso   1.00
N133   N     0.94287   0.56798   0.88494   0.00000  Uiso   1.00
N134   N     0.67995   0.32311   0.24206   0.00000  Uiso   1.00
N135   N     0.68667   0.02388   0.70478   0.00000  Uiso   1.00
N136   N     0.82885   0.60356   0.82429   0.00000  Uiso   1.00
N137   N     0.56593   0.35869   0.18142   0.00000  Uiso   1.00
N138   N     0.57265   0.05946   0.64414   0.00000  Uiso   1.00
C139   C     0.05630   0.21632   0.69873   0.00000  Uiso   1.00
C140   C     0.08631   0.19798   0.61169   0.00000  Uiso   1.00
C141   C     0.08119   0.11772   0.55889   0.00000  Uiso   1.00
C142   C     0.11214   0.11443   0.48179   0.00000  Uiso   1.00
C143   C     0.15341   0.07465   0.35018   0.00000  Uiso   1.00
C144   C     0.99523   0.27363   0.68353   0.00000  Uiso   1.00
C145   C     0.91353   0.25698   0.69114   0.00000  Uiso   1.00
C146   C     0.86781   0.31738   0.67452   0.00000  Uiso   1.00
C147   C     0.76769   0.39507   0.65451   0.00000  Uiso   1.00
C148   C     0.13125   0.27115   0.77146   0.00000  Uiso   1.00
C149   C     0.16391   0.25243   0.85302   0.00000  Uiso   1.00
C150   C     0.23269   0.31077   0.91045   0.00000  Uiso   1.00
C151   C     0.34376   0.38461   0.02696   0.00000  Uiso   1.00
C152   C     0.12037   0.35319   0.65569   0.00000  Uiso   1.00
C153   C     0.12111   0.27232   0.58832   0.00000  Uiso   1.00
C154   C     0.15208   0.26916   0.51128   0.00000  Uiso   1.00
C155   C     0.14701   0.18891   0.45838   0.00000  Uiso   1.00
C156   C     0.03003   0.34797   0.66015   0.00000  Uiso   1.00
C157   C     0.98442   0.40842   0.64353   0.00000  Uiso   1.00
C158   C     0.90267   0.39186   0.65111   0.00000  Uiso   1.00
C159   C     0.16605   0.34549   0.74809   0.00000  Uiso   1.00
C160   C     0.23479   0.40387   0.80540   0.00000  Uiso   1.00
C161   C     0.26755   0.38525   0.88703   0.00000  Uiso   1.00
H162   H     0.02920   0.15844   0.71692   0.00000  Uiso   1.00
H163   H     0.05425   0.06020   0.57700   0.00000  Uiso   1.00
H164   H     0.88662   0.19945   0.70924   0.00000  Uiso   1.00
H165   H     0.13696   0.19490   0.87108   0.00000  Uiso   1.00
H166   H     0.09734   0.98407   0.41154   0.00000  Uiso   1.00
H167   H     0.74389   0.27769   0.69040   0.00000  Uiso   1.00
H168   H     0.27178   0.26810   0.03169   0.00000  Uiso   1.00
H169   H     0.14746   0.41108   0.63750   0.00000  Uiso   1.00
H170   H     0.17900   0.32670   0.49321   0.00000  Uiso   1.00
H171   H     0.01137   0.46594   0.62545   0.00000  Uiso   1.00
H172   H     0.26171   0.46140   0.78729   0.00000  Uiso   1.00
H173   H     0.19859   0.20037   0.34353   0.00000  Uiso   1.00
H174   H     0.84514   0.49399   0.62240   0.00000  Uiso   1.00
H175   H     0.37303   0.48440   0.96368   0.00000  Uiso   1.00
O176   O     0.16656   0.03216   0.28404   0.00000  Uiso   1.00
O177   O     0.70285   0.41738   0.64992   0.00000  Uiso   1.00
O178   O     0.39542   0.40480   0.09767   0.00000  Uiso   1.00
N179   N     0.11686   0.04656   0.41535   0.00000  Uiso   1.00
N180   N     0.78640   0.32107   0.67605   0.00000  Uiso   1.00
N181   N     0.27991   0.31211   0.99514   0.00000  Uiso   1.00
N182   N     0.17134   0.16295   0.37875   0.00000  Uiso   1.00
N183   N     0.84088   0.43746   0.63946   0.00000  Uiso   1.00
N184   N     0.33440   0.42850   0.95855   0.00000  Uiso   1.00
C185   C     0.69632   0.05390   0.20625   0.00000  Uiso   1.00
C186   C     0.61609   0.08527   0.18676   0.00000  Uiso   1.00
C187   C     0.56763   0.07985   0.10142   0.00000  Uiso   1.00
C188   C     0.49652   0.11221   0.09794   0.00000  Uiso   1.00
C189   C     0.37524   0.15534   0.05564   0.00000  Uiso   1.00
C190   C     0.68302   0.99169   0.26648   0.00000  Uiso   1.00
C191   C     0.69085   0.90761   0.24818   0.00000  Uiso   1.00
C192   C     0.67609   0.86120   0.31181   0.00000  Uiso   1.00
C193   C     0.65879   0.75907   0.39332   0.00000  Uiso   1.00
C194   C     0.76235   0.13070   0.26526   0.00000  Uiso   1.00
C195   C     0.83689   0.16348   0.24595   0.00000  Uiso   1.00
C196   C     0.88894   0.23409   0.30858   0.00000  Uiso   1.00
C197   C     0.99480   0.34779   0.38819   0.00000  Uiso   1.00
C198   C     0.65622   0.12099   0.35181   0.00000  Uiso   1.00
C199   C     0.59432   0.12171   0.26582   0.00000  Uiso   1.00
C200   C     0.52327   0.15409   0.26247   0.00000  Uiso   1.00
C201   C     0.47470   0.14872   0.17714   0.00000  Uiso   1.00
C202   C     0.66125   0.02813   0.34554   0.00000  Uiso   1.00
C203   C     0.64649   0.98184   0.40922   0.00000  Uiso   1.00
C204   C     0.65428   0.89770   0.39102   0.00000  Uiso   1.00
C205   C     0.74058   0.16714   0.34433   0.00000  Uiso   1.00
C206   C     0.79252   0.23771   0.40700   0.00000  Uiso   1.00
C207   C     0.86712   0.27060   0.38778   0.00000  Uiso   1.00
H208   H     0.71327   0.02552   0.14470   0.00000  Uiso   1.00
H209   H     0.58450   0.05164   0.04025   0.00000  Uiso   1.00
H210   H     0.70771   0.87942   0.18699   0.00000  Uiso   1.00
H211   H     0.85372   0.13526   0.18476   0.00000  Uiso   1.00
H212   H     0.43211   0.09664   0.95932   0.00000  Uiso   1.00
H213   H     0.69193   0.73353   0.26874   0.00000  Uiso   1.00
H214   H     0.99983   0.27300   0.26405   0.00000  Uiso   1.00
H215   H     0.63927   0.14936   0.41337   0.00000  Uiso   1.00
H216   H     0.50643   0.18228   0.32366   0.00000  Uiso   1.00
H217   H     0.62964   0.01006   0.47040   0.00000  Uiso   1.00
H218   H     0.77565   0.26590   0.46817   0.00000  Uiso   1.00
H219   H     0.36874   0.20267   0.18935   0.00000  Uiso   1.00
H220   H     0.62857   0.83955   0.49877   0.00000  Uiso   1.00
H221   H     0.93646   0.37903   0.49407   0.00000  Uiso   1.00
O222   O     0.31436   0.16905   0.01047   0.00000  Uiso   1.00
O223   O     0.65525   0.69266   0.41643   0.00000  Uiso   1.00
O224   O     0.05921   0.40044   0.41026   0.00000  Uiso   1.00
N225   N     0.43543   0.11709   0.02577   0.00000  Uiso   1.00
N226   N     0.67834   0.77760   0.31505   0.00000  Uiso   1.00
N227   N     0.96621   0.28195   0.31067   0.00000  Uiso   1.00
N228   N     0.40133   0.17415   0.14954   0.00000  Uiso   1.00
N229   N     0.64424   0.83465   0.43883   0.00000  Uiso   1.00
N230   N     0.93211   0.33900   0.43445   0.00000  Uiso   1.00
C231   C     0.22011   0.69813   0.05078   0.00000  Uiso   1.00
C232   C     0.20306   0.61610   0.08333   0.00000  Uiso   1.00
C233   C     0.12521   0.56695   0.07690   0.00000  Uiso   1.00
C234   C     0.12276   0.49417   0.11063   0.00000  Uiso   1.00
C235   C     0.08520   0.37024   0.15523   0.00000  Uiso   1.00
C236   C     0.27552   0.68358   0.98489   0.00000  Uiso   1.00
C237   C     0.25859   0.69116   0.89571   0.00000  Uiso   1.00
C238   C     0.31714   0.67519   0.84658   0.00000  Uiso   1.00
C239   C     0.39210   0.65608   0.73838   0.00000  Uiso   1.00
C240   C     0.27366   0.76604   0.13297   0.00000  Uiso   1.00
C241   C     0.25518   0.84297   0.16829   0.00000  Uiso   1.00
C242   C     0.31217   0.89643   0.24382   0.00000  Uiso   1.00
C243   C     0.38424   0.00535   0.36554   0.00000  Uiso   1.00
C244   C     0.35421   0.65630   0.12209   0.00000  Uiso   1.00
C245   C     0.27590   0.59338   0.12206   0.00000  Uiso   1.00
C246   C     0.27356   0.52066   0.15580   0.00000  Uiso   1.00
C247   C     0.19572   0.47140   0.14943   0.00000  Uiso   1.00
C248   C     0.34835   0.66085   0.02362   0.00000  Uiso   1.00
C249   C     0.40694   0.64488   0.97461   0.00000  Uiso   1.00
C250   C     0.39010   0.65243   0.88538   0.00000  Uiso   1.00
C251   C     0.34649   0.74331   0.17171   0.00000  Uiso   1.00
C252   C     0.40353   0.79668   0.24719   0.00000  Uiso   1.00
C253   C     0.38514   0.87367   0.28262   0.00000  Uiso   1.00
H254   H     0.16341   0.71582   0.02062   0.00000  Uiso   1.00
H255   H     0.06886   0.58455   0.04692   0.00000  Uiso   1.00
H256   H     0.20222   0.70876   0.86576   0.00000  Uiso   1.00
H257   H     0.19881   0.86053   0.13830   0.00000  Uiso   1.00
H258   H     0.99615   0.42897   0.09313   0.00000  Uiso   1.00
H259   H     0.27736   0.69089   0.71115   0.00000  Uiso   1.00
H260   H     0.27017   0.01095   0.28585   0.00000  Uiso   1.00
H261   H     0.41091   0.63860   0.15224   0.00000  Uiso   1.00
H262   H     0.32994   0.50309   0.18577   0.00000  Uiso   1.00
H263   H     0.46330   0.62730   0.00461   0.00000  Uiso   1.00
H264   H     0.45989   0.77907   0.27715   0.00000  Uiso   1.00
H265   H     0.20805   0.36286   0.20582   0.00000  Uiso   1.00
H266   H     0.48927   0.62478   0.82385   0.00000  Uiso   1.00
H267   H     0.48207   0.94483   0.39855   0.00000  Uiso   1.00
O268   O     0.04436   0.30815   0.16913   0.00000  Uiso   1.00
O269   O     0.41332   0.65180   0.66800   0.00000  Uiso   1.00
O270   O     0.40387   0.07169   0.42199   0.00000  Uiso   1.00
N271   N     0.05713   0.43202   0.11506   0.00000  Uiso   1.00
N272   N     0.32005   0.67689   0.75794   0.00000  Uiso   1.00
N273   N     0.31333   0.97612   0.29522   0.00000  Uiso   1.00
N274   N     0.17115   0.39644   0.17571   0.00000  Uiso   1.00
N275   N     0.43407   0.64131   0.81858   0.00000  Uiso   1.00
N276   N     0.42735   0.94054   0.35586   0.00000  Uiso   1.00
