data_job_05966
_audit_creation_date              2018-12-19
_audit_creation_method            'Materials Studio'
_symmetry_space_group_name_H-M    'P1'
_symmetry_Int_Tables_number       1
_symmetry_cell_setting            triclinic
loop_
_symmetry_equiv_pos_as_xyz
  x,y,z
_cell_length_a                    15.9700
_cell_length_b                    16.0021
_cell_length_c                    16.0328
_cell_angle_alpha                 104.6440
_cell_angle_beta                  104.6440
_cell_angle_gamma                 104.6400
loop_
_atom_site_label
_atom_site_type_symbol
_atom_site_fract_x
_atom_site_fract_y
_atom_site_fract_z
_atom_site_U_iso_or_equiv
_atom_site_adp_type
_atom_site_occupancy
C1     C     0.66274   0.32273   0.91443   0.00000  Uiso   1.00
C2     C     0.74062   0.41146   0.93589   0.00000  Uiso   1.00
C3     C     0.73394   0.48097   0.90024   0.00000  Uiso   1.00
C4     C     0.81303   0.55662   0.92836   0.00000  Uiso   1.00
C5     C     0.92138   0.69350   0.95229   0.00000  Uiso   1.00
C6     C     0.69711   0.24488   0.87865   0.00000  Uiso   1.00
C7     C     0.65382   0.17431   0.79487   0.00000  Uiso   1.00
C8     C     0.69628   0.10973   0.77483   0.00000  Uiso   1.00
C9     C     0.73703   0.98794   0.70992   0.00000  Uiso   1.00
C10    C     0.65492   0.31921   0.00641   0.00000  Uiso   1.00
C11    C     0.57615   0.31112   0.03004   0.00000  Uiso   1.00
C12    C     0.58309   0.30909   0.11755   0.00000  Uiso   1.00
C13    C     0.55834   0.30272   0.25100   0.00000  Uiso   1.00
C14    C     0.81511   0.33349   0.02779   0.00000  Uiso   1.00
C15    C     0.82338   0.41731   0.99746   0.00000  Uiso   1.00
C16    C     0.90251   0.49288   0.02566   0.00000  Uiso   1.00
C17    C     0.89594   0.56248   0.99005   0.00000  Uiso   1.00
C18    C     0.77986   0.25072   0.94022   0.00000  Uiso   1.00
C19    C     0.82240   0.18622   0.92030   0.00000  Uiso   1.00
C20    C     0.77919   0.11558   0.83651   0.00000  Uiso   1.00
C21    C     0.73768   0.32506   0.06799   0.00000  Uiso   1.00
C22    C     0.74474   0.32304   0.15547   0.00000  Uiso   1.00
C23    C     0.66600   0.31495   0.17924   0.00000  Uiso   1.00
H24    H     0.59831   0.31817   0.86648   0.00000  Uiso   1.00
H25    H     0.66988   0.47641   0.85258   0.00000  Uiso   1.00
H26    H     0.58977   0.16980   0.74724   0.00000  Uiso   1.00
H27    H     0.51212   0.30660   0.98238   0.00000  Uiso   1.00
H28    H     0.78573   0.65442   0.86429   0.00000  Uiso   1.00
H29    H     0.61680   0.00789   0.64220   0.00000  Uiso   1.00
H30    H     0.45306   0.29635   0.13802   0.00000  Uiso   1.00
H31    H     0.87954   0.33804   0.07573   0.00000  Uiso   1.00
H32    H     0.96655   0.49738   0.07331   0.00000  Uiso   1.00
H33    H     0.88644   0.19077   0.96797   0.00000  Uiso   1.00
H34    H     0.80879   0.32756   0.20310   0.00000  Uiso   1.00
H35    H     0.02652   0.67144   0.04344   0.00000  Uiso   1.00
H36    H     0.85759   0.02491   0.82134   0.00000  Uiso   1.00
H37    H     0.69385   0.31337   0.31717   0.00000  Uiso   1.00
O38    O     0.95829   0.76738   0.94847   0.00000  Uiso   1.00
O39    O     0.73665   0.91915   0.65710   0.00000  Uiso   1.00
O40    O     0.52184   0.29760   0.30761   0.00000  Uiso   1.00
N41    N     0.83045   0.63657   0.90680   0.00000  Uiso   1.00
N42    N     0.67252   0.03211   0.69915   0.00000  Uiso   1.00
N43    N     0.51944   0.30177   0.16269   0.00000  Uiso   1.00
N44    N     0.96002   0.64572   0.00320   0.00000  Uiso   1.00
N45    N     0.80209   0.04127   0.79555   0.00000  Uiso   1.00
N46    N     0.64900   0.31092   0.25909   0.00000  Uiso   1.00
C47    C     0.91431   0.66279   0.32286   0.00000  Uiso   1.00
C48    C     0.93579   0.74050   0.41141   0.00000  Uiso   1.00
C49    C     0.89996   0.73380   0.48075   0.00000  Uiso   1.00
C50    C     0.92813   0.81274   0.55626   0.00000  Uiso   1.00
C51    C     0.95205   0.92085   0.69286   0.00000  Uiso   1.00
C52    C     0.87840   0.69707   0.24514   0.00000  Uiso   1.00
C53    C     0.79432   0.65383   0.17468   0.00000  Uiso   1.00
C54    C     0.77420   0.69620   0.11021   0.00000  Uiso   1.00
C55    C     0.70905   0.73684   0.98862   0.00000  Uiso   1.00
C56    C     0.00669   0.65503   0.31940   0.00000  Uiso   1.00
C57    C     0.03047   0.57646   0.31135   0.00000  Uiso   1.00
C58    C     0.11834   0.58343   0.30938   0.00000  Uiso   1.00
C59    C     0.25237   0.55881   0.30310   0.00000  Uiso   1.00
C60    C     0.02807   0.81489   0.33365   0.00000  Uiso   1.00
C61    C     0.99758   0.82312   0.41727   0.00000  Uiso   1.00
C62    C     0.02582   0.90209   0.49269   0.00000  Uiso   1.00
C63    C     0.99004   0.89550   0.56214   0.00000  Uiso   1.00
C64    C     0.94019   0.77968   0.25100   0.00000  Uiso   1.00
C65    C     0.92019   0.82211   0.18661   0.00000  Uiso   1.00
C66    C     0.83610   0.77896   0.11608   0.00000  Uiso   1.00
C67    C     0.06848   0.73765   0.32526   0.00000  Uiso   1.00
C68    C     0.15633   0.74474   0.32330   0.00000  Uiso   1.00
C69    C     0.18024   0.66619   0.31525   0.00000  Uiso   1.00
H70    H     0.86620   0.59847   0.31829   0.00000  Uiso   1.00
H71    H     0.85213   0.66986   0.47619   0.00000  Uiso   1.00
H72    H     0.74652   0.58990   0.17015   0.00000  Uiso   1.00
H73    H     0.98263   0.51254   0.30682   0.00000  Uiso   1.00
H74    H     0.86376   0.78545   0.65382   0.00000  Uiso   1.00
H75    H     0.64109   0.61683   0.00851   0.00000  Uiso   1.00
H76    H     0.13897   0.45369   0.29669   0.00000  Uiso   1.00
H77    H     0.07618   0.87921   0.33821   0.00000  Uiso   1.00
H78    H     0.07364   0.96601   0.49721   0.00000  Uiso   1.00
H79    H     0.96803   0.88604   0.19117   0.00000  Uiso   1.00
H80    H     0.20413   0.80868   0.32783   0.00000  Uiso   1.00
H81    H     0.04354   0.02581   0.67088   0.00000  Uiso   1.00
H82    H     0.82087   0.85719   0.02557   0.00000  Uiso   1.00
H83    H     0.31874   0.69406   0.31375   0.00000  Uiso   1.00
O84    O     0.94816   0.95767   0.76658   0.00000  Uiso   1.00
O85    O     0.65604   0.73644   0.91994   0.00000  Uiso   1.00
O86    O     0.30924   0.52241   0.29803   0.00000  Uiso   1.00
N87    N     0.90643   0.83010   0.63603   0.00000  Uiso   1.00
N88    N     0.69825   0.67246   0.03271   0.00000  Uiso   1.00
N89    N     0.16371   0.51994   0.30210   0.00000  Uiso   1.00
N90    N     0.00317   0.95944   0.64521   0.00000  Uiso   1.00
N91    N     0.79498   0.80180   0.04189   0.00000  Uiso   1.00
N92    N     0.26045   0.64928   0.31128   0.00000  Uiso   1.00
C93    C     0.32258   0.91435   0.66279   0.00000  Uiso   1.00
C94    C     0.41147   0.93582   0.74040   0.00000  Uiso   1.00
C95    C     0.48112   0.90011   0.73376   0.00000  Uiso   1.00
C96    C     0.55690   0.92826   0.81257   0.00000  Uiso   1.00
C97    C     0.69402   0.95219   0.92054   0.00000  Uiso   1.00
C98    C     0.24454   0.87847   0.69696   0.00000  Uiso   1.00
C99    C     0.17384   0.79454   0.65378   0.00000  Uiso   1.00
C100   C     0.10909   0.77442   0.69603   0.00000  Uiso   1.00
C101   C     0.98701   0.70934   0.73652   0.00000  Uiso   1.00
C102   C     0.31907   0.00652   0.65504   0.00000  Uiso   1.00
C103   C     0.31101   0.03025   0.57661   0.00000  Uiso   1.00
C104   C     0.30899   0.11794   0.58356   0.00000  Uiso   1.00
C105   C     0.30263   0.25168   0.55897   0.00000  Uiso   1.00
C106   C     0.33330   0.02785   0.81457   0.00000  Uiso   1.00
C107   C     0.41729   0.99747   0.82284   0.00000  Uiso   1.00
C108   C     0.49298   0.02569   0.90169   0.00000  Uiso   1.00
C109   C     0.56274   0.99002   0.89516   0.00000  Uiso   1.00
C110   C     0.25036   0.94012   0.77940   0.00000  Uiso   1.00
C111   C     0.18569   0.92012   0.82171   0.00000  Uiso   1.00
C112   C     0.11492   0.83618   0.77862   0.00000  Uiso   1.00
C113   C     0.32489   0.06818   0.73748   0.00000  Uiso   1.00
C114   C     0.32287   0.15584   0.74455   0.00000  Uiso   1.00
C115   C     0.31482   0.17970   0.66615   0.00000  Uiso   1.00
H116   H     0.31805   0.86635   0.59861   0.00000  Uiso   1.00
H117   H     0.47659   0.85239   0.66995   0.00000  Uiso   1.00
H118   H     0.16935   0.74685   0.58998   0.00000  Uiso   1.00
H119   H     0.30651   0.98253   0.51283   0.00000  Uiso   1.00
H120   H     0.65492   0.86408   0.78540   0.00000  Uiso   1.00
H121   H     0.00707   0.64155   0.61677   0.00000  Uiso   1.00
H122   H     0.29629   0.13853   0.45408   0.00000  Uiso   1.00
H123   H     0.33783   0.07585   0.87876   0.00000  Uiso   1.00
H124   H     0.49746   0.07340   0.96547   0.00000  Uiso   1.00
H125   H     0.19022   0.96785   0.88551   0.00000  Uiso   1.00
H126   H     0.32738   0.20353   0.80835   0.00000  Uiso   1.00
H127   H     0.67186   0.04345   0.02526   0.00000  Uiso   1.00
H128   H     0.02400   0.82092   0.85663   0.00000  Uiso   1.00
H129   H     0.31323   0.31790   0.69394   0.00000  Uiso   1.00
O130   O     0.76803   0.94835   0.95733   0.00000  Uiso   1.00
O131   O     0.91806   0.65640   0.73608   0.00000  Uiso   1.00
O132   O     0.29752   0.30842   0.52264   0.00000  Uiso   1.00
N133   N     0.63701   0.90665   0.82995   0.00000  Uiso   1.00
N134   N     0.03131   0.69858   0.67230   0.00000  Uiso   1.00
N135   N     0.30168   0.16321   0.52019   0.00000  Uiso   1.00
N136   N     0.64612   0.00317   0.95902   0.00000  Uiso   1.00
N137   N     0.04043   0.79510   0.80137   0.00000  Uiso   1.00
N138   N     0.31080   0.25973   0.64926   0.00000  Uiso   1.00
C139   C     0.33726   0.67727   0.08557   0.00000  Uiso   1.00
C140   C     0.25938   0.58854   0.06411   0.00000  Uiso   1.00
C141   C     0.26606   0.51903   0.09976   0.00000  Uiso   1.00
C142   C     0.18697   0.44338   0.07164   0.00000  Uiso   1.00
C143   C     0.07862   0.30650   0.04771   0.00000  Uiso   1.00
C144   C     0.30289   0.75512   0.12135   0.00000  Uiso   1.00
C145   C     0.34618   0.82569   0.20513   0.00000  Uiso   1.00
C146   C     0.30372   0.89027   0.22517   0.00000  Uiso   1.00
C147   C     0.26297   0.01206   0.29008   0.00000  Uiso   1.00
C148   C     0.34508   0.68079   0.99359   0.00000  Uiso   1.00
C149   C     0.42385   0.68888   0.96996   0.00000  Uiso   1.00
C150   C     0.41691   0.69091   0.88245   0.00000  Uiso   1.00
C151   C     0.44165   0.69728   0.74900   0.00000  Uiso   1.00
C152   C     0.18489   0.66651   0.97221   0.00000  Uiso   1.00
C153   C     0.17662   0.58269   0.00254   0.00000  Uiso   1.00
C154   C     0.09749   0.50712   0.97434   0.00000  Uiso   1.00
C155   C     0.10406   0.43752   0.00995   0.00000  Uiso   1.00
C156   C     0.22014   0.74928   0.05978   0.00000  Uiso   1.00
C157   C     0.17760   0.81378   0.07970   0.00000  Uiso   1.00
C158   C     0.22081   0.88442   0.16349   0.00000  Uiso   1.00
C159   C     0.26232   0.67494   0.93202   0.00000  Uiso   1.00
C160   C     0.25526   0.67696   0.84453   0.00000  Uiso   1.00
C161   C     0.33400   0.68505   0.82076   0.00000  Uiso   1.00
H162   H     0.40169   0.68183   0.13352   0.00000  Uiso   1.00
H163   H     0.33012   0.52359   0.14742   0.00000  Uiso   1.00
H164   H     0.41023   0.83020   0.25276   0.00000  Uiso   1.00
H165   H     0.48787   0.69340   0.01762   0.00000  Uiso   1.00
H166   H     0.21427   0.34558   0.13571   0.00000  Uiso   1.00
H167   H     0.38320   0.99211   0.35780   0.00000  Uiso   1.00
H168   H     0.54694   0.70365   0.86198   0.00000  Uiso   1.00
H169   H     0.12046   0.66196   0.92427   0.00000  Uiso   1.00
H170   H     0.03345   0.50262   0.92669   0.00000  Uiso   1.00
H171   H     0.11356   0.80923   0.03203   0.00000  Uiso   1.00
H172   H     0.19121   0.67244   0.79690   0.00000  Uiso   1.00
H173   H     0.97348   0.32856   0.95656   0.00000  Uiso   1.00
H174   H     0.14241   0.97509   0.17866   0.00000  Uiso   1.00
H175   H     0.30615   0.68663   0.68283   0.00000  Uiso   1.00
O176   O     0.04171   0.23262   0.05153   0.00000  Uiso   1.00
O177   O     0.26335   0.08085   0.34290   0.00000  Uiso   1.00
O178   O     0.47816   0.70240   0.69239   0.00000  Uiso   1.00
N179   N     0.16955   0.36343   0.09320   0.00000  Uiso   1.00
N180   N     0.32748   0.96789   0.30085   0.00000  Uiso   1.00
N181   N     0.48056   0.69823   0.83731   0.00000  Uiso   1.00
N182   N     0.03998   0.35427   0.99680   0.00000  Uiso   1.00
N183   N     0.19791   0.95873   0.20445   0.00000  Uiso   1.00
N184   N     0.35100   0.68908   0.74091   0.00000  Uiso   1.00
C185   C     0.08569   0.33721   0.67714   0.00000  Uiso   1.00
C186   C     0.06421   0.25950   0.58859   0.00000  Uiso   1.00
C187   C     0.10004   0.26620   0.51925   0.00000  Uiso   1.00
C188   C     0.07187   0.18726   0.44374   0.00000  Uiso   1.00
C189   C     0.04795   0.07915   0.30714   0.00000  Uiso   1.00
C190   C     0.12160   0.30293   0.75486   0.00000  Uiso   1.00
C191   C     0.20568   0.34617   0.82532   0.00000  Uiso   1.00
C192   C     0.22580   0.30380   0.88979   0.00000  Uiso   1.00
C193   C     0.29095   0.26316   0.01138   0.00000  Uiso   1.00
C194   C     0.99331   0.34497   0.68060   0.00000  Uiso   1.00
C195   C     0.96953   0.42354   0.68865   0.00000  Uiso   1.00
C196   C     0.88166   0.41657   0.69062   0.00000  Uiso   1.00
C197   C     0.74763   0.44119   0.69690   0.00000  Uiso   1.00
C198   C     0.97193   0.18511   0.66635   0.00000  Uiso   1.00
C199   C     0.00242   0.17688   0.58273   0.00000  Uiso   1.00
C200   C     0.97418   0.09791   0.50731   0.00000  Uiso   1.00
C201   C     0.00996   0.10450   0.43786   0.00000  Uiso   1.00
C202   C     0.05981   0.22032   0.74900   0.00000  Uiso   1.00
C203   C     0.07981   0.17789   0.81339   0.00000  Uiso   1.00
C204   C     0.16390   0.22104   0.88392   0.00000  Uiso   1.00
C205   C     0.93152   0.26235   0.67474   0.00000  Uiso   1.00
C206   C     0.84367   0.25526   0.67670   0.00000  Uiso   1.00
C207   C     0.81976   0.33381   0.68475   0.00000  Uiso   1.00
H208   H     0.13380   0.40153   0.68171   0.00000  Uiso   1.00
H209   H     0.14787   0.33014   0.52381   0.00000  Uiso   1.00
H210   H     0.25348   0.41010   0.82985   0.00000  Uiso   1.00
H211   H     0.01737   0.48746   0.69318   0.00000  Uiso   1.00
H212   H     0.13624   0.21455   0.34618   0.00000  Uiso   1.00
H213   H     0.35891   0.38317   0.99149   0.00000  Uiso   1.00
H214   H     0.86103   0.54631   0.70331   0.00000  Uiso   1.00
H215   H     0.92382   0.12079   0.66179   0.00000  Uiso   1.00
H216   H     0.92636   0.03399   0.50279   0.00000  Uiso   1.00
H217   H     0.03197   0.11396   0.80883   0.00000  Uiso   1.00
H218   H     0.79587   0.19131   0.67217   0.00000  Uiso   1.00
H219   H     0.95646   0.97419   0.32912   0.00000  Uiso   1.00
H220   H     0.17913   0.14281   0.97443   0.00000  Uiso   1.00
H221   H     0.68126   0.30594   0.68625   0.00000  Uiso   1.00
O222   O     0.05184   0.04233   0.23342   0.00000  Uiso   1.00
O223   O     0.34396   0.26356   0.08006   0.00000  Uiso   1.00
O224   O     0.69076   0.47759   0.70197   0.00000  Uiso   1.00
N225   N     0.09357   0.16990   0.36397   0.00000  Uiso   1.00
N226   N     0.30175   0.32754   0.96729   0.00000  Uiso   1.00
N227   N     0.83629   0.48006   0.69790   0.00000  Uiso   1.00
N228   N     0.99683   0.04056   0.35479   0.00000  Uiso   1.00
N229   N     0.20502   0.19820   0.95811   0.00000  Uiso   1.00
N230   N     0.73955   0.35072   0.68872   0.00000  Uiso   1.00
C231   C     0.67742   0.08565   0.33721   0.00000  Uiso   1.00
C232   C     0.58853   0.06418   0.25960   0.00000  Uiso   1.00
C233   C     0.51887   0.09989   0.26624   0.00000  Uiso   1.00
C234   C     0.44310   0.07174   0.18743   0.00000  Uiso   1.00
C235   C     0.30598   0.04781   0.07946   0.00000  Uiso   1.00
C236   C     0.75546   0.12153   0.30304   0.00000  Uiso   1.00
C237   C     0.82616   0.20546   0.34622   0.00000  Uiso   1.00
C238   C     0.89091   0.22558   0.30397   0.00000  Uiso   1.00
C239   C     0.01299   0.29066   0.26348   0.00000  Uiso   1.00
C240   C     0.68093   0.99348   0.34496   0.00000  Uiso   1.00
C241   C     0.68899   0.96975   0.42339   0.00000  Uiso   1.00
C242   C     0.69101   0.88206   0.41644   0.00000  Uiso   1.00
C243   C     0.69737   0.74832   0.44103   0.00000  Uiso   1.00
C244   C     0.66670   0.97215   0.18543   0.00000  Uiso   1.00
C245   C     0.58271   0.00252   0.17716   0.00000  Uiso   1.00
C246   C     0.50702   0.97431   0.09831   0.00000  Uiso   1.00
C247   C     0.43726   0.00998   0.10484   0.00000  Uiso   1.00
C248   C     0.74964   0.05988   0.22060   0.00000  Uiso   1.00
C249   C     0.81430   0.07988   0.17829   0.00000  Uiso   1.00
C250   C     0.88508   0.16382   0.22138   0.00000  Uiso   1.00
C251   C     0.67510   0.93182   0.26252   0.00000  Uiso   1.00
C252   C     0.67713   0.84416   0.25545   0.00000  Uiso   1.00
C253   C     0.68518   0.82030   0.33385   0.00000  Uiso   1.00
H254   H     0.68195   0.13365   0.40139   0.00000  Uiso   1.00
H255   H     0.52341   0.14761   0.33005   0.00000  Uiso   1.00
H256   H     0.83065   0.25315   0.41002   0.00000  Uiso   1.00
H257   H     0.69349   0.01747   0.48717   0.00000  Uiso   1.00
H258   H     0.34508   0.13592   0.21460   0.00000  Uiso   1.00
H259   H     0.99293   0.35845   0.38323   0.00000  Uiso   1.00
H260   H     0.70371   0.86147   0.54592   0.00000  Uiso   1.00
H261   H     0.66217   0.92415   0.12124   0.00000  Uiso   1.00
H262   H     0.50253   0.92660   0.03453   0.00000  Uiso   1.00
H263   H     0.80978   0.03215   0.11449   0.00000  Uiso   1.00
H264   H     0.67262   0.79647   0.19165   0.00000  Uiso   1.00
H265   H     0.32814   0.95654   0.97474   0.00000  Uiso   1.00
H266   H     0.97600   0.17908   0.14337   0.00000  Uiso   1.00
H267   H     0.68677   0.68210   0.30606   0.00000  Uiso   1.00
O268   O     0.23197   0.05165   0.04267   0.00000  Uiso   1.00
O269   O     0.08194   0.34360   0.26392   0.00000  Uiso   1.00
O270   O     0.70247   0.69158   0.47736   0.00000  Uiso   1.00
N271   N     0.36299   0.09335   0.17005   0.00000  Uiso   1.00
N272   N     0.96869   0.30142   0.32770   0.00000  Uiso   1.00
N273   N     0.69831   0.83679   0.47981   0.00000  Uiso   1.00
N274   N     0.35388   0.99683   0.04098   0.00000  Uiso   1.00
N275   N     0.95957   0.20489   0.19863   0.00000  Uiso   1.00
N276   N     0.68920   0.74027   0.35074   0.00000  Uiso   1.00
