data_job_02208
_audit_creation_date              2018-12-19
_audit_creation_method            'Materials Studio'
_symmetry_space_group_name_H-M    'P1'
_symmetry_Int_Tables_number       1
_symmetry_cell_setting            triclinic
loop_
_symmetry_equiv_pos_as_xyz
  x,y,z
_cell_length_a                    14.5268
_cell_length_b                    17.5903
_cell_length_c                    21.8076
_cell_angle_alpha                 90.0000
_cell_angle_beta                  90.0000
_cell_angle_gamma                 90.0000
loop_
_atom_site_label
_atom_site_type_symbol
_atom_site_fract_x
_atom_site_fract_y
_atom_site_fract_z
_atom_site_U_iso_or_equiv
_atom_site_adp_type
_atom_site_occupancy
C1     C     0.85959   0.39501   0.25597   0.00000  Uiso   1.00
C2     C     0.87857   0.39908   0.32467   0.00000  Uiso   1.00
C3     C     0.81554   0.38359   0.37083   0.00000  Uiso   1.00
C4     C     0.84633   0.39054   0.43084   0.00000  Uiso   1.00
C5     C     0.86203   0.39352   0.53548   0.00000  Uiso   1.00
C6     C     0.93068   0.34016   0.22971   0.00000  Uiso   1.00
C7     C     0.91146   0.27513   0.19602   0.00000  Uiso   1.00
C8     C     0.98612   0.23250   0.17609   0.00000  Uiso   1.00
C9     C     0.08273   0.14404   0.13327   0.00000  Uiso   1.00
C10    C     0.88382   0.47314   0.23033   0.00000  Uiso   1.00
C11    C     0.82520   0.51991   0.19714   0.00000  Uiso   1.00
C12    C     0.86041   0.58923   0.17771   0.00000  Uiso   1.00
C13    C     0.88425   0.70724   0.13584   0.00000  Uiso   1.00
C14    C     0.02637   0.43492   0.28047   0.00000  Uiso   1.00
C15    C     0.96916   0.42076   0.33797   0.00000  Uiso   1.00
C16    C     0.00006   0.42774   0.39793   0.00000  Uiso   1.00
C17    C     0.93708   0.41226   0.44417   0.00000  Uiso   1.00
C18    C     0.02127   0.36183   0.24302   0.00000  Uiso   1.00
C19    C     0.09598   0.31929   0.22312   0.00000  Uiso   1.00
C20    C     0.07687   0.25421   0.18942   0.00000  Uiso   1.00
C21    C     0.97440   0.49482   0.24363   0.00000  Uiso   1.00
C22    C     0.00971   0.56407   0.22424   0.00000  Uiso   1.00
C23    C     0.95116   0.61095   0.19103   0.00000  Uiso   1.00
H24    H     0.78907   0.37813   0.24561   0.00000  Uiso   1.00
H25    H     0.74544   0.36680   0.36051   0.00000  Uiso   1.00
H26    H     0.84135   0.25838   0.18573   0.00000  Uiso   1.00
H27    H     0.75510   0.50312   0.18685   0.00000  Uiso   1.00
H28    H     0.73703   0.36378   0.49376   0.00000  Uiso   1.00
H29    H     0.93926   0.13517   0.12521   0.00000  Uiso   1.00
H30    H     0.75739   0.65126   0.12757   0.00000  Uiso   1.00
H31    H     0.09690   0.45180   0.29083   0.00000  Uiso   1.00
H32    H     0.07016   0.44452   0.40821   0.00000  Uiso   1.00
H33    H     0.16607   0.33609   0.23343   0.00000  Uiso   1.00
H34    H     0.07982   0.58083   0.23455   0.00000  Uiso   1.00
H35    H     0.00058   0.42685   0.53248   0.00000  Uiso   1.00
H36    H     0.20281   0.19824   0.16392   0.00000  Uiso   1.00
H37    H     0.02094   0.71433   0.16628   0.00000  Uiso   1.00
O38    O     0.84567   0.38917   0.58952   0.00000  Uiso   1.00
O39    O     0.11099   0.08925   0.10598   0.00000  Uiso   1.00
O40    O     0.87237   0.76634   0.10908   0.00000  Uiso   1.00
N41    N     0.80272   0.37964   0.48677   0.00000  Uiso   1.00
N42    N     0.99179   0.16589   0.14220   0.00000  Uiso   1.00
N43    N     0.82176   0.64838   0.14439   0.00000  Uiso   1.00
N44    N     0.94454   0.41357   0.50760   0.00000  Uiso   1.00
N45    N     0.13361   0.19983   0.16303   0.00000  Uiso   1.00
N46    N     0.96358   0.68232   0.16522   0.00000  Uiso   1.00
C47    C     0.64041   0.60499   0.75597   0.00000  Uiso   1.00
C48    C     0.62143   0.60092   0.82467   0.00000  Uiso   1.00
C49    C     0.68446   0.61641   0.87083   0.00000  Uiso   1.00
C50    C     0.65367   0.60946   0.93084   0.00000  Uiso   1.00
C51    C     0.63797   0.60648   0.03548   0.00000  Uiso   1.00
C52    C     0.56932   0.65984   0.72971   0.00000  Uiso   1.00
C53    C     0.58854   0.72487   0.69602   0.00000  Uiso   1.00
C54    C     0.51388   0.76750   0.67609   0.00000  Uiso   1.00
C55    C     0.41727   0.85596   0.63327   0.00000  Uiso   1.00
C56    C     0.61618   0.52686   0.73033   0.00000  Uiso   1.00
C57    C     0.67480   0.48009   0.69714   0.00000  Uiso   1.00
C58    C     0.63959   0.41077   0.67771   0.00000  Uiso   1.00
C59    C     0.61575   0.29276   0.63584   0.00000  Uiso   1.00
C60    C     0.47363   0.56508   0.78047   0.00000  Uiso   1.00
C61    C     0.53084   0.57924   0.83797   0.00000  Uiso   1.00
C62    C     0.49994   0.57226   0.89793   0.00000  Uiso   1.00
C63    C     0.56292   0.58774   0.94417   0.00000  Uiso   1.00
C64    C     0.47873   0.63817   0.74302   0.00000  Uiso   1.00
C65    C     0.40402   0.68071   0.72312   0.00000  Uiso   1.00
C66    C     0.42313   0.74579   0.68942   0.00000  Uiso   1.00
C67    C     0.52560   0.50518   0.74363   0.00000  Uiso   1.00
C68    C     0.49029   0.43593   0.72424   0.00000  Uiso   1.00
C69    C     0.54884   0.38905   0.69103   0.00000  Uiso   1.00
H70    H     0.71093   0.62187   0.74561   0.00000  Uiso   1.00
H71    H     0.75456   0.63320   0.86051   0.00000  Uiso   1.00
H72    H     0.65865   0.74162   0.68573   0.00000  Uiso   1.00
H73    H     0.74490   0.49688   0.68685   0.00000  Uiso   1.00
H74    H     0.76297   0.63622   0.99376   0.00000  Uiso   1.00
H75    H     0.56074   0.86483   0.62521   0.00000  Uiso   1.00
H76    H     0.74261   0.34874   0.62757   0.00000  Uiso   1.00
H77    H     0.40310   0.54820   0.79083   0.00000  Uiso   1.00
H78    H     0.42984   0.55548   0.90821   0.00000  Uiso   1.00
H79    H     0.33393   0.66391   0.73343   0.00000  Uiso   1.00
H80    H     0.42018   0.41917   0.73455   0.00000  Uiso   1.00
H81    H     0.49942   0.57315   0.03248   0.00000  Uiso   1.00
H82    H     0.29719   0.80176   0.66392   0.00000  Uiso   1.00
H83    H     0.47906   0.28567   0.66628   0.00000  Uiso   1.00
O84    O     0.65433   0.61083   0.08952   0.00000  Uiso   1.00
O85    O     0.38901   0.91075   0.60598   0.00000  Uiso   1.00
O86    O     0.62763   0.23366   0.60908   0.00000  Uiso   1.00
N87    N     0.69728   0.62036   0.98677   0.00000  Uiso   1.00
N88    N     0.50821   0.83411   0.64220   0.00000  Uiso   1.00
N89    N     0.67824   0.35162   0.64439   0.00000  Uiso   1.00
N90    N     0.55546   0.58643   0.00760   0.00000  Uiso   1.00
N91    N     0.36639   0.80017   0.66303   0.00000  Uiso   1.00
N92    N     0.53642   0.31768   0.66522   0.00000  Uiso   1.00
C93    C     0.14041   0.89501   0.24403   0.00000  Uiso   1.00
C94    C     0.12143   0.89908   0.17533   0.00000  Uiso   1.00
C95    C     0.18446   0.88359   0.12917   0.00000  Uiso   1.00
C96    C     0.15367   0.89054   0.06916   0.00000  Uiso   1.00
C97    C     0.13797   0.89352   0.96452   0.00000  Uiso   1.00
C98    C     0.06932   0.84016   0.27029   0.00000  Uiso   1.00
C99    C     0.08854   0.77513   0.30398   0.00000  Uiso   1.00
C100   C     0.01388   0.73250   0.32391   0.00000  Uiso   1.00
C101   C     0.91727   0.64404   0.36673   0.00000  Uiso   1.00
C102   C     0.11618   0.97314   0.26967   0.00000  Uiso   1.00
C103   C     0.17480   0.01991   0.30286   0.00000  Uiso   1.00
C104   C     0.13959   0.08923   0.32229   0.00000  Uiso   1.00
C105   C     0.11575   0.20724   0.36416   0.00000  Uiso   1.00
C106   C     0.97363   0.93492   0.21953   0.00000  Uiso   1.00
C107   C     0.03084   0.92076   0.16203   0.00000  Uiso   1.00
C108   C     0.99994   0.92774   0.10207   0.00000  Uiso   1.00
C109   C     0.06292   0.91226   0.05583   0.00000  Uiso   1.00
C110   C     0.97873   0.86183   0.25698   0.00000  Uiso   1.00
C111   C     0.90402   0.81929   0.27688   0.00000  Uiso   1.00
C112   C     0.92313   0.75421   0.31058   0.00000  Uiso   1.00
C113   C     0.02560   0.99482   0.25637   0.00000  Uiso   1.00
C114   C     0.99029   0.06407   0.27576   0.00000  Uiso   1.00
C115   C     0.04884   0.11095   0.30897   0.00000  Uiso   1.00
H116   H     0.21093   0.87813   0.25439   0.00000  Uiso   1.00
H117   H     0.25456   0.86680   0.13949   0.00000  Uiso   1.00
H118   H     0.15865   0.75838   0.31427   0.00000  Uiso   1.00
H119   H     0.24490   0.00312   0.31315   0.00000  Uiso   1.00
H120   H     0.26297   0.86378   0.00624   0.00000  Uiso   1.00
H121   H     0.06074   0.63517   0.37479   0.00000  Uiso   1.00
H122   H     0.24261   0.15126   0.37243   0.00000  Uiso   1.00
H123   H     0.90310   0.95180   0.20917   0.00000  Uiso   1.00
H124   H     0.92984   0.94452   0.09179   0.00000  Uiso   1.00
H125   H     0.83393   0.83609   0.26657   0.00000  Uiso   1.00
H126   H     0.92018   0.08083   0.26545   0.00000  Uiso   1.00
H127   H     0.99942   0.92685   0.96752   0.00000  Uiso   1.00
H128   H     0.79719   0.69824   0.33608   0.00000  Uiso   1.00
H129   H     0.97906   0.21433   0.33372   0.00000  Uiso   1.00
O130   O     0.15433   0.88917   0.91048   0.00000  Uiso   1.00
O131   O     0.88901   0.58925   0.39402   0.00000  Uiso   1.00
O132   O     0.12763   0.26634   0.39092   0.00000  Uiso   1.00
N133   N     0.19728   0.87964   0.01323   0.00000  Uiso   1.00
N134   N     0.00821   0.66589   0.35780   0.00000  Uiso   1.00
N135   N     0.17824   0.14838   0.35561   0.00000  Uiso   1.00
N136   N     0.05546   0.91357   0.99240   0.00000  Uiso   1.00
N137   N     0.86639   0.69983   0.33697   0.00000  Uiso   1.00
N138   N     0.03642   0.18232   0.33478   0.00000  Uiso   1.00
C139   C     0.35959   0.10499   0.74403   0.00000  Uiso   1.00
C140   C     0.37857   0.10092   0.67533   0.00000  Uiso   1.00
C141   C     0.31554   0.11641   0.62917   0.00000  Uiso   1.00
C142   C     0.34633   0.10946   0.56916   0.00000  Uiso   1.00
C143   C     0.36203   0.10648   0.46452   0.00000  Uiso   1.00
C144   C     0.43068   0.15984   0.77029   0.00000  Uiso   1.00
C145   C     0.41146   0.22487   0.80398   0.00000  Uiso   1.00
C146   C     0.48612   0.26750   0.82391   0.00000  Uiso   1.00
C147   C     0.58273   0.35596   0.86673   0.00000  Uiso   1.00
C148   C     0.38382   0.02686   0.76967   0.00000  Uiso   1.00
C149   C     0.32520   0.98009   0.80286   0.00000  Uiso   1.00
C150   C     0.36041   0.91077   0.82229   0.00000  Uiso   1.00
C151   C     0.38425   0.79276   0.86416   0.00000  Uiso   1.00
C152   C     0.52637   0.06508   0.71953   0.00000  Uiso   1.00
C153   C     0.46916   0.07924   0.66203   0.00000  Uiso   1.00
C154   C     0.50006   0.07226   0.60207   0.00000  Uiso   1.00
C155   C     0.43708   0.08774   0.55583   0.00000  Uiso   1.00
C156   C     0.52127   0.13817   0.75698   0.00000  Uiso   1.00
C157   C     0.59598   0.18071   0.77688   0.00000  Uiso   1.00
C158   C     0.57687   0.24579   0.81058   0.00000  Uiso   1.00
C159   C     0.47440   0.00518   0.75637   0.00000  Uiso   1.00
C160   C     0.50971   0.93593   0.77576   0.00000  Uiso   1.00
C161   C     0.45116   0.88905   0.80897   0.00000  Uiso   1.00
H162   H     0.28907   0.12187   0.75439   0.00000  Uiso   1.00
H163   H     0.24544   0.13320   0.63949   0.00000  Uiso   1.00
H164   H     0.34135   0.24162   0.81427   0.00000  Uiso   1.00
H165   H     0.25510   0.99688   0.81315   0.00000  Uiso   1.00
H166   H     0.23703   0.13622   0.50624   0.00000  Uiso   1.00
H167   H     0.43926   0.36483   0.87479   0.00000  Uiso   1.00
H168   H     0.25739   0.84874   0.87243   0.00000  Uiso   1.00
H169   H     0.59690   0.04820   0.70917   0.00000  Uiso   1.00
H170   H     0.57016   0.05548   0.59179   0.00000  Uiso   1.00
H171   H     0.66607   0.16391   0.76657   0.00000  Uiso   1.00
H172   H     0.57982   0.91917   0.76545   0.00000  Uiso   1.00
H173   H     0.50058   0.07315   0.46752   0.00000  Uiso   1.00
H174   H     0.70281   0.30176   0.83608   0.00000  Uiso   1.00
H175   H     0.52094   0.78567   0.83372   0.00000  Uiso   1.00
O176   O     0.34567   0.11083   0.41048   0.00000  Uiso   1.00
O177   O     0.61099   0.41075   0.89402   0.00000  Uiso   1.00
O178   O     0.37237   0.73366   0.89092   0.00000  Uiso   1.00
N179   N     0.30272   0.12036   0.51323   0.00000  Uiso   1.00
N180   N     0.49179   0.33411   0.85780   0.00000  Uiso   1.00
N181   N     0.32176   0.85162   0.85561   0.00000  Uiso   1.00
N182   N     0.44454   0.08643   0.49240   0.00000  Uiso   1.00
N183   N     0.63361   0.30017   0.83697   0.00000  Uiso   1.00
N184   N     0.46358   0.81768   0.83478   0.00000  Uiso   1.00
C185   C     0.14041   0.60499   0.74403   0.00000  Uiso   1.00
C186   C     0.12143   0.60092   0.67533   0.00000  Uiso   1.00
C187   C     0.18446   0.61641   0.62917   0.00000  Uiso   1.00
C188   C     0.15367   0.60946   0.56916   0.00000  Uiso   1.00
C189   C     0.13797   0.60648   0.46452   0.00000  Uiso   1.00
C190   C     0.06932   0.65984   0.77029   0.00000  Uiso   1.00
C191   C     0.08854   0.72487   0.80398   0.00000  Uiso   1.00
C192   C     0.01388   0.76750   0.82391   0.00000  Uiso   1.00
C193   C     0.91727   0.85596   0.86673   0.00000  Uiso   1.00
C194   C     0.11618   0.52686   0.76967   0.00000  Uiso   1.00
C195   C     0.17480   0.48009   0.80286   0.00000  Uiso   1.00
C196   C     0.13959   0.41077   0.82229   0.00000  Uiso   1.00
C197   C     0.11575   0.29276   0.86416   0.00000  Uiso   1.00
C198   C     0.97363   0.56508   0.71953   0.00000  Uiso   1.00
C199   C     0.03084   0.57924   0.66203   0.00000  Uiso   1.00
C200   C     0.99994   0.57226   0.60207   0.00000  Uiso   1.00
C201   C     0.06292   0.58774   0.55583   0.00000  Uiso   1.00
C202   C     0.97873   0.63817   0.75698   0.00000  Uiso   1.00
C203   C     0.90402   0.68071   0.77688   0.00000  Uiso   1.00
C204   C     0.92313   0.74579   0.81058   0.00000  Uiso   1.00
C205   C     0.02560   0.50518   0.75637   0.00000  Uiso   1.00
C206   C     0.99029   0.43593   0.77576   0.00000  Uiso   1.00
C207   C     0.04884   0.38905   0.80897   0.00000  Uiso   1.00
H208   H     0.21093   0.62187   0.75439   0.00000  Uiso   1.00
H209   H     0.25456   0.63320   0.63949   0.00000  Uiso   1.00
H210   H     0.15865   0.74162   0.81427   0.00000  Uiso   1.00
H211   H     0.24490   0.49688   0.81315   0.00000  Uiso   1.00
H212   H     0.26297   0.63622   0.50624   0.00000  Uiso   1.00
H213   H     0.06074   0.86483   0.87479   0.00000  Uiso   1.00
H214   H     0.24261   0.34874   0.87243   0.00000  Uiso   1.00
H215   H     0.90310   0.54820   0.70917   0.00000  Uiso   1.00
H216   H     0.92984   0.55548   0.59179   0.00000  Uiso   1.00
H217   H     0.83393   0.66391   0.76657   0.00000  Uiso   1.00
H218   H     0.92018   0.41917   0.76545   0.00000  Uiso   1.00
H219   H     0.99942   0.57315   0.46752   0.00000  Uiso   1.00
H220   H     0.79719   0.80176   0.83608   0.00000  Uiso   1.00
H221   H     0.97906   0.28567   0.83372   0.00000  Uiso   1.00
O222   O     0.15433   0.61083   0.41048   0.00000  Uiso   1.00
O223   O     0.88901   0.91075   0.89402   0.00000  Uiso   1.00
O224   O     0.12763   0.23366   0.89092   0.00000  Uiso   1.00
N225   N     0.19728   0.62036   0.51323   0.00000  Uiso   1.00
N226   N     0.00821   0.83411   0.85780   0.00000  Uiso   1.00
N227   N     0.17824   0.35162   0.85561   0.00000  Uiso   1.00
N228   N     0.05546   0.58643   0.49240   0.00000  Uiso   1.00
N229   N     0.86639   0.80017   0.83697   0.00000  Uiso   1.00
N230   N     0.03642   0.31768   0.83478   0.00000  Uiso   1.00
C231   C     0.35959   0.39501   0.24403   0.00000  Uiso   1.00
C232   C     0.37857   0.39908   0.17533   0.00000  Uiso   1.00
C233   C     0.31554   0.38359   0.12917   0.00000  Uiso   1.00
C234   C     0.34633   0.39054   0.06916   0.00000  Uiso   1.00
C235   C     0.36203   0.39352   0.96452   0.00000  Uiso   1.00
C236   C     0.43068   0.34016   0.27029   0.00000  Uiso   1.00
C237   C     0.41146   0.27513   0.30398   0.00000  Uiso   1.00
C238   C     0.48612   0.23250   0.32391   0.00000  Uiso   1.00
C239   C     0.58273   0.14404   0.36673   0.00000  Uiso   1.00
C240   C     0.38382   0.47314   0.26967   0.00000  Uiso   1.00
C241   C     0.32520   0.51991   0.30286   0.00000  Uiso   1.00
C242   C     0.36041   0.58923   0.32229   0.00000  Uiso   1.00
C243   C     0.38425   0.70724   0.36416   0.00000  Uiso   1.00
C244   C     0.52637   0.43492   0.21953   0.00000  Uiso   1.00
C245   C     0.46916   0.42076   0.16203   0.00000  Uiso   1.00
C246   C     0.50006   0.42774   0.10207   0.00000  Uiso   1.00
C247   C     0.43708   0.41226   0.05583   0.00000  Uiso   1.00
C248   C     0.52127   0.36183   0.25698   0.00000  Uiso   1.00
C249   C     0.59598   0.31929   0.27688   0.00000  Uiso   1.00
C250   C     0.57687   0.25421   0.31058   0.00000  Uiso   1.00
C251   C     0.47440   0.49482   0.25637   0.00000  Uiso   1.00
C252   C     0.50971   0.56407   0.27576   0.00000  Uiso   1.00
C253   C     0.45116   0.61095   0.30897   0.00000  Uiso   1.00
H254   H     0.28907   0.37813   0.25439   0.00000  Uiso   1.00
H255   H     0.24544   0.36680   0.13949   0.00000  Uiso   1.00
H256   H     0.34135   0.25838   0.31427   0.00000  Uiso   1.00
H257   H     0.25510   0.50312   0.31315   0.00000  Uiso   1.00
H258   H     0.23703   0.36378   0.00624   0.00000  Uiso   1.00
H259   H     0.43926   0.13517   0.37479   0.00000  Uiso   1.00
H260   H     0.25739   0.65126   0.37243   0.00000  Uiso   1.00
H261   H     0.59690   0.45180   0.20917   0.00000  Uiso   1.00
H262   H     0.57016   0.44452   0.09179   0.00000  Uiso   1.00
H263   H     0.66607   0.33609   0.26657   0.00000  Uiso   1.00
H264   H     0.57982   0.58083   0.26545   0.00000  Uiso   1.00
H265   H     0.50058   0.42685   0.96752   0.00000  Uiso   1.00
H266   H     0.70281   0.19824   0.33608   0.00000  Uiso   1.00
H267   H     0.52094   0.71433   0.33372   0.00000  Uiso   1.00
O268   O     0.34567   0.38917   0.91048   0.00000  Uiso   1.00
O269   O     0.61099   0.08925   0.39402   0.00000  Uiso   1.00
O270   O     0.37237   0.76634   0.39092   0.00000  Uiso   1.00
N271   N     0.30272   0.37964   0.01323   0.00000  Uiso   1.00
N272   N     0.49179   0.16589   0.35780   0.00000  Uiso   1.00
N273   N     0.32176   0.64838   0.35561   0.00000  Uiso   1.00
N274   N     0.44454   0.41357   0.99240   0.00000  Uiso   1.00
N275   N     0.63361   0.19983   0.33697   0.00000  Uiso   1.00
N276   N     0.46358   0.68232   0.33478   0.00000  Uiso   1.00
C277   C     0.85959   0.10499   0.75597   0.00000  Uiso   1.00
C278   C     0.87857   0.10092   0.82467   0.00000  Uiso   1.00
C279   C     0.81554   0.11641   0.87083   0.00000  Uiso   1.00
C280   C     0.84633   0.10946   0.93084   0.00000  Uiso   1.00
C281   C     0.86203   0.10648   0.03548   0.00000  Uiso   1.00
C282   C     0.93068   0.15984   0.72971   0.00000  Uiso   1.00
C283   C     0.91146   0.22487   0.69602   0.00000  Uiso   1.00
C284   C     0.98612   0.26750   0.67609   0.00000  Uiso   1.00
C285   C     0.08273   0.35596   0.63327   0.00000  Uiso   1.00
C286   C     0.88382   0.02686   0.73033   0.00000  Uiso   1.00
C287   C     0.82520   0.98009   0.69714   0.00000  Uiso   1.00
C288   C     0.86041   0.91077   0.67771   0.00000  Uiso   1.00
C289   C     0.88425   0.79276   0.63584   0.00000  Uiso   1.00
C290   C     0.02637   0.06508   0.78047   0.00000  Uiso   1.00
C291   C     0.96916   0.07924   0.83797   0.00000  Uiso   1.00
C292   C     0.00006   0.07226   0.89793   0.00000  Uiso   1.00
C293   C     0.93708   0.08774   0.94417   0.00000  Uiso   1.00
C294   C     0.02127   0.13817   0.74302   0.00000  Uiso   1.00
C295   C     0.09598   0.18071   0.72312   0.00000  Uiso   1.00
C296   C     0.07687   0.24579   0.68942   0.00000  Uiso   1.00
C297   C     0.97440   0.00518   0.74363   0.00000  Uiso   1.00
C298   C     0.00971   0.93593   0.72424   0.00000  Uiso   1.00
C299   C     0.95116   0.88905   0.69103   0.00000  Uiso   1.00
H300   H     0.78907   0.12187   0.74561   0.00000  Uiso   1.00
H301   H     0.74544   0.13320   0.86051   0.00000  Uiso   1.00
H302   H     0.84135   0.24162   0.68573   0.00000  Uiso   1.00
H303   H     0.75510   0.99688   0.68685   0.00000  Uiso   1.00
H304   H     0.73703   0.13622   0.99376   0.00000  Uiso   1.00
H305   H     0.93926   0.36483   0.62521   0.00000  Uiso   1.00
H306   H     0.75739   0.84874   0.62757   0.00000  Uiso   1.00
H307   H     0.09690   0.04820   0.79083   0.00000  Uiso   1.00
H308   H     0.07016   0.05548   0.90821   0.00000  Uiso   1.00
H309   H     0.16607   0.16391   0.73343   0.00000  Uiso   1.00
H310   H     0.07982   0.91917   0.73455   0.00000  Uiso   1.00
H311   H     0.00058   0.07315   0.03248   0.00000  Uiso   1.00
H312   H     0.20281   0.30176   0.66392   0.00000  Uiso   1.00
H313   H     0.02094   0.78567   0.66628   0.00000  Uiso   1.00
O314   O     0.84567   0.11083   0.08952   0.00000  Uiso   1.00
O315   O     0.11099   0.41075   0.60598   0.00000  Uiso   1.00
O316   O     0.87237   0.73366   0.60908   0.00000  Uiso   1.00
N317   N     0.80272   0.12036   0.98677   0.00000  Uiso   1.00
N318   N     0.99179   0.33411   0.64220   0.00000  Uiso   1.00
N319   N     0.82176   0.85162   0.64439   0.00000  Uiso   1.00
N320   N     0.94454   0.08643   0.00760   0.00000  Uiso   1.00
N321   N     0.13361   0.30017   0.66303   0.00000  Uiso   1.00
N322   N     0.96358   0.81768   0.66522   0.00000  Uiso   1.00
C323   C     0.64041   0.89501   0.25597   0.00000  Uiso   1.00
C324   C     0.62143   0.89908   0.32467   0.00000  Uiso   1.00
C325   C     0.68446   0.88359   0.37083   0.00000  Uiso   1.00
C326   C     0.65367   0.89054   0.43084   0.00000  Uiso   1.00
C327   C     0.63797   0.89352   0.53548   0.00000  Uiso   1.00
C328   C     0.56932   0.84016   0.22971   0.00000  Uiso   1.00
C329   C     0.58854   0.77513   0.19602   0.00000  Uiso   1.00
C330   C     0.51388   0.73250   0.17609   0.00000  Uiso   1.00
C331   C     0.41727   0.64404   0.13327   0.00000  Uiso   1.00
C332   C     0.61618   0.97314   0.23033   0.00000  Uiso   1.00
C333   C     0.67480   0.01991   0.19714   0.00000  Uiso   1.00
C334   C     0.63959   0.08923   0.17771   0.00000  Uiso   1.00
C335   C     0.61575   0.20724   0.13584   0.00000  Uiso   1.00
C336   C     0.47363   0.93492   0.28047   0.00000  Uiso   1.00
C337   C     0.53084   0.92076   0.33797   0.00000  Uiso   1.00
C338   C     0.49994   0.92774   0.39793   0.00000  Uiso   1.00
C339   C     0.56292   0.91226   0.44417   0.00000  Uiso   1.00
C340   C     0.47873   0.86183   0.24302   0.00000  Uiso   1.00
C341   C     0.40402   0.81929   0.22312   0.00000  Uiso   1.00
C342   C     0.42313   0.75421   0.18942   0.00000  Uiso   1.00
C343   C     0.52560   0.99482   0.24363   0.00000  Uiso   1.00
C344   C     0.49029   0.06407   0.22424   0.00000  Uiso   1.00
C345   C     0.54884   0.11095   0.19103   0.00000  Uiso   1.00
H346   H     0.71093   0.87813   0.24561   0.00000  Uiso   1.00
H347   H     0.75456   0.86680   0.36051   0.00000  Uiso   1.00
H348   H     0.65865   0.75838   0.18573   0.00000  Uiso   1.00
H349   H     0.74490   0.00312   0.18685   0.00000  Uiso   1.00
H350   H     0.76297   0.86378   0.49376   0.00000  Uiso   1.00
H351   H     0.56074   0.63517   0.12521   0.00000  Uiso   1.00
H352   H     0.74261   0.15126   0.12757   0.00000  Uiso   1.00
H353   H     0.40310   0.95180   0.29083   0.00000  Uiso   1.00
H354   H     0.42984   0.94452   0.40821   0.00000  Uiso   1.00
H355   H     0.33393   0.83609   0.23343   0.00000  Uiso   1.00
H356   H     0.42018   0.08083   0.23455   0.00000  Uiso   1.00
H357   H     0.49942   0.92685   0.53248   0.00000  Uiso   1.00
H358   H     0.29719   0.69824   0.16392   0.00000  Uiso   1.00
H359   H     0.47906   0.21433   0.16628   0.00000  Uiso   1.00
O360   O     0.65433   0.88917   0.58952   0.00000  Uiso   1.00
O361   O     0.38901   0.58925   0.10598   0.00000  Uiso   1.00
O362   O     0.62763   0.26634   0.10908   0.00000  Uiso   1.00
N363   N     0.69728   0.87964   0.48677   0.00000  Uiso   1.00
N364   N     0.50821   0.66589   0.14220   0.00000  Uiso   1.00
N365   N     0.67824   0.14838   0.14439   0.00000  Uiso   1.00
N366   N     0.55546   0.91357   0.50760   0.00000  Uiso   1.00
N367   N     0.36639   0.69983   0.16303   0.00000  Uiso   1.00
N368   N     0.53642   0.18232   0.16522   0.00000  Uiso   1.00
