data_job_06826
_audit_creation_date              2018-12-19
_audit_creation_method            'Materials Studio'
_symmetry_space_group_name_H-M    'P1'
_symmetry_Int_Tables_number       1
_symmetry_cell_setting            triclinic
loop_
_symmetry_equiv_pos_as_xyz
  x,y,z
_cell_length_a                    24.7812
_cell_length_b                    15.4400
_cell_length_c                    25.0637
_cell_angle_alpha                 93.6121
_cell_angle_beta                  73.0904
_cell_angle_gamma                 78.5132
loop_
_atom_site_label
_atom_site_type_symbol
_atom_site_fract_x
_atom_site_fract_y
_atom_site_fract_z
_atom_site_U_iso_or_equiv
_atom_site_adp_type
_atom_site_occupancy
C1     C     0.61884   0.77761   0.12784   0.00000  Uiso   1.00
C2     C     0.67196   0.72915   0.14185   0.00000  Uiso   1.00
C3     C     0.72916   0.72013   0.10944   0.00000  Uiso   1.00
C4     C     0.77153   0.67337   0.12950   0.00000  Uiso   1.00
C5     C     0.85620   0.60362   0.14353   0.00000  Uiso   1.00
C6     C     0.58177   0.70985   0.12745   0.00000  Uiso   1.00
C7     C     0.56313   0.68462   0.08293   0.00000  Uiso   1.00
C8     C     0.52957   0.62162   0.09088   0.00000  Uiso   1.00
C9     C     0.47418   0.52196   0.08256   0.00000  Uiso   1.00
C10    C     0.58464   0.84790   0.17815   0.00000  Uiso   1.00
C11    C     0.56841   0.93874   0.17627   0.00000  Uiso   1.00
C12    C     0.53726   0.99197   0.22690   0.00000  Uiso   1.00
C13    C     0.48634   0.10665   0.29730   0.00000  Uiso   1.00
C14    C     0.59236   0.71059   0.22110   0.00000  Uiso   1.00
C15    C     0.65757   0.69275   0.19250   0.00000  Uiso   1.00
C16    C     0.69987   0.64599   0.21262   0.00000  Uiso   1.00
C17    C     0.75712   0.63691   0.18025   0.00000  Uiso   1.00
C18    C     0.56739   0.67345   0.17810   0.00000  Uiso   1.00
C19    C     0.53384   0.61048   0.18612   0.00000  Uiso   1.00
C20    C     0.51516   0.58515   0.14163   0.00000  Uiso   1.00
C21    C     0.57026   0.81150   0.22880   0.00000  Uiso   1.00
C22    C     0.53913   0.86460   0.27945   0.00000  Uiso   1.00
C23    C     0.52286   0.95550   0.27765   0.00000  Uiso   1.00
H24    H     0.63003   0.80594   0.08841   0.00000  Uiso   1.00
H25    H     0.74027   0.74830   0.07024   0.00000  Uiso   1.00
H26    H     0.57426   0.71280   0.04374   0.00000  Uiso   1.00
H27    H     0.57955   0.96688   0.13706   0.00000  Uiso   1.00
H28    H     0.85615   0.66832   0.07243   0.00000  Uiso   1.00
H29    H     0.50610   0.59349   0.01656   0.00000  Uiso   1.00
H30    H     0.51724   0.12927   0.21334   0.00000  Uiso   1.00
H31    H     0.58116   0.68225   0.26054   0.00000  Uiso   1.00
H32    H     0.68873   0.61783   0.25182   0.00000  Uiso   1.00
H33    H     0.52272   0.58233   0.22532   0.00000  Uiso   1.00
H34    H     0.52801   0.83641   0.31864   0.00000  Uiso   1.00
H35    H     0.81432   0.56242   0.21980   0.00000  Uiso   1.00
H36    H     0.46426   0.48759   0.16394   0.00000  Uiso   1.00
H37    H     0.47541   0.02337   0.36072   0.00000  Uiso   1.00
O38    O     0.90687   0.57519   0.13726   0.00000  Uiso   1.00
O39    O     0.44761   0.47703   0.06397   0.00000  Uiso   1.00
O40    O     0.46223   0.17996   0.32214   0.00000  Uiso   1.00
N41    N     0.83154   0.65225   0.10831   0.00000  Uiso   1.00
N42    N     0.50427   0.58228   0.05608   0.00000  Uiso   1.00
N43    N     0.51468   0.08319   0.24005   0.00000  Uiso   1.00
N44    N     0.80903   0.59527   0.18762   0.00000  Uiso   1.00
N45    N     0.48176   0.52530   0.13538   0.00000  Uiso   1.00
N46    N     0.49217   0.02620   0.31935   0.00000  Uiso   1.00
C47    C     0.09979   0.76099   0.65644   0.00000  Uiso   1.00
C48    C     0.14774   0.80605   0.62696   0.00000  Uiso   1.00
C49    C     0.13994   0.89334   0.61494   0.00000  Uiso   1.00
C50    C     0.18933   0.92201   0.58772   0.00000  Uiso   1.00
C51    C     0.25539   0.00059   0.54414   0.00000  Uiso   1.00
C52    C     0.10608   0.67816   0.61661   0.00000  Uiso   1.00
C53    C     0.06324   0.65793   0.59591   0.00000  Uiso   1.00
C54    C     0.07756   0.57893   0.55998   0.00000  Uiso   1.00
C55    C     0.07892   0.45893   0.50038   0.00000  Uiso   1.00
C56    C     0.11518   0.72726   0.70725   0.00000  Uiso   1.00
C57    C     0.07998   0.74828   0.76275   0.00000  Uiso   1.00
C58    C     0.10195   0.71061   0.80314   0.00000  Uiso   1.00
C59    C     0.11743   0.66684   0.88426   0.00000  Uiso   1.00
C60    C     0.20139   0.65667   0.62945   0.00000  Uiso   1.00
C61    C     0.20293   0.74938   0.61230   0.00000  Uiso   1.00
C62    C     0.25234   0.77793   0.58509   0.00000  Uiso   1.00
C63    C     0.24461   0.86525   0.57304   0.00000  Uiso   1.00
C64    C     0.16126   0.62150   0.60195   0.00000  Uiso   1.00
C65    C     0.17565   0.54251   0.56605   0.00000  Uiso   1.00
C66    C     0.13284   0.52217   0.54529   0.00000  Uiso   1.00
C67    C     0.17036   0.67060   0.69259   0.00000  Uiso   1.00
C68    C     0.19239   0.63287   0.73289   0.00000  Uiso   1.00
C69    C     0.15723   0.65384   0.78845   0.00000  Uiso   1.00
H70    H     0.05683   0.80509   0.66785   0.00000  Uiso   1.00
H71    H     0.09722   0.93717   0.62629   0.00000  Uiso   1.00
H72    H     0.02054   0.70178   0.60726   0.00000  Uiso   1.00
H73    H     0.03728   0.79213   0.77408   0.00000  Uiso   1.00
H74    H     0.16634   0.05860   0.57373   0.00000  Uiso   1.00
H75    H     0.00464   0.56226   0.53362   0.00000  Uiso   1.00
H76    H     0.03993   0.75278   0.88540   0.00000  Uiso   1.00
H77    H     0.24436   0.61255   0.61804   0.00000  Uiso   1.00
H78    H     0.29504   0.73407   0.57375   0.00000  Uiso   1.00
H79    H     0.21835   0.49868   0.55472   0.00000  Uiso   1.00
H80    H     0.23509   0.58903   0.72154   0.00000  Uiso   1.00
H81    H     0.32690   0.89375   0.53108   0.00000  Uiso   1.00
H82    H     0.16519   0.39742   0.49098   0.00000  Uiso   1.00
H83    H     0.20049   0.58793   0.84275   0.00000  Uiso   1.00
O84    O     0.27658   0.05958   0.52415   0.00000  Uiso   1.00
O85    O     0.06442   0.40840   0.47155   0.00000  Uiso   1.00
O86    O     0.11073   0.65835   0.93306   0.00000  Uiso   1.00
N87    N     0.19717   0.00313   0.56978   0.00000  Uiso   1.00
N88    N     0.04599   0.53910   0.53228   0.00000  Uiso   1.00
N89    N     0.07899   0.71719   0.86116   0.00000  Uiso   1.00
N90    N     0.28357   0.91443   0.54683   0.00000  Uiso   1.00
N91    N     0.13239   0.45039   0.50933   0.00000  Uiso   1.00
N92    N     0.16538   0.62849   0.83821   0.00000  Uiso   1.00
C93    C     0.69575   0.04857   0.62431   0.00000  Uiso   1.00
C94    C     0.67686   0.08115   0.68708   0.00000  Uiso   1.00
C95    C     0.67751   0.02759   0.72942   0.00000  Uiso   1.00
C96    C     0.65849   0.07020   0.78422   0.00000  Uiso   1.00
C97    C     0.63202   0.10667   0.87987   0.00000  Uiso   1.00
C98    C     0.64400   0.08467   0.60442   0.00000  Uiso   1.00
C99    C     0.61704   0.03405   0.57726   0.00000  Uiso   1.00
C100   C     0.57038   0.07962   0.56247   0.00000  Uiso   1.00
C101   C     0.49293   0.12155   0.52975   0.00000  Uiso   1.00
C102   C     0.74244   0.09702   0.59652   0.00000  Uiso   1.00
C103   C     0.79824   0.05680   0.56270   0.00000  Uiso   1.00
C104   C     0.83445   0.11278   0.54125   0.00000  Uiso   1.00
C105   C     0.90983   0.17389   0.49627   0.00000  Uiso   1.00
C106   C     0.66082   0.21950   0.64633   0.00000  Uiso   1.00
C107   C     0.65788   0.17400   0.69904   0.00000  Uiso   1.00
C108   C     0.63886   0.21670   0.75379   0.00000  Uiso   1.00
C109   C     0.63949   0.16320   0.79621   0.00000  Uiso   1.00
C110   C     0.62503   0.17750   0.61638   0.00000  Uiso   1.00
C111   C     0.57840   0.22316   0.60163   0.00000  Uiso   1.00
C112   C     0.55137   0.17263   0.57445   0.00000  Uiso   1.00
C113   C     0.72347   0.18987   0.60848   0.00000  Uiso   1.00
C114   C     0.75960   0.24591   0.58708   0.00000  Uiso   1.00
C115   C     0.81544   0.20578   0.55324   0.00000  Uiso   1.00
H116   H     0.71051   0.97629   0.61499   0.00000  Uiso   1.00
H117   H     0.69219   0.95574   0.72014   0.00000  Uiso   1.00
H118   H     0.63174   0.96221   0.56800   0.00000  Uiso   1.00
H119   H     0.81290   0.98495   0.55345   0.00000  Uiso   1.00
H120   H     0.66348   0.97390   0.84200   0.00000  Uiso   1.00
H121   H     0.53603   0.98753   0.52118   0.00000  Uiso   1.00
H122   H     0.91806   0.03550   0.49050   0.00000  Uiso   1.00
H123   H     0.64605   0.29178   0.65565   0.00000  Uiso   1.00
H124   H     0.62419   0.28855   0.76304   0.00000  Uiso   1.00
H125   H     0.56373   0.29501   0.61089   0.00000  Uiso   1.00
H126   H     0.74490   0.31776   0.59634   0.00000  Uiso   1.00
H127   H     0.60829   0.24401   0.87682   0.00000  Uiso   1.00
H128   H     0.48084   0.25765   0.55599   0.00000  Uiso   1.00
H129   H     0.86287   0.30562   0.52532   0.00000  Uiso   1.00
O130   O     0.62265   0.10113   0.92932   0.00000  Uiso   1.00
O131   O     0.45545   0.11902   0.50840   0.00000  Uiso   1.00
O132   O     0.95666   0.18195   0.46816   0.00000  Uiso   1.00
N133   N     0.65350   0.03792   0.83546   0.00000  Uiso   1.00
N134   N     0.53434   0.05066   0.53552   0.00000  Uiso   1.00
N135   N     0.89150   0.09551   0.50682   0.00000  Uiso   1.00
N136   N     0.62380   0.18326   0.85419   0.00000  Uiso   1.00
N137   N     0.50464   0.19601   0.55425   0.00000  Uiso   1.00
N138   N     0.86180   0.24085   0.52556   0.00000  Uiso   1.00
C139   C     0.19567   0.54869   0.12439   0.00000  Uiso   1.00
C140   C     0.24237   0.59714   0.09661   0.00000  Uiso   1.00
C141   C     0.29818   0.55691   0.06283   0.00000  Uiso   1.00
C142   C     0.33439   0.61287   0.04139   0.00000  Uiso   1.00
C143   C     0.40979   0.67398   0.99642   0.00000  Uiso   1.00
C144   C     0.14394   0.58476   0.10447   0.00000  Uiso   1.00
C145   C     0.11700   0.53413   0.07731   0.00000  Uiso   1.00
C146   C     0.07035   0.57968   0.06249   0.00000  Uiso   1.00
C147   C     0.99291   0.62157   0.02975   0.00000  Uiso   1.00
C148   C     0.17674   0.58130   0.18716   0.00000  Uiso   1.00
C149   C     0.17736   0.52776   0.22952   0.00000  Uiso   1.00
C150   C     0.15832   0.57040   0.28432   0.00000  Uiso   1.00
C151   C     0.13181   0.60691   0.37997   0.00000  Uiso   1.00
C152   C     0.16073   0.71962   0.14639   0.00000  Uiso   1.00
C153   C     0.22339   0.68998   0.10856   0.00000  Uiso   1.00
C154   C     0.25953   0.74602   0.08717   0.00000  Uiso   1.00
C155   C     0.31538   0.70588   0.05336   0.00000  Uiso   1.00
C156   C     0.12497   0.67760   0.11642   0.00000  Uiso   1.00
C157   C     0.07834   0.72324   0.10164   0.00000  Uiso   1.00
C158   C     0.05134   0.67269   0.07446   0.00000  Uiso   1.00
C159   C     0.15777   0.67415   0.19911   0.00000  Uiso   1.00
C160   C     0.13872   0.71687   0.25385   0.00000  Uiso   1.00
C161   C     0.13931   0.66340   0.29629   0.00000  Uiso   1.00
H162   H     0.21044   0.47641   0.11509   0.00000  Uiso   1.00
H163   H     0.31285   0.48506   0.05359   0.00000  Uiso   1.00
H164   H     0.13169   0.46228   0.06807   0.00000  Uiso   1.00
H165   H     0.19205   0.45591   0.22026   0.00000  Uiso   1.00
H166   H     0.41801   0.53559   0.99067   0.00000  Uiso   1.00
H167   H     0.03601   0.48756   0.02121   0.00000  Uiso   1.00
H168   H     0.16330   0.47413   0.34213   0.00000  Uiso   1.00
H169   H     0.14596   0.79190   0.15569   0.00000  Uiso   1.00
H170   H     0.24483   0.81787   0.09642   0.00000  Uiso   1.00
H171   H     0.06367   0.79509   0.11089   0.00000  Uiso   1.00
H172   H     0.12403   0.78872   0.26308   0.00000  Uiso   1.00
H173   H     0.36281   0.80571   0.02542   0.00000  Uiso   1.00
H174   H     0.98081   0.75768   0.05597   0.00000  Uiso   1.00
H175   H     0.10809   0.74425   0.37688   0.00000  Uiso   1.00
O176   O     0.45661   0.68204   0.96831   0.00000  Uiso   1.00
O177   O     0.95544   0.61902   0.00839   0.00000  Uiso   1.00
O178   O     0.12244   0.60140   0.42942   0.00000  Uiso   1.00
N179   N     0.39145   0.59560   0.00699   0.00000  Uiso   1.00
N180   N     0.03432   0.55070   0.03554   0.00000  Uiso   1.00
N181   N     0.15330   0.53814   0.33557   0.00000  Uiso   1.00
N182   N     0.36175   0.74095   0.02569   0.00000  Uiso   1.00
N183   N     0.00461   0.69605   0.05424   0.00000  Uiso   1.00
N184   N     0.12360   0.68349   0.35427   0.00000  Uiso   1.00
C185   C     0.59979   0.26100   0.15638   0.00000  Uiso   1.00
C186   C     0.61518   0.22730   0.20720   0.00000  Uiso   1.00
C187   C     0.57999   0.24837   0.26271   0.00000  Uiso   1.00
C188   C     0.60195   0.21072   0.30309   0.00000  Uiso   1.00
C189   C     0.61744   0.16697   0.38423   0.00000  Uiso   1.00
C190   C     0.60608   0.17816   0.11657   0.00000  Uiso   1.00
C191   C     0.56324   0.15792   0.09587   0.00000  Uiso   1.00
C192   C     0.57755   0.07891   0.05995   0.00000  Uiso   1.00
C193   C     0.57892   0.95891   0.00035   0.00000  Uiso   1.00
C194   C     0.64774   0.30605   0.12689   0.00000  Uiso   1.00
C195   C     0.63994   0.39333   0.11485   0.00000  Uiso   1.00
C196   C     0.68933   0.42199   0.08761   0.00000  Uiso   1.00
C197   C     0.75539   0.50056   0.04403   0.00000  Uiso   1.00
C198   C     0.70139   0.15669   0.12941   0.00000  Uiso   1.00
C199   C     0.67036   0.17064   0.19255   0.00000  Uiso   1.00
C200   C     0.69239   0.13295   0.23286   0.00000  Uiso   1.00
C201   C     0.65724   0.15396   0.28842   0.00000  Uiso   1.00
C202   C     0.66126   0.12150   0.10192   0.00000  Uiso   1.00
C203   C     0.67564   0.04251   0.06602   0.00000  Uiso   1.00
C204   C     0.63283   0.02215   0.04527   0.00000  Uiso   1.00
C205   C     0.70293   0.24939   0.11224   0.00000  Uiso   1.00
C206   C     0.75234   0.27792   0.08501   0.00000  Uiso   1.00
C207   C     0.74462   0.36523   0.07293   0.00000  Uiso   1.00
H208   H     0.55683   0.30511   0.16779   0.00000  Uiso   1.00
H209   H     0.53728   0.29221   0.27403   0.00000  Uiso   1.00
H210   H     0.52054   0.20179   0.10721   0.00000  Uiso   1.00
H211   H     0.59723   0.43716   0.12619   0.00000  Uiso   1.00
H212   H     0.53993   0.25290   0.38535   0.00000  Uiso   1.00
H213   H     0.50464   0.06224   0.03359   0.00000  Uiso   1.00
H214   H     0.66635   0.55858   0.07362   0.00000  Uiso   1.00
H215   H     0.74435   0.11257   0.11800   0.00000  Uiso   1.00
H216   H     0.73510   0.08911   0.22151   0.00000  Uiso   1.00
H217   H     0.71835   0.99868   0.05469   0.00000  Uiso   1.00
H218   H     0.79504   0.23405   0.07367   0.00000  Uiso   1.00
H219   H     0.70049   0.08804   0.34272   0.00000  Uiso   1.00
H220   H     0.66519   0.89739   0.99096   0.00000  Uiso   1.00
H221   H     0.82691   0.39373   0.03099   0.00000  Uiso   1.00
O222   O     0.61073   0.15848   0.43303   0.00000  Uiso   1.00
O223   O     0.56443   0.90837   0.97152   0.00000  Uiso   1.00
O224   O     0.77659   0.55954   0.02404   0.00000  Uiso   1.00
N225   N     0.57900   0.21733   0.36111   0.00000  Uiso   1.00
N226   N     0.54599   0.03908   0.03225   0.00000  Uiso   1.00
N227   N     0.69718   0.50310   0.06966   0.00000  Uiso   1.00
N228   N     0.66539   0.12863   0.33818   0.00000  Uiso   1.00
N229   N     0.63239   0.95037   0.00931   0.00000  Uiso   1.00
N230   N     0.78357   0.41440   0.04672   0.00000  Uiso   1.00
C231   C     0.11871   0.27776   0.62785   0.00000  Uiso   1.00
C232   C     0.08451   0.34805   0.67815   0.00000  Uiso   1.00
C233   C     0.06829   0.43889   0.67627   0.00000  Uiso   1.00
C234   C     0.03714   0.49212   0.72690   0.00000  Uiso   1.00
C235   C     0.98621   0.60680   0.79730   0.00000  Uiso   1.00
C236   C     0.08164   0.20999   0.62746   0.00000  Uiso   1.00
C237   C     0.06301   0.18474   0.58295   0.00000  Uiso   1.00
C238   C     0.02946   0.12174   0.59090   0.00000  Uiso   1.00
C239   C     0.97410   0.02202   0.58258   0.00000  Uiso   1.00
C240   C     0.17183   0.22931   0.64185   0.00000  Uiso   1.00
C241   C     0.22903   0.22028   0.60943   0.00000  Uiso   1.00
C242   C     0.27141   0.17353   0.62950   0.00000  Uiso   1.00
C243   C     0.35608   0.10381   0.64352   0.00000  Uiso   1.00
C244   C     0.09225   0.21075   0.72111   0.00000  Uiso   1.00
C245   C     0.07014   0.31165   0.72881   0.00000  Uiso   1.00
C246   C     0.03901   0.36476   0.77946   0.00000  Uiso   1.00
C247   C     0.02274   0.45566   0.77765   0.00000  Uiso   1.00
C248   C     0.06727   0.17359   0.67811   0.00000  Uiso   1.00
C249   C     0.03374   0.11060   0.68613   0.00000  Uiso   1.00
C250   C     0.01506   0.08527   0.64165   0.00000  Uiso   1.00
C251   C     0.15746   0.19291   0.69251   0.00000  Uiso   1.00
C252   C     0.19975   0.14615   0.71262   0.00000  Uiso   1.00
C253   C     0.25701   0.13706   0.68025   0.00000  Uiso   1.00
H254   H     0.12990   0.30609   0.58841   0.00000  Uiso   1.00
H255   H     0.07941   0.46703   0.63706   0.00000  Uiso   1.00
H256   H     0.07415   0.21291   0.54375   0.00000  Uiso   1.00
H257   H     0.24014   0.24846   0.57024   0.00000  Uiso   1.00
H258   H     0.01709   0.62941   0.71333   0.00000  Uiso   1.00
H259   H     0.00600   0.09357   0.51658   0.00000  Uiso   1.00
H260   H     0.35603   0.16852   0.57242   0.00000  Uiso   1.00
H261   H     0.08106   0.18241   0.76055   0.00000  Uiso   1.00
H262   H     0.02789   0.33657   0.81865   0.00000  Uiso   1.00
H263   H     0.02263   0.08245   0.72534   0.00000  Uiso   1.00
H264   H     0.18862   0.11799   0.75182   0.00000  Uiso   1.00
H265   H     0.97527   0.52353   0.86072   0.00000  Uiso   1.00
H266   H     0.96418   0.98767   0.66396   0.00000  Uiso   1.00
H267   H     0.31421   0.06263   0.71981   0.00000  Uiso   1.00
O268   O     0.96207   0.68011   0.82214   0.00000  Uiso   1.00
O269   O     0.94753   0.97709   0.56399   0.00000  Uiso   1.00
O270   O     0.40676   0.07542   0.63727   0.00000  Uiso   1.00
N271   N     0.01455   0.58334   0.74005   0.00000  Uiso   1.00
N272   N     0.00418   0.08236   0.55609   0.00000  Uiso   1.00
N273   N     0.33142   0.15241   0.60830   0.00000  Uiso   1.00
N274   N     0.99205   0.52636   0.81936   0.00000  Uiso   1.00
N275   N     0.98167   0.02539   0.63540   0.00000  Uiso   1.00
N276   N     0.30892   0.09544   0.68761   0.00000  Uiso   1.00
C277   C     0.38116   0.22239   0.87216   0.00000  Uiso   1.00
C278   C     0.32804   0.27085   0.85815   0.00000  Uiso   1.00
C279   C     0.27084   0.27987   0.89056   0.00000  Uiso   1.00
C280   C     0.22847   0.32663   0.87050   0.00000  Uiso   1.00
C281   C     0.14380   0.39638   0.85647   0.00000  Uiso   1.00
C282   C     0.41823   0.29015   0.87255   0.00000  Uiso   1.00
C283   C     0.43687   0.31538   0.91707   0.00000  Uiso   1.00
C284   C     0.47043   0.37838   0.90912   0.00000  Uiso   1.00
C285   C     0.52582   0.47804   0.91744   0.00000  Uiso   1.00
C286   C     0.41536   0.15210   0.82185   0.00000  Uiso   1.00
C287   C     0.43159   0.06126   0.82373   0.00000  Uiso   1.00
C288   C     0.46274   0.00803   0.77310   0.00000  Uiso   1.00
C289   C     0.51366   0.89335   0.70270   0.00000  Uiso   1.00
C290   C     0.40764   0.28941   0.77890   0.00000  Uiso   1.00
C291   C     0.34243   0.30725   0.80750   0.00000  Uiso   1.00
C292   C     0.30013   0.35401   0.78738   0.00000  Uiso   1.00
C293   C     0.24288   0.36309   0.81975   0.00000  Uiso   1.00
C294   C     0.43261   0.32655   0.82190   0.00000  Uiso   1.00
C295   C     0.46616   0.38952   0.81388   0.00000  Uiso   1.00
C296   C     0.48484   0.41485   0.85837   0.00000  Uiso   1.00
C297   C     0.42974   0.18850   0.77120   0.00000  Uiso   1.00
C298   C     0.46087   0.13540   0.72055   0.00000  Uiso   1.00
C299   C     0.47714   0.04450   0.72235   0.00000  Uiso   1.00
H300   H     0.36997   0.19406   0.91159   0.00000  Uiso   1.00
H301   H     0.25973   0.25170   0.92976   0.00000  Uiso   1.00
H302   H     0.42574   0.28720   0.95626   0.00000  Uiso   1.00
H303   H     0.42045   0.03312   0.86294   0.00000  Uiso   1.00
H304   H     0.14385   0.33168   0.92757   0.00000  Uiso   1.00
H305   H     0.49390   0.40651   0.98344   0.00000  Uiso   1.00
H306   H     0.48276   0.87073   0.78666   0.00000  Uiso   1.00
H307   H     0.41884   0.31775   0.73946   0.00000  Uiso   1.00
H308   H     0.31127   0.38217   0.74818   0.00000  Uiso   1.00
H309   H     0.47728   0.41767   0.77468   0.00000  Uiso   1.00
H310   H     0.47199   0.16359   0.68136   0.00000  Uiso   1.00
H311   H     0.18568   0.43758   0.78020   0.00000  Uiso   1.00
H312   H     0.53574   0.51241   0.83606   0.00000  Uiso   1.00
H313   H     0.52459   0.97663   0.63928   0.00000  Uiso   1.00
O314   O     0.09313   0.42481   0.86274   0.00000  Uiso   1.00
O315   O     0.55239   0.52297   0.93603   0.00000  Uiso   1.00
O316   O     0.53777   0.82004   0.67786   0.00000  Uiso   1.00
N317   N     0.16846   0.34775   0.89169   0.00000  Uiso   1.00
N318   N     0.49573   0.41772   0.94392   0.00000  Uiso   1.00
N319   N     0.48532   0.91681   0.75995   0.00000  Uiso   1.00
N320   N     0.19097   0.40473   0.81238   0.00000  Uiso   1.00
N321   N     0.51824   0.47470   0.86462   0.00000  Uiso   1.00
N322   N     0.50783   0.97380   0.68065   0.00000  Uiso   1.00
C323   C     0.90021   0.23901   0.34356   0.00000  Uiso   1.00
C324   C     0.85226   0.19395   0.37304   0.00000  Uiso   1.00
C325   C     0.86006   0.10666   0.38506   0.00000  Uiso   1.00
C326   C     0.81067   0.07799   0.41228   0.00000  Uiso   1.00
C327   C     0.74461   0.99941   0.45586   0.00000  Uiso   1.00
C328   C     0.89392   0.32184   0.38339   0.00000  Uiso   1.00
C329   C     0.93676   0.34207   0.40409   0.00000  Uiso   1.00
C330   C     0.92244   0.42107   0.44002   0.00000  Uiso   1.00
C331   C     0.92108   0.54107   0.49962   0.00000  Uiso   1.00
C332   C     0.88482   0.27274   0.29275   0.00000  Uiso   1.00
C333   C     0.92002   0.25172   0.23725   0.00000  Uiso   1.00
C334   C     0.89805   0.28939   0.19686   0.00000  Uiso   1.00
C335   C     0.88257   0.33316   0.11574   0.00000  Uiso   1.00
C336   C     0.79861   0.34333   0.37055   0.00000  Uiso   1.00
C337   C     0.79707   0.25062   0.38770   0.00000  Uiso   1.00
C338   C     0.74766   0.22207   0.41491   0.00000  Uiso   1.00
C339   C     0.75539   0.13475   0.42696   0.00000  Uiso   1.00
C340   C     0.83874   0.37850   0.39805   0.00000  Uiso   1.00
C341   C     0.82435   0.45749   0.43395   0.00000  Uiso   1.00
C342   C     0.86716   0.47783   0.45471   0.00000  Uiso   1.00
C343   C     0.82964   0.32940   0.30741   0.00000  Uiso   1.00
C344   C     0.80761   0.36713   0.26711   0.00000  Uiso   1.00
C345   C     0.84277   0.34616   0.21155   0.00000  Uiso   1.00
H346   H     0.94317   0.19491   0.33215   0.00000  Uiso   1.00
H347   H     0.90278   0.06283   0.37371   0.00000  Uiso   1.00
H348   H     0.97946   0.29822   0.39274   0.00000  Uiso   1.00
H349   H     0.96272   0.20787   0.22592   0.00000  Uiso   1.00
H350   H     0.83366   0.94140   0.42627   0.00000  Uiso   1.00
H351   H     0.99536   0.43774   0.46638   0.00000  Uiso   1.00
H352   H     0.96007   0.24722   0.11460   0.00000  Uiso   1.00
H353   H     0.75564   0.38745   0.38196   0.00000  Uiso   1.00
H354   H     0.70496   0.26593   0.42625   0.00000  Uiso   1.00
H355   H     0.78165   0.50132   0.44528   0.00000  Uiso   1.00
H356   H     0.76491   0.41097   0.27846   0.00000  Uiso   1.00
H357   H     0.67310   0.10625   0.46892   0.00000  Uiso   1.00
H358   H     0.83481   0.60258   0.50902   0.00000  Uiso   1.00
H359   H     0.79951   0.41207   0.15725   0.00000  Uiso   1.00
O360   O     0.72342   0.94042   0.47585   0.00000  Uiso   1.00
O361   O     0.93558   0.59160   0.52845   0.00000  Uiso   1.00
O362   O     0.88927   0.34165   0.06694   0.00000  Uiso   1.00
N363   N     0.80283   0.99687   0.43022   0.00000  Uiso   1.00
N364   N     0.95401   0.46090   0.46772   0.00000  Uiso   1.00
N365   N     0.92101   0.28281   0.13884   0.00000  Uiso   1.00
N366   N     0.71643   0.08557   0.45317   0.00000  Uiso   1.00
N367   N     0.86761   0.54961   0.49067   0.00000  Uiso   1.00
N368   N     0.83462   0.37151   0.16179   0.00000  Uiso   1.00
C369   C     0.30425   0.95143   0.37569   0.00000  Uiso   1.00
C370   C     0.32314   0.91885   0.31292   0.00000  Uiso   1.00
C371   C     0.32249   0.97241   0.27058   0.00000  Uiso   1.00
C372   C     0.34151   0.92980   0.21578   0.00000  Uiso   1.00
C373   C     0.36798   0.89333   0.12013   0.00000  Uiso   1.00
C374   C     0.35600   0.91533   0.39558   0.00000  Uiso   1.00
C375   C     0.38296   0.96595   0.42274   0.00000  Uiso   1.00
C376   C     0.42962   0.92038   0.43753   0.00000  Uiso   1.00
C377   C     0.50707   0.87845   0.47025   0.00000  Uiso   1.00
C378   C     0.25756   0.90298   0.40348   0.00000  Uiso   1.00
C379   C     0.20176   0.94320   0.43730   0.00000  Uiso   1.00
C380   C     0.16555   0.88722   0.45875   0.00000  Uiso   1.00
C381   C     0.09017   0.82611   0.50373   0.00000  Uiso   1.00
C382   C     0.33918   0.78050   0.35367   0.00000  Uiso   1.00
C383   C     0.34212   0.82600   0.30096   0.00000  Uiso   1.00
C384   C     0.36114   0.78330   0.24621   0.00000  Uiso   1.00
C385   C     0.36051   0.83680   0.20379   0.00000  Uiso   1.00
C386   C     0.37497   0.82250   0.38362   0.00000  Uiso   1.00
C387   C     0.42160   0.77684   0.39837   0.00000  Uiso   1.00
C388   C     0.44863   0.82737   0.42555   0.00000  Uiso   1.00
C389   C     0.27653   0.81013   0.39152   0.00000  Uiso   1.00
C390   C     0.24040   0.75409   0.41292   0.00000  Uiso   1.00
C391   C     0.18456   0.79422   0.44676   0.00000  Uiso   1.00
H392   H     0.28949   0.02371   0.38501   0.00000  Uiso   1.00
H393   H     0.30781   0.04426   0.27986   0.00000  Uiso   1.00
H394   H     0.36826   0.03779   0.43200   0.00000  Uiso   1.00
H395   H     0.18710   0.01505   0.44655   0.00000  Uiso   1.00
H396   H     0.33652   0.02610   0.15800   0.00000  Uiso   1.00
H397   H     0.46397   0.01247   0.47882   0.00000  Uiso   1.00
H398   H     0.08194   0.96450   0.50950   0.00000  Uiso   1.00
H399   H     0.35395   0.70822   0.34435   0.00000  Uiso   1.00
H400   H     0.37581   0.71145   0.23696   0.00000  Uiso   1.00
H401   H     0.43627   0.70499   0.38911   0.00000  Uiso   1.00
H402   H     0.25510   0.68224   0.40366   0.00000  Uiso   1.00
H403   H     0.39171   0.75599   0.12318   0.00000  Uiso   1.00
H404   H     0.51916   0.74235   0.44401   0.00000  Uiso   1.00
H405   H     0.13713   0.69438   0.47468   0.00000  Uiso   1.00
O406   O     0.37735   0.89887   0.07068   0.00000  Uiso   1.00
O407   O     0.54455   0.88098   0.49160   0.00000  Uiso   1.00
O408   O     0.04334   0.81805   0.53184   0.00000  Uiso   1.00
N409   N     0.34650   0.96208   0.16454   0.00000  Uiso   1.00
N410   N     0.46566   0.94934   0.46448   0.00000  Uiso   1.00
N411   N     0.10850   0.90449   0.49318   0.00000  Uiso   1.00
N412   N     0.37620   0.81674   0.14581   0.00000  Uiso   1.00
N413   N     0.49536   0.80399   0.44575   0.00000  Uiso   1.00
N414   N     0.13820   0.75915   0.47444   0.00000  Uiso   1.00
C415   C     0.80433   0.45131   0.87561   0.00000  Uiso   1.00
C416   C     0.75763   0.40286   0.90339   0.00000  Uiso   1.00
C417   C     0.70182   0.44309   0.93717   0.00000  Uiso   1.00
C418   C     0.66561   0.38713   0.95861   0.00000  Uiso   1.00
C419   C     0.59021   0.32602   0.00358   0.00000  Uiso   1.00
C420   C     0.85606   0.41524   0.89553   0.00000  Uiso   1.00
C421   C     0.88300   0.46587   0.92269   0.00000  Uiso   1.00
C422   C     0.92965   0.42032   0.93751   0.00000  Uiso   1.00
C423   C     0.00709   0.37843   0.97025   0.00000  Uiso   1.00
C424   C     0.82326   0.41870   0.81284   0.00000  Uiso   1.00
C425   C     0.82264   0.47224   0.77048   0.00000  Uiso   1.00
C426   C     0.84168   0.42960   0.71568   0.00000  Uiso   1.00
C427   C     0.86819   0.39309   0.62003   0.00000  Uiso   1.00
C428   C     0.83927   0.28038   0.85361   0.00000  Uiso   1.00
C429   C     0.77661   0.31002   0.89144   0.00000  Uiso   1.00
C430   C     0.74047   0.25398   0.91283   0.00000  Uiso   1.00
C431   C     0.68462   0.29412   0.94664   0.00000  Uiso   1.00
C432   C     0.87503   0.32240   0.88358   0.00000  Uiso   1.00
C433   C     0.92166   0.27676   0.89836   0.00000  Uiso   1.00
C434   C     0.94866   0.32731   0.92554   0.00000  Uiso   1.00
C435   C     0.84223   0.32585   0.80089   0.00000  Uiso   1.00
C436   C     0.86128   0.28313   0.74615   0.00000  Uiso   1.00
C437   C     0.86069   0.33660   0.70371   0.00000  Uiso   1.00
H438   H     0.78956   0.52359   0.88491   0.00000  Uiso   1.00
H439   H     0.68715   0.51494   0.94641   0.00000  Uiso   1.00
H440   H     0.86831   0.53772   0.93193   0.00000  Uiso   1.00
H441   H     0.80795   0.54409   0.77974   0.00000  Uiso   1.00
H442   H     0.58199   0.46441   0.00933   0.00000  Uiso   1.00
H443   H     0.96399   0.51244   0.97879   0.00000  Uiso   1.00
H444   H     0.83670   0.52587   0.65787   0.00000  Uiso   1.00
H445   H     0.85404   0.20810   0.84431   0.00000  Uiso   1.00
H446   H     0.75517   0.18213   0.90358   0.00000  Uiso   1.00
H447   H     0.93633   0.20491   0.88911   0.00000  Uiso   1.00
H448   H     0.87597   0.21128   0.73692   0.00000  Uiso   1.00
H449   H     0.63719   0.19429   0.97458   0.00000  Uiso   1.00
H450   H     0.01919   0.24232   0.94403   0.00000  Uiso   1.00
H451   H     0.89191   0.25575   0.62312   0.00000  Uiso   1.00
O452   O     0.54339   0.31796   0.03169   0.00000  Uiso   1.00
O453   O     0.04456   0.38098   0.99161   0.00000  Uiso   1.00
O454   O     0.87756   0.39860   0.57058   0.00000  Uiso   1.00
N455   N     0.60855   0.40440   0.99301   0.00000  Uiso   1.00
N456   N     0.96568   0.44930   0.96446   0.00000  Uiso   1.00
N457   N     0.84670   0.46186   0.66443   0.00000  Uiso   1.00
N458   N     0.63825   0.25905   0.97431   0.00000  Uiso   1.00
N459   N     0.99539   0.30395   0.94576   0.00000  Uiso   1.00
N460   N     0.87640   0.31651   0.64573   0.00000  Uiso   1.00
C461   C     0.40021   0.73900   0.84362   0.00000  Uiso   1.00
C462   C     0.38482   0.77270   0.79280   0.00000  Uiso   1.00
C463   C     0.42001   0.75163   0.73729   0.00000  Uiso   1.00
C464   C     0.39805   0.78928   0.69691   0.00000  Uiso   1.00
C465   C     0.38256   0.83303   0.61577   0.00000  Uiso   1.00
C466   C     0.39392   0.82184   0.88343   0.00000  Uiso   1.00
C467   C     0.43676   0.84208   0.90413   0.00000  Uiso   1.00
C468   C     0.42245   0.92109   0.94005   0.00000  Uiso   1.00
C469   C     0.42108   0.04109   0.99965   0.00000  Uiso   1.00
C470   C     0.35226   0.69395   0.87311   0.00000  Uiso   1.00
C471   C     0.36006   0.60667   0.88515   0.00000  Uiso   1.00
C472   C     0.31067   0.57801   0.91239   0.00000  Uiso   1.00
C473   C     0.24461   0.49944   0.95597   0.00000  Uiso   1.00
C474   C     0.29861   0.84331   0.87059   0.00000  Uiso   1.00
C475   C     0.32964   0.82936   0.80745   0.00000  Uiso   1.00
C476   C     0.30761   0.86705   0.76714   0.00000  Uiso   1.00
C477   C     0.34276   0.84604   0.71158   0.00000  Uiso   1.00
C478   C     0.33874   0.87850   0.89808   0.00000  Uiso   1.00
C479   C     0.32436   0.95749   0.93398   0.00000  Uiso   1.00
C480   C     0.36717   0.97785   0.95473   0.00000  Uiso   1.00
C481   C     0.29707   0.75061   0.88776   0.00000  Uiso   1.00
C482   C     0.24766   0.72208   0.91499   0.00000  Uiso   1.00
C483   C     0.25538   0.63477   0.92707   0.00000  Uiso   1.00
H484   H     0.44317   0.69489   0.83221   0.00000  Uiso   1.00
H485   H     0.46272   0.70779   0.72597   0.00000  Uiso   1.00
H486   H     0.47946   0.79821   0.89279   0.00000  Uiso   1.00
H487   H     0.40277   0.56284   0.87381   0.00000  Uiso   1.00
H488   H     0.46007   0.74710   0.61465   0.00000  Uiso   1.00
H489   H     0.49536   0.93776   0.96641   0.00000  Uiso   1.00
H490   H     0.33365   0.44142   0.92638   0.00000  Uiso   1.00
H491   H     0.25565   0.88743   0.88200   0.00000  Uiso   1.00
H492   H     0.26490   0.91089   0.77849   0.00000  Uiso   1.00
H493   H     0.28165   0.00132   0.94531   0.00000  Uiso   1.00
H494   H     0.20496   0.76595   0.92633   0.00000  Uiso   1.00
H495   H     0.29951   0.91196   0.65728   0.00000  Uiso   1.00
H496   H     0.33481   0.10261   0.00904   0.00000  Uiso   1.00
H497   H     0.17309   0.60627   0.96901   0.00000  Uiso   1.00
O498   O     0.38927   0.84152   0.56697   0.00000  Uiso   1.00
O499   O     0.43557   0.09163   0.02848   0.00000  Uiso   1.00
O500   O     0.22341   0.44046   0.97596   0.00000  Uiso   1.00
N501   N     0.42100   0.78267   0.63889   0.00000  Uiso   1.00
N502   N     0.45401   0.96092   0.96775   0.00000  Uiso   1.00
N503   N     0.30282   0.49690   0.93034   0.00000  Uiso   1.00
N504   N     0.33461   0.87137   0.66182   0.00000  Uiso   1.00
N505   N     0.36761   0.04963   0.99069   0.00000  Uiso   1.00
N506   N     0.21643   0.58560   0.95328   0.00000  Uiso   1.00
C507   C     0.88129   0.72224   0.37215   0.00000  Uiso   1.00
C508   C     0.91549   0.65195   0.32185   0.00000  Uiso   1.00
C509   C     0.93171   0.56111   0.32373   0.00000  Uiso   1.00
C510   C     0.96286   0.50788   0.27310   0.00000  Uiso   1.00
C511   C     0.01379   0.39320   0.20270   0.00000  Uiso   1.00
C512   C     0.91836   0.79001   0.37254   0.00000  Uiso   1.00
C513   C     0.93699   0.81526   0.41705   0.00000  Uiso   1.00
C514   C     0.97054   0.87826   0.40910   0.00000  Uiso   1.00
C515   C     0.02590   0.97798   0.41742   0.00000  Uiso   1.00
C516   C     0.82817   0.77069   0.35815   0.00000  Uiso   1.00
C517   C     0.77097   0.77972   0.39057   0.00000  Uiso   1.00
C518   C     0.72859   0.82647   0.37050   0.00000  Uiso   1.00
C519   C     0.64392   0.89619   0.35648   0.00000  Uiso   1.00
C520   C     0.90775   0.78925   0.27889   0.00000  Uiso   1.00
C521   C     0.92986   0.68835   0.27119   0.00000  Uiso   1.00
C522   C     0.96099   0.63524   0.22054   0.00000  Uiso   1.00
C523   C     0.97726   0.54434   0.22235   0.00000  Uiso   1.00
C524   C     0.93273   0.82641   0.32189   0.00000  Uiso   1.00
C525   C     0.96626   0.88940   0.31387   0.00000  Uiso   1.00
C526   C     0.98494   0.91473   0.35835   0.00000  Uiso   1.00
C527   C     0.84254   0.80709   0.30749   0.00000  Uiso   1.00
C528   C     0.80025   0.85385   0.28738   0.00000  Uiso   1.00
C529   C     0.74299   0.86294   0.31975   0.00000  Uiso   1.00
H530   H     0.87010   0.69391   0.41159   0.00000  Uiso   1.00
H531   H     0.92059   0.53297   0.36294   0.00000  Uiso   1.00
H532   H     0.92585   0.78709   0.45625   0.00000  Uiso   1.00
H533   H     0.75986   0.75154   0.42976   0.00000  Uiso   1.00
H534   H     0.98291   0.37059   0.28667   0.00000  Uiso   1.00
H535   H     0.99400   0.90643   0.48342   0.00000  Uiso   1.00
H536   H     0.64397   0.83148   0.42758   0.00000  Uiso   1.00
H537   H     0.91894   0.81759   0.23945   0.00000  Uiso   1.00
H538   H     0.97211   0.66343   0.18135   0.00000  Uiso   1.00
H539   H     0.97737   0.91755   0.27466   0.00000  Uiso   1.00
H540   H     0.81138   0.88201   0.24818   0.00000  Uiso   1.00
H541   H     0.02473   0.47647   0.13928   0.00000  Uiso   1.00
H542   H     0.03582   0.01233   0.33604   0.00000  Uiso   1.00
H543   H     0.68579   0.93737   0.28019   0.00000  Uiso   1.00
O544   O     0.03793   0.31989   0.17786   0.00000  Uiso   1.00
O545   O     0.05247   0.02291   0.43601   0.00000  Uiso   1.00
O546   O     0.59324   0.92458   0.36273   0.00000  Uiso   1.00
N547   N     0.98545   0.41666   0.25995   0.00000  Uiso   1.00
N548   N     0.99582   0.91764   0.44391   0.00000  Uiso   1.00
N549   N     0.66858   0.84759   0.39170   0.00000  Uiso   1.00
N550   N     0.00795   0.47364   0.18064   0.00000  Uiso   1.00
N551   N     0.01833   0.97461   0.36460   0.00000  Uiso   1.00
N552   N     0.69108   0.90456   0.31239   0.00000  Uiso   1.00
