data_job_04128
_audit_creation_date              2018-12-19
_audit_creation_method            'Materials Studio'
_symmetry_space_group_name_H-M    'P1'
_symmetry_Int_Tables_number       1
_symmetry_cell_setting            triclinic
loop_
_symmetry_equiv_pos_as_xyz
  x,y,z
_cell_length_a                    14.3161
_cell_length_b                    34.1371
_cell_length_c                    10.0363
_cell_angle_alpha                 90.0000
_cell_angle_beta                  141.5924
_cell_angle_gamma                 90.0000
loop_
_atom_site_label
_atom_site_type_symbol
_atom_site_fract_x
_atom_site_fract_y
_atom_site_fract_z
_atom_site_U_iso_or_equiv
_atom_site_adp_type
_atom_site_occupancy
C1     C     0.28541   0.83873   0.24108   0.00000  Uiso   1.00
C2     C     0.22273   0.87153   0.08408   0.00000  Uiso   1.00
C3     C     0.07229   0.87720   0.88470   0.00000  Uiso   1.00
C4     C     0.03784   0.90891   0.76514   0.00000  Uiso   1.00
C5     C     0.92348   0.95600   0.50957   0.00000  Uiso   1.00
C6     C     0.40195   0.81756   0.28629   0.00000  Uiso   1.00
C7     C     0.40221   0.77785   0.25695   0.00000  Uiso   1.00
C8     C     0.51865   0.76413   0.30765   0.00000  Uiso   1.00
C9     C     0.68258   0.72743   0.36616   0.00000  Uiso   1.00
C10    C     0.37296   0.85880   0.45032   0.00000  Uiso   1.00
C11    C     0.34887   0.85376   0.55894   0.00000  Uiso   1.00
C12    C     0.44093   0.87475   0.74777   0.00000  Uiso   1.00
C13    C     0.55985   0.90208   0.06096   0.00000  Uiso   1.00
C14    C     0.49176   0.88498   0.38332   0.00000  Uiso   1.00
C15    C     0.33481   0.89665   0.16135   0.00000  Uiso   1.00
C16    C     0.30059   0.92836   0.04207   0.00000  Uiso   1.00
C17    C     0.15012   0.93407   0.84254   0.00000  Uiso   1.00
C18    C     0.51403   0.84268   0.36355   0.00000  Uiso   1.00
C19    C     0.63050   0.82901   0.41432   0.00000  Uiso   1.00
C20    C     0.63093   0.78929   0.38505   0.00000  Uiso   1.00
C21    C     0.48504   0.88392   0.52759   0.00000  Uiso   1.00
C22    C     0.57716   0.90492   0.71630   0.00000  Uiso   1.00
C23    C     0.55321   0.89991   0.82517   0.00000  Uiso   1.00
H24    H     0.19816   0.81918   0.18093   0.00000  Uiso   1.00
H25    H     0.98559   0.85775   0.82495   0.00000  Uiso   1.00
H26    H     0.31546   0.75842   0.19718   0.00000  Uiso   1.00
H27    H     0.26213   0.83432   0.49910   0.00000  Uiso   1.00
H28    H     0.79935   0.91158   0.46433   0.00000  Uiso   1.00
H29    H     0.49494   0.70214   0.24925   0.00000  Uiso   1.00
H30    H     0.38247   0.86218   0.88593   0.00000  Uiso   1.00
H31    H     0.57902   0.90454   0.44347   0.00000  Uiso   1.00
H32    H     0.38735   0.94779   0.10189   0.00000  Uiso   1.00
H33    H     0.71722   0.84846   0.47411   0.00000  Uiso   1.00
H34    H     0.66388   0.92436   0.77604   0.00000  Uiso   1.00
H35    H     0.12543   0.98466   0.68909   0.00000  Uiso   1.00
H36    H     0.82102   0.77522   0.47402   0.00000  Uiso   1.00
H37    H     0.70855   0.93526   0.11069   0.00000  Uiso   1.00
O38    O     0.82943   0.97503   0.34724   0.00000  Uiso   1.00
O39    O     0.74203   0.70025   0.37707   0.00000  Uiso   1.00
O40    O     0.59447   0.91022   0.21236   0.00000  Uiso   1.00
N41    N     0.90239   0.92285   0.56412   0.00000  Uiso   1.00
N42    N     0.55271   0.72703   0.29794   0.00000  Uiso   1.00
N43    N     0.44759   0.87665   0.89321   0.00000  Uiso   1.00
N44    N     0.07785   0.96218   0.68507   0.00000  Uiso   1.00
N45    N     0.72818   0.76636   0.41889   0.00000  Uiso   1.00
N46    N     0.62306   0.91597   0.01416   0.00000  Uiso   1.00
C47    C     0.71459   0.33873   0.25892   0.00000  Uiso   1.00
C48    C     0.77727   0.37153   0.41592   0.00000  Uiso   1.00
C49    C     0.92771   0.37720   0.61530   0.00000  Uiso   1.00
C50    C     0.96216   0.40891   0.73486   0.00000  Uiso   1.00
C51    C     0.07652   0.45600   0.99043   0.00000  Uiso   1.00
C52    C     0.59805   0.31756   0.21371   0.00000  Uiso   1.00
C53    C     0.59779   0.27785   0.24305   0.00000  Uiso   1.00
C54    C     0.48135   0.26413   0.19235   0.00000  Uiso   1.00
C55    C     0.31742   0.22743   0.13384   0.00000  Uiso   1.00
C56    C     0.62704   0.35880   0.04968   0.00000  Uiso   1.00
C57    C     0.65113   0.35376   0.94106   0.00000  Uiso   1.00
C58    C     0.55907   0.37475   0.75223   0.00000  Uiso   1.00
C59    C     0.44015   0.40208   0.43904   0.00000  Uiso   1.00
C60    C     0.50824   0.38498   0.11668   0.00000  Uiso   1.00
C61    C     0.66519   0.39665   0.33865   0.00000  Uiso   1.00
C62    C     0.69941   0.42836   0.45793   0.00000  Uiso   1.00
C63    C     0.84988   0.43407   0.65746   0.00000  Uiso   1.00
C64    C     0.48597   0.34268   0.13645   0.00000  Uiso   1.00
C65    C     0.36950   0.32901   0.08568   0.00000  Uiso   1.00
C66    C     0.36907   0.28929   0.11495   0.00000  Uiso   1.00
C67    C     0.51496   0.38392   0.97241   0.00000  Uiso   1.00
C68    C     0.42284   0.40492   0.78370   0.00000  Uiso   1.00
C69    C     0.44679   0.39991   0.67483   0.00000  Uiso   1.00
H70    H     0.80184   0.31918   0.31907   0.00000  Uiso   1.00
H71    H     0.01441   0.35775   0.67505   0.00000  Uiso   1.00
H72    H     0.68454   0.25842   0.30282   0.00000  Uiso   1.00
H73    H     0.73787   0.33432   0.00090   0.00000  Uiso   1.00
H74    H     0.20065   0.41158   0.03567   0.00000  Uiso   1.00
H75    H     0.50506   0.20214   0.25075   0.00000  Uiso   1.00
H76    H     0.61753   0.36218   0.61407   0.00000  Uiso   1.00
H77    H     0.42098   0.40454   0.05653   0.00000  Uiso   1.00
H78    H     0.61265   0.44779   0.39811   0.00000  Uiso   1.00
H79    H     0.28278   0.34846   0.02589   0.00000  Uiso   1.00
H80    H     0.33612   0.42436   0.72396   0.00000  Uiso   1.00
H81    H     0.87457   0.48466   0.81091   0.00000  Uiso   1.00
H82    H     0.17898   0.27522   0.02598   0.00000  Uiso   1.00
H83    H     0.29145   0.43526   0.38931   0.00000  Uiso   1.00
O84    O     0.17057   0.47503   0.15276   0.00000  Uiso   1.00
O85    O     0.25797   0.20025   0.12293   0.00000  Uiso   1.00
O86    O     0.40553   0.41022   0.28764   0.00000  Uiso   1.00
N87    N     0.09761   0.42285   0.93588   0.00000  Uiso   1.00
N88    N     0.44729   0.22703   0.20206   0.00000  Uiso   1.00
N89    N     0.55241   0.37665   0.60679   0.00000  Uiso   1.00
N90    N     0.92215   0.46218   0.81493   0.00000  Uiso   1.00
N91    N     0.27182   0.26636   0.08111   0.00000  Uiso   1.00
N92    N     0.37694   0.41597   0.48584   0.00000  Uiso   1.00
C93    C     0.71459   0.16127   0.75892   0.00000  Uiso   1.00
C94    C     0.77727   0.12847   0.91592   0.00000  Uiso   1.00
C95    C     0.92771   0.12280   0.11530   0.00000  Uiso   1.00
C96    C     0.96216   0.09109   0.23486   0.00000  Uiso   1.00
C97    C     0.07652   0.04400   0.49043   0.00000  Uiso   1.00
C98    C     0.59805   0.18244   0.71371   0.00000  Uiso   1.00
C99    C     0.59779   0.22215   0.74305   0.00000  Uiso   1.00
C100   C     0.48135   0.23587   0.69235   0.00000  Uiso   1.00
C101   C     0.31742   0.27257   0.63384   0.00000  Uiso   1.00
C102   C     0.62704   0.14120   0.54968   0.00000  Uiso   1.00
C103   C     0.65113   0.14624   0.44106   0.00000  Uiso   1.00
C104   C     0.55907   0.12525   0.25223   0.00000  Uiso   1.00
C105   C     0.44015   0.09792   0.93904   0.00000  Uiso   1.00
C106   C     0.50824   0.11502   0.61668   0.00000  Uiso   1.00
C107   C     0.66519   0.10335   0.83865   0.00000  Uiso   1.00
C108   C     0.69941   0.07164   0.95793   0.00000  Uiso   1.00
C109   C     0.84988   0.06593   0.15746   0.00000  Uiso   1.00
C110   C     0.48597   0.15732   0.63645   0.00000  Uiso   1.00
C111   C     0.36950   0.17099   0.58568   0.00000  Uiso   1.00
C112   C     0.36907   0.21071   0.61495   0.00000  Uiso   1.00
C113   C     0.51496   0.11608   0.47241   0.00000  Uiso   1.00
C114   C     0.42284   0.09508   0.28370   0.00000  Uiso   1.00
C115   C     0.44679   0.10009   0.17483   0.00000  Uiso   1.00
H116   H     0.80184   0.18082   0.81907   0.00000  Uiso   1.00
H117   H     0.01441   0.14225   0.17505   0.00000  Uiso   1.00
H118   H     0.68454   0.24158   0.80282   0.00000  Uiso   1.00
H119   H     0.73787   0.16568   0.50090   0.00000  Uiso   1.00
H120   H     0.20065   0.08842   0.53567   0.00000  Uiso   1.00
H121   H     0.50506   0.29786   0.75075   0.00000  Uiso   1.00
H122   H     0.61753   0.13782   0.11407   0.00000  Uiso   1.00
H123   H     0.42098   0.09546   0.55653   0.00000  Uiso   1.00
H124   H     0.61265   0.05221   0.89811   0.00000  Uiso   1.00
H125   H     0.28278   0.15154   0.52589   0.00000  Uiso   1.00
H126   H     0.33612   0.07564   0.22396   0.00000  Uiso   1.00
H127   H     0.87457   0.01534   0.31091   0.00000  Uiso   1.00
H128   H     0.17898   0.22478   0.52598   0.00000  Uiso   1.00
H129   H     0.29145   0.06474   0.88931   0.00000  Uiso   1.00
O130   O     0.17057   0.02497   0.65276   0.00000  Uiso   1.00
O131   O     0.25797   0.29975   0.62293   0.00000  Uiso   1.00
O132   O     0.40553   0.08978   0.78764   0.00000  Uiso   1.00
N133   N     0.09761   0.07715   0.43588   0.00000  Uiso   1.00
N134   N     0.44729   0.27297   0.70206   0.00000  Uiso   1.00
N135   N     0.55241   0.12335   0.10679   0.00000  Uiso   1.00
N136   N     0.92215   0.03782   0.31493   0.00000  Uiso   1.00
N137   N     0.27182   0.23364   0.58111   0.00000  Uiso   1.00
N138   N     0.37694   0.08403   0.98584   0.00000  Uiso   1.00
C139   C     0.28541   0.66127   0.74108   0.00000  Uiso   1.00
C140   C     0.22273   0.62847   0.58408   0.00000  Uiso   1.00
C141   C     0.07229   0.62280   0.38470   0.00000  Uiso   1.00
C142   C     0.03784   0.59109   0.26514   0.00000  Uiso   1.00
C143   C     0.92348   0.54400   0.00957   0.00000  Uiso   1.00
C144   C     0.40195   0.68244   0.78629   0.00000  Uiso   1.00
C145   C     0.40221   0.72215   0.75695   0.00000  Uiso   1.00
C146   C     0.51865   0.73587   0.80765   0.00000  Uiso   1.00
C147   C     0.68258   0.77257   0.86616   0.00000  Uiso   1.00
C148   C     0.37296   0.64120   0.95032   0.00000  Uiso   1.00
C149   C     0.34887   0.64624   0.05894   0.00000  Uiso   1.00
C150   C     0.44093   0.62525   0.24777   0.00000  Uiso   1.00
C151   C     0.55985   0.59792   0.56096   0.00000  Uiso   1.00
C152   C     0.49176   0.61502   0.88332   0.00000  Uiso   1.00
C153   C     0.33481   0.60335   0.66135   0.00000  Uiso   1.00
C154   C     0.30059   0.57164   0.54207   0.00000  Uiso   1.00
C155   C     0.15012   0.56593   0.34254   0.00000  Uiso   1.00
C156   C     0.51403   0.65732   0.86355   0.00000  Uiso   1.00
C157   C     0.63050   0.67099   0.91432   0.00000  Uiso   1.00
C158   C     0.63093   0.71071   0.88505   0.00000  Uiso   1.00
C159   C     0.48504   0.61608   0.02759   0.00000  Uiso   1.00
C160   C     0.57716   0.59508   0.21630   0.00000  Uiso   1.00
C161   C     0.55321   0.60009   0.32517   0.00000  Uiso   1.00
H162   H     0.19816   0.68082   0.68093   0.00000  Uiso   1.00
H163   H     0.98559   0.64225   0.32495   0.00000  Uiso   1.00
H164   H     0.31546   0.74158   0.69718   0.00000  Uiso   1.00
H165   H     0.26213   0.66568   0.99910   0.00000  Uiso   1.00
H166   H     0.79935   0.58842   0.96433   0.00000  Uiso   1.00
H167   H     0.49494   0.79786   0.74925   0.00000  Uiso   1.00
H168   H     0.38247   0.63782   0.38593   0.00000  Uiso   1.00
H169   H     0.57902   0.59546   0.94347   0.00000  Uiso   1.00
H170   H     0.38735   0.55221   0.60189   0.00000  Uiso   1.00
H171   H     0.71722   0.65154   0.97411   0.00000  Uiso   1.00
H172   H     0.66388   0.57564   0.27604   0.00000  Uiso   1.00
H173   H     0.12543   0.51534   0.18909   0.00000  Uiso   1.00
H174   H     0.82102   0.72478   0.97402   0.00000  Uiso   1.00
H175   H     0.70855   0.56474   0.61069   0.00000  Uiso   1.00
O176   O     0.82943   0.52497   0.84724   0.00000  Uiso   1.00
O177   O     0.74203   0.79975   0.87707   0.00000  Uiso   1.00
O178   O     0.59447   0.58978   0.71236   0.00000  Uiso   1.00
N179   N     0.90239   0.57715   0.06412   0.00000  Uiso   1.00
N180   N     0.55271   0.77297   0.79794   0.00000  Uiso   1.00
N181   N     0.44759   0.62335   0.39321   0.00000  Uiso   1.00
N182   N     0.07785   0.53782   0.18507   0.00000  Uiso   1.00
N183   N     0.72818   0.73364   0.91889   0.00000  Uiso   1.00
N184   N     0.62306   0.58403   0.51416   0.00000  Uiso   1.00
