data_job_07015
_audit_creation_date              2018-12-19
_audit_creation_method            'Materials Studio'
_symmetry_space_group_name_H-M    'P1'
_symmetry_Int_Tables_number       1
_symmetry_cell_setting            triclinic
loop_
_symmetry_equiv_pos_as_xyz
  x,y,z
_cell_length_a                    20.8258
_cell_length_b                    22.4596
_cell_length_c                    20.3714
_cell_angle_alpha                 91.5439
_cell_angle_beta                  91.7321
_cell_angle_gamma                 92.5432
loop_
_atom_site_label
_atom_site_type_symbol
_atom_site_fract_x
_atom_site_fract_y
_atom_site_fract_z
_atom_site_U_iso_or_equiv
_atom_site_adp_type
_atom_site_occupancy
C1     C     0.49873   0.08373   0.32738   0.00000  Uiso   1.00
C2     C     0.53896   0.03400   0.35370   0.00000  Uiso   1.00
C3     C     0.51596   0.97705   0.36808   0.00000  Uiso   1.00
C4     C     0.56048   0.93802   0.39170   0.00000  Uiso   1.00
C5     C     0.61303   0.85816   0.43125   0.00000  Uiso   1.00
C6     C     0.51000   0.13635   0.37586   0.00000  Uiso   1.00
C7     C     0.46264   0.16545   0.40888   0.00000  Uiso   1.00
C8     C     0.48278   0.21259   0.45115   0.00000  Uiso   1.00
C9     C     0.49036   0.29166   0.52506   0.00000  Uiso   1.00
C10    C     0.52945   0.10276   0.26380   0.00000  Uiso   1.00
C11    C     0.49844   0.10364   0.20259   0.00000  Uiso   1.00
C12    C     0.53496   0.12251   0.15051   0.00000  Uiso   1.00
C13    C     0.57274   0.14942   0.05043   0.00000  Uiso   1.00
C14    C     0.61871   0.11569   0.34374   0.00000  Uiso   1.00
C15    C     0.60413   0.05136   0.36258   0.00000  Uiso   1.00
C16    C     0.64870   0.01240   0.38618   0.00000  Uiso   1.00
C17    C     0.62577   0.95540   0.40060   0.00000  Uiso   1.00
C18    C     0.57517   0.15371   0.38475   0.00000  Uiso   1.00
C19    C     0.59538   0.20081   0.42698   0.00000  Uiso   1.00
C20    C     0.54807   0.22998   0.46005   0.00000  Uiso   1.00
C21    C     0.59462   0.12012   0.27268   0.00000  Uiso   1.00
C22    C     0.63119   0.13899   0.22069   0.00000  Uiso   1.00
C23    C     0.60024   0.13990   0.15941   0.00000  Uiso   1.00
H24    H     0.44799   0.07022   0.32046   0.00000  Uiso   1.00
H25    H     0.46552   0.96363   0.36121   0.00000  Uiso   1.00
H26    H     0.41221   0.15201   0.40198   0.00000  Uiso   1.00
H27    H     0.44801   0.09020   0.19573   0.00000  Uiso   1.00
H28    H     0.51368   0.85312   0.41032   0.00000  Uiso   1.00
H29    H     0.40128   0.25034   0.49629   0.00000  Uiso   1.00
H30    H     0.47676   0.12001   0.06136   0.00000  Uiso   1.00
H31    H     0.66945   0.12921   0.35066   0.00000  Uiso   1.00
H32    H     0.69913   0.02585   0.39306   0.00000  Uiso   1.00
H33    H     0.64582   0.21423   0.43384   0.00000  Uiso   1.00
H34    H     0.68162   0.15242   0.22758   0.00000  Uiso   1.00
H35    H     0.70329   0.90362   0.43617   0.00000  Uiso   1.00
H36    H     0.59089   0.30085   0.52214   0.00000  Uiso   1.00
H37    H     0.66637   0.17051   0.08721   0.00000  Uiso   1.00
O38    O     0.62401   0.80932   0.45062   0.00000  Uiso   1.00
O39    O     0.47654   0.33047   0.56339   0.00000  Uiso   1.00
O40    O     0.57558   0.15947   0.99277   0.00000  Uiso   1.00
N41    N     0.55424   0.87918   0.41057   0.00000  Uiso   1.00
N42    N     0.44914   0.25056   0.49096   0.00000  Uiso   1.00
N43    N     0.51971   0.12872   0.08433   0.00000  Uiso   1.00
N44    N     0.65626   0.90636   0.42448   0.00000  Uiso   1.00
N45    N     0.55117   0.27773   0.50487   0.00000  Uiso   1.00
N46    N     0.62174   0.15589   0.09825   0.00000  Uiso   1.00
C47    C     0.42434   0.42953   0.11300   0.00000  Uiso   1.00
C48    C     0.45803   0.47504   0.07001   0.00000  Uiso   1.00
C49    C     0.47661   0.46478   0.00600   0.00000  Uiso   1.00
C50    C     0.50680   0.51219   0.97504   0.00000  Uiso   1.00
C51    C     0.55744   0.57438   0.90344   0.00000  Uiso   1.00
C52    C     0.46658   0.42635   0.17516   0.00000  Uiso   1.00
C53    C     0.49235   0.37516   0.19954   0.00000  Uiso   1.00
C54    C     0.52974   0.38159   0.25710   0.00000  Uiso   1.00
C55    C     0.59361   0.36819   0.34877   0.00000  Uiso   1.00
C56    C     0.36252   0.45738   0.13417   0.00000  Uiso   1.00
C57    C     0.30080   0.43227   0.12410   0.00000  Uiso   1.00
C58    C     0.25058   0.46482   0.14716   0.00000  Uiso   1.00
C59    C     0.15289   0.49961   0.17518   0.00000  Uiso   1.00
C60    C     0.44492   0.53196   0.17186   0.00000  Uiso   1.00
C61    C     0.46920   0.53068   0.10199   0.00000  Uiso   1.00
C62    C     0.49938   0.57811   0.07112   0.00000  Uiso   1.00
C63    C     0.51800   0.56793   0.00707   0.00000  Uiso   1.00
C64    C     0.47776   0.48199   0.20713   0.00000  Uiso   1.00
C65    C     0.51512   0.48849   0.26467   0.00000  Uiso   1.00
C66    C     0.54094   0.43733   0.28913   0.00000  Uiso   1.00
C67    C     0.37370   0.51302   0.16614   0.00000  Uiso   1.00
C68    C     0.32357   0.54561   0.18923   0.00000  Uiso   1.00
C69    C     0.26178   0.52056   0.17920   0.00000  Uiso   1.00
H70    H     0.41564   0.38621   0.08811   0.00000  Uiso   1.00
H71    H     0.46795   0.42171   0.98127   0.00000  Uiso   1.00
H72    H     0.48368   0.33211   0.17479   0.00000  Uiso   1.00
H73    H     0.29217   0.38922   0.09936   0.00000  Uiso   1.00
H74    H     0.53090   0.48561   0.87693   0.00000  Uiso   1.00
H75    H     0.56405   0.29667   0.28499   0.00000  Uiso   1.00
H76    H     0.16020   0.41709   0.12593   0.00000  Uiso   1.00
H77    H     0.45362   0.57528   0.19676   0.00000  Uiso   1.00
H78    H     0.50802   0.62117   0.09588   0.00000  Uiso   1.00
H79    H     0.52375   0.53156   0.28940   0.00000  Uiso   1.00
H80    H     0.33224   0.58867   0.21397   0.00000  Uiso   1.00
H81    H     0.56343   0.64749   0.96995   0.00000  Uiso   1.00
H82    H     0.59658   0.45855   0.37801   0.00000  Uiso   1.00
H83    H     0.19272   0.57898   0.21895   0.00000  Uiso   1.00
O84    O     0.58229   0.59331   0.85512   0.00000  Uiso   1.00
O85    O     0.62576   0.34543   0.39049   0.00000  Uiso   1.00
O86    O     0.09592   0.50343   0.18180   0.00000  Uiso   1.00
N87    N     0.53108   0.51741   0.91266   0.00000  Uiso   1.00
N88    N     0.56208   0.34077   0.29417   0.00000  Uiso   1.00
N89    N     0.18452   0.45335   0.14547   0.00000  Uiso   1.00
N90    N     0.54858   0.60452   0.96271   0.00000  Uiso   1.00
N91    N     0.57958   0.42788   0.34422   0.00000  Uiso   1.00
N92    N     0.20202   0.54046   0.19553   0.00000  Uiso   1.00
C93    C     0.22306   0.27906   0.40308   0.00000  Uiso   1.00
C94    C     0.16741   0.29006   0.44817   0.00000  Uiso   1.00
C95    C     0.10358   0.29475   0.42820   0.00000  Uiso   1.00
C96    C     0.05992   0.30487   0.47701   0.00000  Uiso   1.00
C97    C     0.97055   0.32118   0.53692   0.00000  Uiso   1.00
C98    C     0.27232   0.33045   0.41710   0.00000  Uiso   1.00
C99    C     0.29669   0.36909   0.37101   0.00000  Uiso   1.00
C100   C     0.34136   0.41321   0.39366   0.00000  Uiso   1.00
C101   C     0.41488   0.49220   0.40533   0.00000  Uiso   1.00
C102   C     0.25412   0.22329   0.42770   0.00000  Uiso   1.00
C103   C     0.26321   0.17183   0.39052   0.00000  Uiso   1.00
C104   C     0.29257   0.12573   0.42209   0.00000  Uiso   1.00
C105   C     0.33784   0.03834   0.45022   0.00000  Uiso   1.00
C106   C     0.25905   0.28870   0.52526   0.00000  Uiso   1.00
C107   C     0.18696   0.29530   0.51453   0.00000  Uiso   1.00
C108   C     0.14339   0.30541   0.56338   0.00000  Uiso   1.00
C109   C     0.07951   0.31011   0.54349   0.00000  Uiso   1.00
C110   C     0.29187   0.33569   0.48346   0.00000  Uiso   1.00
C111   C     0.33651   0.37976   0.50619   0.00000  Uiso   1.00
C112   C     0.36094   0.41846   0.46014   0.00000  Uiso   1.00
C113   C     0.27367   0.22852   0.49406   0.00000  Uiso   1.00
C114   C     0.30302   0.18249   0.52570   0.00000  Uiso   1.00
C115   C     0.31215   0.13098   0.48858   0.00000  Uiso   1.00
H116   H     0.20785   0.27499   0.35141   0.00000  Uiso   1.00
H117   H     0.08847   0.29070   0.37684   0.00000  Uiso   1.00
H118   H     0.28156   0.36503   0.31965   0.00000  Uiso   1.00
H119   H     0.24808   0.16780   0.33916   0.00000  Uiso   1.00
H120   H     0.96474   0.31045   0.43430   0.00000  Uiso   1.00
H121   H     0.37190   0.46716   0.31371   0.00000  Uiso   1.00
H122   H     0.30130   0.05126   0.35485   0.00000  Uiso   1.00
H123   H     0.27427   0.29278   0.57693   0.00000  Uiso   1.00
H124   H     0.15854   0.30946   0.61473   0.00000  Uiso   1.00
H125   H     0.35163   0.38379   0.55755   0.00000  Uiso   1.00
H126   H     0.31815   0.18656   0.57705   0.00000  Uiso   1.00
H127   H     0.02161   0.32568   0.62738   0.00000  Uiso   1.00
H128   H     0.42877   0.48239   0.50679   0.00000  Uiso   1.00
H129   H     0.35817   0.06649   0.54793   0.00000  Uiso   1.00
O130   O     0.91585   0.32874   0.55164   0.00000  Uiso   1.00
O131   O     0.45003   0.53433   0.39343   0.00000  Uiso   1.00
O132   O     0.35740   0.98868   0.44740   0.00000  Uiso   1.00
N133   N     0.99401   0.31173   0.47455   0.00000  Uiso   1.00
N134   N     0.37467   0.45826   0.36181   0.00000  Uiso   1.00
N135   N     0.30868   0.06943   0.40027   0.00000  Uiso   1.00
N136   N     0.02461   0.31993   0.57845   0.00000  Uiso   1.00
N137   N     0.40527   0.46645   0.46571   0.00000  Uiso   1.00
N138   N     0.33928   0.07762   0.50417   0.00000  Uiso   1.00
C139   C     0.00907   0.76255   0.61782   0.00000  Uiso   1.00
C140   C     0.05764   0.77106   0.56395   0.00000  Uiso   1.00
C141   C     0.04299   0.77426   0.49726   0.00000  Uiso   1.00
C142   C     0.09429   0.78217   0.45592   0.00000  Uiso   1.00
C143   C     0.16003   0.79471   0.36855   0.00000  Uiso   1.00
C144   C     0.02153   0.81503   0.66627   0.00000  Uiso   1.00
C145   C     0.97652   0.85520   0.68562   0.00000  Uiso   1.00
C146   C     0.99742   0.90013   0.73041   0.00000  Uiso   1.00
C147   C     0.00709   0.98092   0.80192   0.00000  Uiso   1.00
C148   C     0.02830   0.70730   0.65420   0.00000  Uiso   1.00
C149   C     0.98898   0.65689   0.66342   0.00000  Uiso   1.00
C150   C     0.01558   0.61112   0.69807   0.00000  Uiso   1.00
C151   C     0.03576   0.52464   0.75084   0.00000  Uiso   1.00
C152   C     0.12621   0.77091   0.66299   0.00000  Uiso   1.00
C153   C     0.12127   0.77560   0.58849   0.00000  Uiso   1.00
C154   C     0.17260   0.78350   0.54723   0.00000  Uiso   1.00
C155   C     0.15803   0.78671   0.48050   0.00000  Uiso   1.00
C156   C     0.08515   0.81957   0.69080   0.00000  Uiso   1.00
C157   C     0.10612   0.86445   0.73559   0.00000  Uiso   1.00
C158   C     0.06116   0.90468   0.75499   0.00000  Uiso   1.00
C159   C     0.09193   0.71184   0.67873   0.00000  Uiso   1.00
C160   C     0.11859   0.66614   0.71338   0.00000  Uiso   1.00
C161   C     0.07932   0.61567   0.72264   0.00000  Uiso   1.00
H162   H     0.95953   0.75902   0.59873   0.00000  Uiso   1.00
H163   H     0.99375   0.77075   0.47830   0.00000  Uiso   1.00
H164   H     0.92728   0.85167   0.66663   0.00000  Uiso   1.00
H165   H     0.93975   0.65340   0.64442   0.00000  Uiso   1.00
H166   H     0.05974   0.78577   0.35560   0.00000  Uiso   1.00
H167   H     0.91959   0.95640   0.75272   0.00000  Uiso   1.00
H168   H     0.94587   0.53829   0.70591   0.00000  Uiso   1.00
H169   H     0.17574   0.77444   0.68209   0.00000  Uiso   1.00
H170   H     0.22183   0.78701   0.56623   0.00000  Uiso   1.00
H171   H     0.15536   0.86794   0.75456   0.00000  Uiso   1.00
H172   H     0.16783   0.66967   0.73236   0.00000  Uiso   1.00
H173   H     0.24486   0.79898   0.42697   0.00000  Uiso   1.00
H174   H     0.10471   0.96960   0.82410   0.00000  Uiso   1.00
H175   H     0.13099   0.55150   0.77728   0.00000  Uiso   1.00
O176   O     0.17872   0.80038   0.31357   0.00000  Uiso   1.00
O177   O     0.99484   0.02423   0.83458   0.00000  Uiso   1.00
O178   O     0.02932   0.47569   0.77316   0.00000  Uiso   1.00
N179   N     0.09699   0.78714   0.38830   0.00000  Uiso   1.00
N180   N     0.96596   0.94667   0.75957   0.00000  Uiso   1.00
N181   N     0.99052   0.55579   0.71582   0.00000  Uiso   1.00
N182   N     0.19660   0.79425   0.42670   0.00000  Uiso   1.00
N183   N     0.06557   0.95378   0.79798   0.00000  Uiso   1.00
N184   N     0.09013   0.56289   0.75422   0.00000  Uiso   1.00
C185   C     0.92377   0.59522   0.90613   0.00000  Uiso   1.00
C186   C     0.93927   0.54251   0.94859   0.00000  Uiso   1.00
C187   C     0.94260   0.48378   0.92648   0.00000  Uiso   1.00
C188   C     0.95748   0.44211   0.97305   0.00000  Uiso   1.00
C189   C     0.97989   0.35777   0.02888   0.00000  Uiso   1.00
C190   C     0.98006   0.64057   0.91678   0.00000  Uiso   1.00
C191   C     0.01767   0.66428   0.86792   0.00000  Uiso   1.00
C192   C     0.06688   0.70516   0.88772   0.00000  Uiso   1.00
C193   C     0.15258   0.77308   0.89416   0.00000  Uiso   1.00
C194   C     0.86605   0.62344   0.93666   0.00000  Uiso   1.00
C195   C     0.80780   0.63277   0.90452   0.00000  Uiso   1.00
C196   C     0.76103   0.65925   0.94105   0.00000  Uiso   1.00
C197   C     0.66971   0.70058   0.97836   0.00000  Uiso   1.00
C198   C     0.94429   0.62568   0.02815   0.00000  Uiso   1.00
C199   C     0.95042   0.55906   0.01486   0.00000  Uiso   1.00
C200   C     0.96530   0.51747   0.06148   0.00000  Uiso   1.00
C201   C     0.96864   0.45868   0.03945   0.00000  Uiso   1.00
C202   C     0.99121   0.65711   0.98305   0.00000  Uiso   1.00
C203   C     0.04037   0.69797   0.00292   0.00000  Uiso   1.00
C204   C     0.07805   0.72173   0.95411   0.00000  Uiso   1.00
C205   C     0.87719   0.63999   0.00294   0.00000  Uiso   1.00
C206   C     0.83050   0.66647   0.03952   0.00000  Uiso   1.00
C207   C     0.77219   0.67583   0.00745   0.00000  Uiso   1.00
H208   H     0.91510   0.58234   0.85454   0.00000  Uiso   1.00
H209   H     0.93397   0.47099   0.87518   0.00000  Uiso   1.00
H210   H     0.00903   0.65147   0.81664   0.00000  Uiso   1.00
H211   H     0.79919   0.61996   0.85323   0.00000  Uiso   1.00
H212   H     0.95984   0.35484   0.92730   0.00000  Uiso   1.00
H213   H     0.11808   0.73540   0.80385   0.00000  Uiso   1.00
H214   H     0.67560   0.66897   0.88102   0.00000  Uiso   1.00
H215   H     0.95297   0.63856   0.07976   0.00000  Uiso   1.00
H216   H     0.97392   0.53029   0.11277   0.00000  Uiso   1.00
H217   H     0.04898   0.71077   0.05422   0.00000  Uiso   1.00
H218   H     0.83915   0.67926   0.09081   0.00000  Uiso   1.00
H219   H     0.99227   0.40297   0.12013   0.00000  Uiso   1.00
H220   H     0.15051   0.78353   0.99667   0.00000  Uiso   1.00
H221   H     0.70803   0.71710   0.07384   0.00000  Uiso   1.00
O222   O     0.98918   0.30667   0.04137   0.00000  Uiso   1.00
O223   O     0.19678   0.80596   0.87939   0.00000  Uiso   1.00
O224   O     0.61625   0.71880   0.98064   0.00000  Uiso   1.00
N225   N     0.96458   0.38102   0.96816   0.00000  Uiso   1.00
N226   N     0.11254   0.73682   0.85273   0.00000  Uiso   1.00
N227   N     0.69886   0.67473   0.92488   0.00000  Uiso   1.00
N228   N     0.98203   0.40692   0.07192   0.00000  Uiso   1.00
N229   N     0.12999   0.76272   0.95649   0.00000  Uiso   1.00
N230   N     0.71631   0.70062   0.02864   0.00000  Uiso   1.00
C231   C     0.74614   0.90094   0.80501   0.00000  Uiso   1.00
C232   C     0.69651   0.93831   0.83846   0.00000  Uiso   1.00
C233   C     0.63387   0.91946   0.85120   0.00000  Uiso   1.00
C234   C     0.59602   0.96034   0.88225   0.00000  Uiso   1.00
C235   C     0.51532   0.00958   0.93154   0.00000  Uiso   1.00
C236   C     0.80401   0.90108   0.85270   0.00000  Uiso   1.00
C237   C     0.83176   0.85093   0.87740   0.00000  Uiso   1.00
C238   C     0.88441   0.86047   0.92044   0.00000  Uiso   1.00
C239   C     0.97064   0.85192   0.99179   0.00000  Uiso   1.00
C240   C     0.76816   0.93615   0.74616   0.00000  Uiso   1.00
C241   C     0.76578   0.91548   0.68127   0.00000  Uiso   1.00
C242   C     0.78826   0.95454   0.63461   0.00000  Uiso   1.00
C243   C     0.81882   0.00044   0.54053   0.00000  Uiso   1.00
C244   C     0.79032   0.00704   0.83752   0.00000  Uiso   1.00
C245   C     0.72051   0.99594   0.85612   0.00000  Uiso   1.00
C246   C     0.68274   0.03685   0.88717   0.00000  Uiso   1.00
C247   C     0.62005   0.01807   0.89994   0.00000  Uiso   1.00
C248   C     0.82801   0.95871   0.87036   0.00000  Uiso   1.00
C249   C     0.88063   0.96832   0.91337   0.00000  Uiso   1.00
C250   C     0.90845   0.91821   0.93813   0.00000  Uiso   1.00
C251   C     0.79216   0.99378   0.76382   0.00000  Uiso   1.00
C252   C     0.81465   0.03288   0.71724   0.00000  Uiso   1.00
C253   C     0.81230   0.01228   0.65230   0.00000  Uiso   1.00
H254   H     0.72746   0.85607   0.79127   0.00000  Uiso   1.00
H255   H     0.61532   0.87485   0.83753   0.00000  Uiso   1.00
H256   H     0.81318   0.80634   0.86372   0.00000  Uiso   1.00
H257   H     0.74721   0.87088   0.66762   0.00000  Uiso   1.00
H258   H     0.50158   0.92109   0.89663   0.00000  Uiso   1.00
H259   H     0.91880   0.77662   0.95184   0.00000  Uiso   1.00
H260   H     0.77968   0.91272   0.53833   0.00000  Uiso   1.00
H261   H     0.80900   0.05191   0.85127   0.00000  Uiso   1.00
H262   H     0.70133   0.08145   0.90083   0.00000  Uiso   1.00
H263   H     0.89919   0.01293   0.92702   0.00000  Uiso   1.00
H264   H     0.83322   0.07747   0.73093   0.00000  Uiso   1.00
H265   H     0.57138   0.08877   0.94801   0.00000  Uiso   1.00
H266   H     0.98861   0.94429   0.00322   0.00000  Uiso   1.00
H267   H     0.84949   0.08039   0.58971   0.00000  Uiso   1.00
O268   O     0.46419   0.02082   0.95385   0.00000  Uiso   1.00
O269   O     0.01157   0.83127   0.02628   0.00000  Uiso   1.00
O270   O     0.82904   0.00983   0.48376   0.00000  Uiso   1.00
N271   N     0.53278   0.95651   0.90191   0.00000  Uiso   1.00
N272   N     0.92285   0.82143   0.95354   0.00000  Uiso   1.00
N273   N     0.79280   0.94867   0.56694   0.00000  Uiso   1.00
N274   N     0.57034   0.04673   0.92955   0.00000  Uiso   1.00
N275   N     0.96041   0.91166   0.98118   0.00000  Uiso   1.00
N276   N     0.83036   0.03889   0.59459   0.00000  Uiso   1.00
C277   C     0.58403   0.77516   0.64893   0.00000  Uiso   1.00
C278   C     0.55194   0.82710   0.61658   0.00000  Uiso   1.00
C279   C     0.58072   0.88295   0.60685   0.00000  Uiso   1.00
C280   C     0.54326   0.92438   0.57632   0.00000  Uiso   1.00
C281   C     0.50318   0.00714   0.52910   0.00000  Uiso   1.00
C282   C     0.57760   0.72320   0.59909   0.00000  Uiso   1.00
C283   C     0.62795   0.69169   0.57467   0.00000  Uiso   1.00
C284   C     0.61209   0.64565   0.52943   0.00000  Uiso   1.00
C285   C     0.61184   0.56707   0.45509   0.00000  Uiso   1.00
C286   C     0.54188   0.75756   0.70582   0.00000  Uiso   1.00
C287   C     0.56220   0.75492   0.77115   0.00000  Uiso   1.00
C288   C     0.51626   0.73780   0.81577   0.00000  Uiso   1.00
C289   C     0.46055   0.71257   0.90715   0.00000  Uiso   1.00
C290   C     0.46633   0.74942   0.61200   0.00000  Uiso   1.00
C291   C     0.48802   0.81311   0.59651   0.00000  Uiso   1.00
C292   C     0.45050   0.85447   0.56599   0.00000  Uiso   1.00
C293   C     0.47922   0.91038   0.55623   0.00000  Uiso   1.00
C294   C     0.51368   0.70921   0.57903   0.00000  Uiso   1.00
C295   C     0.49774   0.66321   0.53381   0.00000  Uiso   1.00
C296   C     0.54805   0.63164   0.50933   0.00000  Uiso   1.00
C297   C     0.47795   0.74358   0.68576   0.00000  Uiso   1.00
C298   C     0.43198   0.72645   0.73029   0.00000  Uiso   1.00
C299   C     0.45222   0.72379   0.79567   0.00000  Uiso   1.00
H300   H     0.63380   0.78604   0.66455   0.00000  Uiso   1.00
H301   H     0.63020   0.89375   0.62238   0.00000  Uiso   1.00
H302   H     0.67742   0.70251   0.59021   0.00000  Uiso   1.00
H303   H     0.61167   0.76574   0.78666   0.00000  Uiso   1.00
H304   H     0.59802   0.00699   0.56676   0.00000  Uiso   1.00
H305   H     0.69759   0.60374   0.49894   0.00000  Uiso   1.00
H306   H     0.55895   0.73707   0.91319   0.00000  Uiso   1.00
H307   H     0.41656   0.73854   0.59638   0.00000  Uiso   1.00
H308   H     0.40103   0.84364   0.55047   0.00000  Uiso   1.00
H309   H     0.44826   0.65240   0.51830   0.00000  Uiso   1.00
H310   H     0.38251   0.71563   0.71474   0.00000  Uiso   1.00
H311   H     0.41203   0.96632   0.50839   0.00000  Uiso   1.00
H312   H     0.51159   0.56307   0.44058   0.00000  Uiso   1.00
H313   H     0.37295   0.69640   0.85482   0.00000  Uiso   1.00
O314   O     0.49874   0.05665   0.50858   0.00000  Uiso   1.00
O315   O     0.62937   0.52759   0.41962   0.00000  Uiso   1.00
O316   O     0.44747   0.70252   0.96310   0.00000  Uiso   1.00
N317   N     0.55637   0.98300   0.55933   0.00000  Uiso   1.00
N318   N     0.64946   0.60599   0.49592   0.00000  Uiso   1.00
N319   N     0.51985   0.73063   0.88321   0.00000  Uiso   1.00
N320   N     0.45629   0.96111   0.52793   0.00000  Uiso   1.00
N321   N     0.54938   0.58411   0.46452   0.00000  Uiso   1.00
N322   N     0.41977   0.70874   0.85180   0.00000  Uiso   1.00
C323   C     0.70577   0.44078   0.81914   0.00000  Uiso   1.00
C324   C     0.67713   0.40058   0.87093   0.00000  Uiso   1.00
C325   C     0.66970   0.41636   0.93650   0.00000  Uiso   1.00
C326   C     0.64246   0.37322   0.97596   0.00000  Uiso   1.00
C327   C     0.60086   0.31946   0.06021   0.00000  Uiso   1.00
C328   C     0.65477   0.44247   0.76399   0.00000  Uiso   1.00
C329   C     0.62855   0.49348   0.73966   0.00000  Uiso   1.00
C330   C     0.58249   0.48561   0.68910   0.00000  Uiso   1.00
C331   C     0.50622   0.49688   0.60729   0.00000  Uiso   1.00
C332   C     0.76129   0.40756   0.79062   0.00000  Uiso   1.00
C333   C     0.82464   0.42922   0.78866   0.00000  Uiso   1.00
C334   C     0.86826   0.39196   0.76050   0.00000  Uiso   1.00
C335   C     0.95739   0.34903   0.72004   0.00000  Uiso   1.00
C336   C     0.67059   0.33610   0.77262   0.00000  Uiso   1.00
C337   C     0.65802   0.34372   0.84565   0.00000  Uiso   1.00
C338   C     0.63078   0.30055   0.88503   0.00000  Uiso   1.00
C339   C     0.62332   0.31626   0.95065   0.00000  Uiso   1.00
C340   C     0.63566   0.38562   0.73872   0.00000  Uiso   1.00
C341   C     0.58963   0.37767   0.68818   0.00000  Uiso   1.00
C342   C     0.56335   0.42865   0.66378   0.00000  Uiso   1.00
C343   C     0.74219   0.35070   0.76535   0.00000  Uiso   1.00
C344   C     0.78572   0.31340   0.73719   0.00000  Uiso   1.00
C345   C     0.84912   0.33500   0.73518   0.00000  Uiso   1.00
H346   H     0.72064   0.48505   0.83881   0.00000  Uiso   1.00
H347   H     0.68449   0.46037   0.95604   0.00000  Uiso   1.00
H348   H     0.64335   0.53747   0.75922   0.00000  Uiso   1.00
H349   H     0.83941   0.47322   0.80822   0.00000  Uiso   1.00
H350   H     0.63596   0.40794   0.07485   0.00000  Uiso   1.00
H351   H     0.54923   0.57052   0.65984   0.00000  Uiso   1.00
H352   H     0.96266   0.43504   0.76316   0.00000  Uiso   1.00
H353   H     0.65571   0.29183   0.75294   0.00000  Uiso   1.00
H354   H     0.61600   0.25655   0.86545   0.00000  Uiso   1.00
H355   H     0.57486   0.33366   0.66864   0.00000  Uiso   1.00
H356   H     0.77092   0.26941   0.71763   0.00000  Uiso   1.00
H357   H     0.58037   0.24251   0.00133   0.00000  Uiso   1.00
H358   H     0.49364   0.40510   0.58631   0.00000  Uiso   1.00
H359   H     0.90707   0.26961   0.68963   0.00000  Uiso   1.00
O360   O     0.58319   0.30551   0.11365   0.00000  Uiso   1.00
O361   O     0.46942   0.51881   0.56916   0.00000  Uiso   1.00
O362   O     0.01183   0.34106   0.70472   0.00000  Uiso   1.00
N363   N     0.62834   0.37385   0.04211   0.00000  Uiso   1.00
N364   N     0.54725   0.52585   0.65410   0.00000  Uiso   1.00
N365   N     0.93376   0.39919   0.75068   0.00000  Uiso   1.00
N366   N     0.59843   0.28483   0.00255   0.00000  Uiso   1.00
N367   N     0.51733   0.43684   0.61454   0.00000  Uiso   1.00
N368   N     0.90385   0.31018   0.71112   0.00000  Uiso   1.00
C369   C     0.89181   0.57056   0.51896   0.00000  Uiso   1.00
C370   C     0.94093   0.55595   0.46759   0.00000  Uiso   1.00
C371   C     0.00617   0.54970   0.47977   0.00000  Uiso   1.00
C372   C     0.04303   0.53625   0.42614   0.00000  Uiso   1.00
C373   C     0.12347   0.51459   0.35604   0.00000  Uiso   1.00
C374   C     0.83990   0.52047   0.51323   0.00000  Uiso   1.00
C375   C     0.82019   0.48440   0.56378   0.00000  Uiso   1.00
C376   C     0.77200   0.44110   0.54857   0.00000  Uiso   1.00
C377   C     0.69556   0.36438   0.54932   0.00000  Uiso   1.00
C378   C     0.85995   0.62650   0.49596   0.00000  Uiso   1.00
C379   C     0.85709   0.67959   0.53201   0.00000  Uiso   1.00
C380   C     0.82577   0.72555   0.50227   0.00000  Uiso   1.00
C381   C     0.78047   0.81347   0.47622   0.00000  Uiso   1.00
C382   C     0.84125   0.55778   0.40206   0.00000  Uiso   1.00
C383   C     0.91346   0.54900   0.40409   0.00000  Uiso   1.00
C384   C     0.95024   0.53557   0.35043   0.00000  Uiso   1.00
C385   C     0.01553   0.52930   0.36253   0.00000  Uiso   1.00
C386   C     0.81244   0.51353   0.44973   0.00000  Uiso   1.00
C387   C     0.76426   0.47027   0.43444   0.00000  Uiso   1.00
C388   C     0.74449   0.43414   0.48495   0.00000  Uiso   1.00
C389   C     0.83249   0.61956   0.43246   0.00000  Uiso   1.00
C390   C     0.80116   0.66545   0.40266   0.00000  Uiso   1.00
C391   C     0.79826   0.71860   0.43865   0.00000  Uiso   1.00
H392   H     0.91319   0.57596   0.56840   0.00000  Uiso   1.00
H393   H     0.02741   0.55507   0.52892   0.00000  Uiso   1.00
H394   H     0.84145   0.48979   0.61292   0.00000  Uiso   1.00
H395   H     0.87835   0.68494   0.58115   0.00000  Uiso   1.00
H396   H     0.14192   0.52883   0.45715   0.00000  Uiso   1.00
H397   H     0.74981   0.39119   0.63426   0.00000  Uiso   1.00
H398   H     0.82762   0.80271   0.56727   0.00000  Uiso   1.00
H399   H     0.81987   0.55238   0.35262   0.00000  Uiso   1.00
H400   H     0.92897   0.53020   0.30129   0.00000  Uiso   1.00
H401   H     0.74302   0.46491   0.38529   0.00000  Uiso   1.00
H402   H     0.77992   0.66006   0.35352   0.00000  Uiso   1.00
H403   H     0.06203   0.50864   0.27240   0.00000  Uiso   1.00
H404   H     0.66992   0.37100   0.44952   0.00000  Uiso   1.00
H405   H     0.74773   0.78252   0.38252   0.00000  Uiso   1.00
O406   O     0.17543   0.50455   0.33491   0.00000  Uiso   1.00
O407   O     0.66099   0.32398   0.56728   0.00000  Uiso   1.00
O408   O     0.76307   0.86388   0.47939   0.00000  Uiso   1.00
N409   N     0.10815   0.52713   0.42071   0.00000  Uiso   1.00
N410   N     0.74156   0.39844   0.58630   0.00000  Uiso   1.00
N411   N     0.81428   0.78317   0.52368   0.00000  Uiso   1.00
N412   N     0.06516   0.51627   0.32130   0.00000  Uiso   1.00
N413   N     0.69857   0.38758   0.48689   0.00000  Uiso   1.00
N414   N     0.77130   0.77231   0.42426   0.00000  Uiso   1.00
C415   C     0.15622   0.07171   0.27026   0.00000  Uiso   1.00
C416   C     0.10502   0.06453   0.32176   0.00000  Uiso   1.00
C417   C     0.11631   0.06461   0.38925   0.00000  Uiso   1.00
C418   C     0.06301   0.05741   0.42807   0.00000  Uiso   1.00
C419   C     0.99298   0.04729   0.51226   0.00000  Uiso   1.00
C420   C     0.14746   0.01703   0.22432   0.00000  Uiso   1.00
C421   C     0.19444   0.97717   0.20988   0.00000  Uiso   1.00
C422   C     0.17687   0.92999   0.16667   0.00000  Uiso   1.00
C423   C     0.17276   0.84615   0.09954   0.00000  Uiso   1.00
C424   C     0.13757   0.12471   0.22970   0.00000  Uiso   1.00
C425   C     0.17623   0.17539   0.21976   0.00000  Uiso   1.00
C426   C     0.15034   0.21886   0.18106   0.00000  Uiso   1.00
C427   C     0.13086   0.30222   0.12229   0.00000  Uiso   1.00
C428   C     0.04149   0.05878   0.21919   0.00000  Uiso   1.00
C429   C     0.04270   0.05751   0.29402   0.00000  Uiso   1.00
C430   C     0.98937   0.05030   0.33275   0.00000  Uiso   1.00
C431   C     0.00058   0.05037   0.40028   0.00000  Uiso   1.00
C432   C     0.08514   0.01000   0.19658   0.00000  Uiso   1.00
C433   C     0.06751   0.96287   0.15338   0.00000  Uiso   1.00
C434   C     0.11445   0.92295   0.13888   0.00000  Uiso   1.00
C435   C     0.07525   0.11769   0.20196   0.00000  Uiso   1.00
C436   C     0.04929   0.16109   0.16326   0.00000  Uiso   1.00
C437   C     0.08791   0.21183   0.15327   0.00000  Uiso   1.00
H438   H     0.20474   0.07718   0.29185   0.00000  Uiso   1.00
H439   H     0.16454   0.07004   0.41070   0.00000  Uiso   1.00
H440   H     0.24266   0.98262   0.23135   0.00000  Uiso   1.00
H441   H     0.22446   0.18081   0.24123   0.00000  Uiso   1.00
H442   H     0.09250   0.05901   0.53023   0.00000  Uiso   1.00
H443   H     0.25723   0.87469   0.15204   0.00000  Uiso   1.00
H444   H     0.21883   0.29262   0.17289   0.00000  Uiso   1.00
H445   H     0.99297   0.05332   0.19759   0.00000  Uiso   1.00
H446   H     0.94115   0.04487   0.31127   0.00000  Uiso   1.00
H447   H     0.01928   0.95745   0.13192   0.00000  Uiso   1.00
H448   H     0.00107   0.15564   0.14180   0.00000  Uiso   1.00
H449   H     0.91119   0.03858   0.44952   0.00000  Uiso   1.00
H450   H     0.07592   0.85426   0.07134   0.00000  Uiso   1.00
H451   H     0.03752   0.27218   0.09219   0.00000  Uiso   1.00
O452   O     0.97158   0.04365   0.56635   0.00000  Uiso   1.00
O453   O     0.18770   0.80184   0.07018   0.00000  Uiso   1.00
O454   O     0.13733   0.35015   0.09754   0.00000  Uiso   1.00
N455   N     0.05693   0.05537   0.49563   0.00000  Uiso   1.00
N456   N     0.21095   0.88304   0.14206   0.00000  Uiso   1.00
N457   N     0.17506   0.27376   0.16154   0.00000  Uiso   1.00
N458   N     0.95937   0.04438   0.45221   0.00000  Uiso   1.00
N459   N     0.11338   0.87205   0.09864   0.00000  Uiso   1.00
N460   N     0.07750   0.26276   0.11811   0.00000  Uiso   1.00
C461   C     0.27316   0.23959   0.95015   0.00000  Uiso   1.00
C462   C     0.24789   0.29284   0.91413   0.00000  Uiso   1.00
C463   C     0.24717   0.35081   0.93936   0.00000  Uiso   1.00
C464   C     0.22204   0.39316   0.89863   0.00000  Uiso   1.00
C465   C     0.18636   0.47814   0.85238   0.00000  Uiso   1.00
C466   C     0.21769   0.19288   0.94923   0.00000  Uiso   1.00
C467   C     0.19158   0.16680   0.00397   0.00000  Uiso   1.00
C468   C     0.14104   0.12500   0.99278   0.00000  Uiso   1.00
C469   C     0.05850   0.05476   0.00103   0.00000  Uiso   1.00
C470   C     0.32418   0.21396   0.90678   0.00000  Uiso   1.00
C471   C     0.38761   0.20558   0.92584   0.00000  Uiso   1.00
C472   C     0.42672   0.18151   0.87892   0.00000  Uiso   1.00
C473   C     0.50954   0.14398   0.82126   0.00000  Uiso   1.00
C474   C     0.22982   0.21172   0.83293   0.00000  Uiso   1.00
C475   C     0.22435   0.27770   0.85046   0.00000  Uiso   1.00
C476   C     0.19922   0.31997   0.80967   0.00000  Uiso   1.00
C477   C     0.19846   0.37799   0.83484   0.00000  Uiso   1.00
C478   C     0.19415   0.17774   0.88556   0.00000  Uiso   1.00
C479   C     0.14364   0.13596   0.87428   0.00000  Uiso   1.00
C480   C     0.11746   0.10983   0.92900   0.00000  Uiso   1.00
C481   C     0.30065   0.19881   0.84311   0.00000  Uiso   1.00
C482   C     0.33967   0.17474   0.79615   0.00000  Uiso   1.00
C483   C     0.40314   0.16633   0.81514   0.00000  Uiso   1.00
H484   H     0.29148   0.25138   0.99972   0.00000  Uiso   1.00
H485   H     0.26538   0.36251   0.98864   0.00000  Uiso   1.00
H486   H     0.20981   0.17853   0.05324   0.00000  Uiso   1.00
H487   H     0.40581   0.21730   0.97512   0.00000  Uiso   1.00
H488   H     0.22605   0.47904   0.94828   0.00000  Uiso   1.00
H489   H     0.10889   0.09109   0.08449   0.00000  Uiso   1.00
H490   H     0.52219   0.17285   0.91976   0.00000  Uiso   1.00
H491   H     0.21150   0.19993   0.78336   0.00000  Uiso   1.00
H492   H     0.18101   0.30824   0.76040   0.00000  Uiso   1.00
H493   H     0.12544   0.12425   0.82501   0.00000  Uiso   1.00
H494   H     0.32144   0.16303   0.74689   0.00000  Uiso   1.00
H495   H     0.15756   0.43499   0.76304   0.00000  Uiso   1.00
H496   H     0.04041   0.04703   0.89925   0.00000  Uiso   1.00
H497   H     0.45371   0.12880   0.73452   0.00000  Uiso   1.00
O498   O     0.17317   0.52919   0.84447   0.00000  Uiso   1.00
O499   O     0.01948   0.02020   0.02317   0.00000  Uiso   1.00
O500   O     0.56172   0.12747   0.80705   0.00000  Uiso   1.00
N501   N     0.21412   0.45381   0.90783   0.00000  Uiso   1.00
N502   N     0.10458   0.09110   0.03518   0.00000  Uiso   1.00
N503   N     0.49098   0.16753   0.88117   0.00000  Uiso   1.00
N504   N     0.17728   0.43011   0.80815   0.00000  Uiso   1.00
N505   N     0.06773   0.06740   0.93550   0.00000  Uiso   1.00
N506   N     0.45413   0.14382   0.78150   0.00000  Uiso   1.00
C507   C     0.42030   0.95708   0.12057   0.00000  Uiso   1.00
C508   C     0.47947   0.92825   0.09391   0.00000  Uiso   1.00
C509   C     0.53988   0.95608   0.08881   0.00000  Uiso   1.00
C510   C     0.58770   0.92204   0.06311   0.00000  Uiso   1.00
C511   C     0.68144   0.88636   0.02471   0.00000  Uiso   1.00
C512   C     0.36830   0.94937   0.06630   0.00000  Uiso   1.00
C513   C     0.33522   0.99496   0.03799   0.00000  Uiso   1.00
C514   C     0.28945   0.97871   0.98905   0.00000  Uiso   1.00
C515   C     0.21055   0.97582   0.90782   0.00000  Uiso   1.00
C516   C     0.39770   0.91829   0.17644   0.00000  Uiso   1.00
C517   C     0.38933   0.93775   0.24072   0.00000  Uiso   1.00
C518   C     0.36830   0.89533   0.28451   0.00000  Uiso   1.00
C519   C     0.33505   0.84418   0.37428   0.00000  Uiso   1.00
C520   C     0.39780   0.84714   0.08402   0.00000  Uiso   1.00
C521   C     0.46725   0.86853   0.07406   0.00000  Uiso   1.00
C522   C     0.51499   0.83445   0.04837   0.00000  Uiso   1.00
C523   C     0.57546   0.86222   0.04323   0.00000  Uiso   1.00
C524   C     0.35608   0.88966   0.04645   0.00000  Uiso   1.00
C525   C     0.31034   0.87333   0.99755   0.00000  Uiso   1.00
C526   C     0.27721   0.91889   0.96917   0.00000  Uiso   1.00
C527   C     0.38548   0.85857   0.15659   0.00000  Uiso   1.00
C528   C     0.36445   0.81612   0.20028   0.00000  Uiso   1.00
C529   C     0.35605   0.83551   0.26462   0.00000  Uiso   1.00
H530   H     0.42980   0.00357   0.13602   0.00000  Uiso   1.00
H531   H     0.54932   0.00229   0.10417   0.00000  Uiso   1.00
H532   H     0.34469   0.04117   0.05336   0.00000  Uiso   1.00
H533   H     0.39879   0.98396   0.25606   0.00000  Uiso   1.00
H534   H     0.67642   0.97455   0.06008   0.00000  Uiso   1.00
H535   H     0.24493   0.05652   0.95297   0.00000  Uiso   1.00
H536   H     0.35902   0.93589   0.38040   0.00000  Uiso   1.00
H537   H     0.38829   0.80065   0.06857   0.00000  Uiso   1.00
H538   H     0.50552   0.78824   0.03302   0.00000  Uiso   1.00
H539   H     0.30089   0.82712   0.98221   0.00000  Uiso   1.00
H540   H     0.35500   0.76991   0.18491   0.00000  Uiso   1.00
H541   H     0.64088   0.80081   0.00232   0.00000  Uiso   1.00
H542   H     0.20939   0.88279   0.89522   0.00000  Uiso   1.00
H543   H     0.32348   0.76216   0.32265   0.00000  Uiso   1.00
O544   O     0.73652   0.88318   0.00901   0.00000  Uiso   1.00
O545   O     0.17041   0.99073   0.86850   0.00000  Uiso   1.00
O546   O     0.32010   0.83246   0.42928   0.00000  Uiso   1.00
N547   N     0.65197   0.93536   0.05138   0.00000  Uiso   1.00
N548   N     0.24856   0.01200   0.95123   0.00000  Uiso   1.00
N549   N     0.35521   0.89923   0.35084   0.00000  Uiso   1.00
N550   N     0.63285   0.84187   0.02030   0.00000  Uiso   1.00
N551   N     0.22944   0.91852   0.92015   0.00000  Uiso   1.00
N552   N     0.33608   0.80574   0.31976   0.00000  Uiso   1.00
