data_job_00667
_audit_creation_date              2018-12-19
_audit_creation_method            'Materials Studio'
_symmetry_space_group_name_H-M    'P1'
_symmetry_Int_Tables_number       1
_symmetry_cell_setting            triclinic
loop_
_symmetry_equiv_pos_as_xyz
  x,y,z
_cell_length_a                    10.5363
_cell_length_b                    22.6613
_cell_length_c                    18.4819
_cell_angle_alpha                 90.0000
_cell_angle_beta                  90.0000
_cell_angle_gamma                 90.0000
loop_
_atom_site_label
_atom_site_type_symbol
_atom_site_fract_x
_atom_site_fract_y
_atom_site_fract_z
_atom_site_U_iso_or_equiv
_atom_site_adp_type
_atom_site_occupancy
C1     C     0.38664   0.31307   0.61770   0.00000  Uiso   1.00
C2     C     0.25617   0.31562   0.65328   0.00000  Uiso   1.00
C3     C     0.23060   0.33677   0.72222   0.00000  Uiso   1.00
C4     C     0.10499   0.33534   0.74486   0.00000  Uiso   1.00
C5     C     0.91709   0.34258   0.80693   0.00000  Uiso   1.00
C6     C     0.40730   0.24878   0.59639   0.00000  Uiso   1.00
C7     C     0.50880   0.21374   0.61748   0.00000  Uiso   1.00
C8     C     0.51042   0.15605   0.59222   0.00000  Uiso   1.00
C9     C     0.55719   0.05953   0.56591   0.00000  Uiso   1.00
C10    C     0.37475   0.34729   0.54699   0.00000  Uiso   1.00
C11    C     0.44891   0.39508   0.52653   0.00000  Uiso   1.00
C12    C     0.42315   0.42032   0.45967   0.00000  Uiso   1.00
C13    C     0.41940   0.47677   0.35666   0.00000  Uiso   1.00
C14    C     0.20905   0.27291   0.53532   0.00000  Uiso   1.00
C15    C     0.15972   0.29380   0.60853   0.00000  Uiso   1.00
C16    C     0.03411   0.29234   0.63108   0.00000  Uiso   1.00
C17    C     0.00836   0.31349   0.70004   0.00000  Uiso   1.00
C18    C     0.31085   0.22696   0.55164   0.00000  Uiso   1.00
C19    C     0.31232   0.16931   0.52634   0.00000  Uiso   1.00
C20    C     0.41379   0.13419   0.54739   0.00000  Uiso   1.00
C21    C     0.27829   0.32548   0.50224   0.00000  Uiso   1.00
C22    C     0.25242   0.35065   0.43539   0.00000  Uiso   1.00
C23    C     0.32652   0.39846   0.41484   0.00000  Uiso   1.00
H24    H     0.46174   0.33005   0.65254   0.00000  Uiso   1.00
H25    H     0.30527   0.35365   0.75684   0.00000  Uiso   1.00
H26    H     0.58344   0.23064   0.65210   0.00000  Uiso   1.00
H27    H     0.52355   0.41195   0.56117   0.00000  Uiso   1.00
H28    H     0.08927   0.37017   0.85275   0.00000  Uiso   1.00
H29    H     0.67581   0.11080   0.63190   0.00000  Uiso   1.00
H30    H     0.54954   0.49313   0.44015   0.00000  Uiso   1.00
H31    H     0.13395   0.25593   0.50048   0.00000  Uiso   1.00
H32    H     0.95949   0.27545   0.59644   0.00000  Uiso   1.00
H33    H     0.23766   0.15244   0.49171   0.00000  Uiso   1.00
H34    H     0.17777   0.33375   0.40078   0.00000  Uiso   1.00
H35    H     0.80862   0.30670   0.72256   0.00000  Uiso   1.00
H36    H     0.39517   0.04733   0.50171   0.00000  Uiso   1.00
H37    H     0.26889   0.42966   0.30997   0.00000  Uiso   1.00
O38    O     0.84009   0.35260   0.85353   0.00000  Uiso   1.00
O39    O     0.60964   0.01232   0.56377   0.00000  Uiso   1.00
O40    O     0.44396   0.51393   0.31221   0.00000  Uiso   1.00
N41    N     0.04715   0.35256   0.80893   0.00000  Uiso   1.00
N42    N     0.59553   0.11006   0.60246   0.00000  Uiso   1.00
N43    N     0.47750   0.46750   0.42319   0.00000  Uiso   1.00
N44    N     0.89614   0.31841   0.73888   0.00000  Uiso   1.00
N45    N     0.44452   0.07591   0.53241   0.00000  Uiso   1.00
N46    N     0.32648   0.43335   0.35314   0.00000  Uiso   1.00
C47    C     0.11336   0.68693   0.61770   0.00000  Uiso   1.00
C48    C     0.24383   0.68438   0.65328   0.00000  Uiso   1.00
C49    C     0.26940   0.66323   0.72222   0.00000  Uiso   1.00
C50    C     0.39501   0.66466   0.74486   0.00000  Uiso   1.00
C51    C     0.58291   0.65742   0.80693   0.00000  Uiso   1.00
C52    C     0.09270   0.75122   0.59639   0.00000  Uiso   1.00
C53    C     0.99120   0.78626   0.61748   0.00000  Uiso   1.00
C54    C     0.98958   0.84395   0.59222   0.00000  Uiso   1.00
C55    C     0.94281   0.94047   0.56591   0.00000  Uiso   1.00
C56    C     0.12525   0.65271   0.54699   0.00000  Uiso   1.00
C57    C     0.05109   0.60492   0.52653   0.00000  Uiso   1.00
C58    C     0.07685   0.57968   0.45967   0.00000  Uiso   1.00
C59    C     0.08060   0.52323   0.35666   0.00000  Uiso   1.00
C60    C     0.29095   0.72709   0.53532   0.00000  Uiso   1.00
C61    C     0.34028   0.70620   0.60853   0.00000  Uiso   1.00
C62    C     0.46589   0.70766   0.63108   0.00000  Uiso   1.00
C63    C     0.49164   0.68651   0.70004   0.00000  Uiso   1.00
C64    C     0.18915   0.77304   0.55164   0.00000  Uiso   1.00
C65    C     0.18768   0.83069   0.52634   0.00000  Uiso   1.00
C66    C     0.08621   0.86581   0.54739   0.00000  Uiso   1.00
C67    C     0.22171   0.67452   0.50224   0.00000  Uiso   1.00
C68    C     0.24758   0.64935   0.43539   0.00000  Uiso   1.00
C69    C     0.17348   0.60154   0.41484   0.00000  Uiso   1.00
H70    H     0.03826   0.66995   0.65254   0.00000  Uiso   1.00
H71    H     0.19473   0.64635   0.75684   0.00000  Uiso   1.00
H72    H     0.91656   0.76936   0.65210   0.00000  Uiso   1.00
H73    H     0.97645   0.58805   0.56117   0.00000  Uiso   1.00
H74    H     0.41073   0.62983   0.85275   0.00000  Uiso   1.00
H75    H     0.82419   0.88920   0.63190   0.00000  Uiso   1.00
H76    H     0.95046   0.50687   0.44015   0.00000  Uiso   1.00
H77    H     0.36605   0.74407   0.50048   0.00000  Uiso   1.00
H78    H     0.54051   0.72455   0.59644   0.00000  Uiso   1.00
H79    H     0.26234   0.84756   0.49171   0.00000  Uiso   1.00
H80    H     0.32223   0.66625   0.40078   0.00000  Uiso   1.00
H81    H     0.69138   0.69330   0.72256   0.00000  Uiso   1.00
H82    H     0.10483   0.95267   0.50171   0.00000  Uiso   1.00
H83    H     0.23111   0.57034   0.30997   0.00000  Uiso   1.00
O84    O     0.65991   0.64740   0.85353   0.00000  Uiso   1.00
O85    O     0.89036   0.98768   0.56377   0.00000  Uiso   1.00
O86    O     0.05604   0.48607   0.31221   0.00000  Uiso   1.00
N87    N     0.45285   0.64744   0.80893   0.00000  Uiso   1.00
N88    N     0.90447   0.88994   0.60246   0.00000  Uiso   1.00
N89    N     0.02250   0.53250   0.42319   0.00000  Uiso   1.00
N90    N     0.60386   0.68159   0.73888   0.00000  Uiso   1.00
N91    N     0.05548   0.92409   0.53241   0.00000  Uiso   1.00
N92    N     0.17352   0.56665   0.35314   0.00000  Uiso   1.00
C93    C     0.11336   0.81307   0.88230   0.00000  Uiso   1.00
C94    C     0.24383   0.81562   0.84672   0.00000  Uiso   1.00
C95    C     0.26940   0.83677   0.77778   0.00000  Uiso   1.00
C96    C     0.39501   0.83534   0.75514   0.00000  Uiso   1.00
C97    C     0.58291   0.84258   0.69307   0.00000  Uiso   1.00
C98    C     0.09270   0.74878   0.90361   0.00000  Uiso   1.00
C99    C     0.99120   0.71374   0.88252   0.00000  Uiso   1.00
C100   C     0.98958   0.65605   0.90778   0.00000  Uiso   1.00
C101   C     0.94281   0.55953   0.93409   0.00000  Uiso   1.00
C102   C     0.12525   0.84729   0.95301   0.00000  Uiso   1.00
C103   C     0.05109   0.89508   0.97347   0.00000  Uiso   1.00
C104   C     0.07685   0.92032   0.04033   0.00000  Uiso   1.00
C105   C     0.08060   0.97677   0.14334   0.00000  Uiso   1.00
C106   C     0.29095   0.77291   0.96468   0.00000  Uiso   1.00
C107   C     0.34028   0.79380   0.89147   0.00000  Uiso   1.00
C108   C     0.46589   0.79234   0.86892   0.00000  Uiso   1.00
C109   C     0.49164   0.81349   0.79996   0.00000  Uiso   1.00
C110   C     0.18915   0.72696   0.94836   0.00000  Uiso   1.00
C111   C     0.18768   0.66931   0.97366   0.00000  Uiso   1.00
C112   C     0.08621   0.63419   0.95261   0.00000  Uiso   1.00
C113   C     0.22171   0.82548   0.99776   0.00000  Uiso   1.00
C114   C     0.24758   0.85065   0.06461   0.00000  Uiso   1.00
C115   C     0.17348   0.89846   0.08516   0.00000  Uiso   1.00
H116   H     0.03826   0.83005   0.84746   0.00000  Uiso   1.00
H117   H     0.19473   0.85365   0.74316   0.00000  Uiso   1.00
H118   H     0.91656   0.73064   0.84790   0.00000  Uiso   1.00
H119   H     0.97645   0.91195   0.93883   0.00000  Uiso   1.00
H120   H     0.41073   0.87017   0.64725   0.00000  Uiso   1.00
H121   H     0.82419   0.61080   0.86810   0.00000  Uiso   1.00
H122   H     0.95046   0.99313   0.05985   0.00000  Uiso   1.00
H123   H     0.36605   0.75593   0.99952   0.00000  Uiso   1.00
H124   H     0.54051   0.77545   0.90356   0.00000  Uiso   1.00
H125   H     0.26234   0.65244   0.00829   0.00000  Uiso   1.00
H126   H     0.32223   0.83375   0.09922   0.00000  Uiso   1.00
H127   H     0.69138   0.80670   0.77744   0.00000  Uiso   1.00
H128   H     0.10483   0.54733   0.99829   0.00000  Uiso   1.00
H129   H     0.23111   0.92966   0.19003   0.00000  Uiso   1.00
O130   O     0.65991   0.85260   0.64647   0.00000  Uiso   1.00
O131   O     0.89036   0.51232   0.93623   0.00000  Uiso   1.00
O132   O     0.05604   0.01393   0.18779   0.00000  Uiso   1.00
N133   N     0.45285   0.85256   0.69107   0.00000  Uiso   1.00
N134   N     0.90447   0.61006   0.89754   0.00000  Uiso   1.00
N135   N     0.02250   0.96750   0.07681   0.00000  Uiso   1.00
N136   N     0.60386   0.81841   0.76112   0.00000  Uiso   1.00
N137   N     0.05548   0.57591   0.96759   0.00000  Uiso   1.00
N138   N     0.17352   0.93335   0.14686   0.00000  Uiso   1.00
C139   C     0.38664   0.18693   0.88230   0.00000  Uiso   1.00
C140   C     0.25617   0.18438   0.84672   0.00000  Uiso   1.00
C141   C     0.23060   0.16323   0.77778   0.00000  Uiso   1.00
C142   C     0.10499   0.16466   0.75514   0.00000  Uiso   1.00
C143   C     0.91709   0.15742   0.69307   0.00000  Uiso   1.00
C144   C     0.40730   0.25122   0.90361   0.00000  Uiso   1.00
C145   C     0.50880   0.28626   0.88252   0.00000  Uiso   1.00
C146   C     0.51042   0.34395   0.90778   0.00000  Uiso   1.00
C147   C     0.55719   0.44047   0.93409   0.00000  Uiso   1.00
C148   C     0.37475   0.15271   0.95301   0.00000  Uiso   1.00
C149   C     0.44891   0.10492   0.97347   0.00000  Uiso   1.00
C150   C     0.42315   0.07968   0.04033   0.00000  Uiso   1.00
C151   C     0.41940   0.02323   0.14334   0.00000  Uiso   1.00
C152   C     0.20905   0.22709   0.96468   0.00000  Uiso   1.00
C153   C     0.15972   0.20620   0.89147   0.00000  Uiso   1.00
C154   C     0.03411   0.20766   0.86892   0.00000  Uiso   1.00
C155   C     0.00836   0.18651   0.79996   0.00000  Uiso   1.00
C156   C     0.31085   0.27304   0.94836   0.00000  Uiso   1.00
C157   C     0.31232   0.33069   0.97366   0.00000  Uiso   1.00
C158   C     0.41379   0.36581   0.95261   0.00000  Uiso   1.00
C159   C     0.27829   0.17452   0.99776   0.00000  Uiso   1.00
C160   C     0.25242   0.14935   0.06461   0.00000  Uiso   1.00
C161   C     0.32652   0.10154   0.08516   0.00000  Uiso   1.00
H162   H     0.46174   0.16995   0.84746   0.00000  Uiso   1.00
H163   H     0.30527   0.14635   0.74316   0.00000  Uiso   1.00
H164   H     0.58344   0.26936   0.84790   0.00000  Uiso   1.00
H165   H     0.52355   0.08805   0.93883   0.00000  Uiso   1.00
H166   H     0.08927   0.12983   0.64725   0.00000  Uiso   1.00
H167   H     0.67581   0.38920   0.86810   0.00000  Uiso   1.00
H168   H     0.54954   0.00687   0.05985   0.00000  Uiso   1.00
H169   H     0.13395   0.24407   0.99952   0.00000  Uiso   1.00
H170   H     0.95949   0.22455   0.90356   0.00000  Uiso   1.00
H171   H     0.23766   0.34756   0.00829   0.00000  Uiso   1.00
H172   H     0.17777   0.16625   0.09922   0.00000  Uiso   1.00
H173   H     0.80862   0.19330   0.77744   0.00000  Uiso   1.00
H174   H     0.39517   0.45267   0.99829   0.00000  Uiso   1.00
H175   H     0.26889   0.07034   0.19003   0.00000  Uiso   1.00
O176   O     0.84009   0.14740   0.64647   0.00000  Uiso   1.00
O177   O     0.60964   0.48768   0.93623   0.00000  Uiso   1.00
O178   O     0.44396   0.98607   0.18779   0.00000  Uiso   1.00
N179   N     0.04715   0.14744   0.69107   0.00000  Uiso   1.00
N180   N     0.59553   0.38994   0.89754   0.00000  Uiso   1.00
N181   N     0.47750   0.03250   0.07681   0.00000  Uiso   1.00
N182   N     0.89614   0.18159   0.76112   0.00000  Uiso   1.00
N183   N     0.44452   0.42409   0.96759   0.00000  Uiso   1.00
N184   N     0.32648   0.06665   0.14686   0.00000  Uiso   1.00
C185   C     0.61336   0.68693   0.38230   0.00000  Uiso   1.00
C186   C     0.74383   0.68438   0.34672   0.00000  Uiso   1.00
C187   C     0.76940   0.66323   0.27778   0.00000  Uiso   1.00
C188   C     0.89501   0.66466   0.25514   0.00000  Uiso   1.00
C189   C     0.08291   0.65742   0.19307   0.00000  Uiso   1.00
C190   C     0.59270   0.75122   0.40361   0.00000  Uiso   1.00
C191   C     0.49120   0.78626   0.38252   0.00000  Uiso   1.00
C192   C     0.48958   0.84395   0.40778   0.00000  Uiso   1.00
C193   C     0.44281   0.94047   0.43409   0.00000  Uiso   1.00
C194   C     0.62525   0.65271   0.45301   0.00000  Uiso   1.00
C195   C     0.55109   0.60492   0.47347   0.00000  Uiso   1.00
C196   C     0.57685   0.57968   0.54033   0.00000  Uiso   1.00
C197   C     0.58060   0.52323   0.64334   0.00000  Uiso   1.00
C198   C     0.79095   0.72709   0.46468   0.00000  Uiso   1.00
C199   C     0.84028   0.70620   0.39147   0.00000  Uiso   1.00
C200   C     0.96589   0.70766   0.36892   0.00000  Uiso   1.00
C201   C     0.99164   0.68651   0.29996   0.00000  Uiso   1.00
C202   C     0.68915   0.77304   0.44836   0.00000  Uiso   1.00
C203   C     0.68768   0.83069   0.47366   0.00000  Uiso   1.00
C204   C     0.58621   0.86581   0.45261   0.00000  Uiso   1.00
C205   C     0.72171   0.67452   0.49776   0.00000  Uiso   1.00
C206   C     0.74758   0.64935   0.56461   0.00000  Uiso   1.00
C207   C     0.67348   0.60154   0.58516   0.00000  Uiso   1.00
H208   H     0.53826   0.66995   0.34746   0.00000  Uiso   1.00
H209   H     0.69473   0.64635   0.24316   0.00000  Uiso   1.00
H210   H     0.41656   0.76936   0.34790   0.00000  Uiso   1.00
H211   H     0.47645   0.58805   0.43883   0.00000  Uiso   1.00
H212   H     0.91073   0.62983   0.14725   0.00000  Uiso   1.00
H213   H     0.32419   0.88920   0.36810   0.00000  Uiso   1.00
H214   H     0.45046   0.50687   0.55985   0.00000  Uiso   1.00
H215   H     0.86605   0.74407   0.49952   0.00000  Uiso   1.00
H216   H     0.04051   0.72455   0.40356   0.00000  Uiso   1.00
H217   H     0.76234   0.84756   0.50829   0.00000  Uiso   1.00
H218   H     0.82223   0.66625   0.59922   0.00000  Uiso   1.00
H219   H     0.19138   0.69330   0.27744   0.00000  Uiso   1.00
H220   H     0.60483   0.95267   0.49829   0.00000  Uiso   1.00
H221   H     0.73111   0.57034   0.69003   0.00000  Uiso   1.00
O222   O     0.15991   0.64740   0.14647   0.00000  Uiso   1.00
O223   O     0.39036   0.98768   0.43623   0.00000  Uiso   1.00
O224   O     0.55604   0.48607   0.68779   0.00000  Uiso   1.00
N225   N     0.95285   0.64744   0.19107   0.00000  Uiso   1.00
N226   N     0.40447   0.88994   0.39754   0.00000  Uiso   1.00
N227   N     0.52250   0.53250   0.57681   0.00000  Uiso   1.00
N228   N     0.10386   0.68159   0.26112   0.00000  Uiso   1.00
N229   N     0.55548   0.92409   0.46759   0.00000  Uiso   1.00
N230   N     0.67352   0.56665   0.64686   0.00000  Uiso   1.00
C231   C     0.88664   0.31307   0.38230   0.00000  Uiso   1.00
C232   C     0.75617   0.31562   0.34672   0.00000  Uiso   1.00
C233   C     0.73060   0.33677   0.27778   0.00000  Uiso   1.00
C234   C     0.60499   0.33534   0.25514   0.00000  Uiso   1.00
C235   C     0.41709   0.34258   0.19307   0.00000  Uiso   1.00
C236   C     0.90730   0.24878   0.40361   0.00000  Uiso   1.00
C237   C     0.00880   0.21374   0.38252   0.00000  Uiso   1.00
C238   C     0.01042   0.15605   0.40778   0.00000  Uiso   1.00
C239   C     0.05719   0.05953   0.43409   0.00000  Uiso   1.00
C240   C     0.87475   0.34729   0.45301   0.00000  Uiso   1.00
C241   C     0.94891   0.39508   0.47347   0.00000  Uiso   1.00
C242   C     0.92315   0.42032   0.54033   0.00000  Uiso   1.00
C243   C     0.91940   0.47677   0.64334   0.00000  Uiso   1.00
C244   C     0.70905   0.27291   0.46468   0.00000  Uiso   1.00
C245   C     0.65972   0.29380   0.39147   0.00000  Uiso   1.00
C246   C     0.53411   0.29234   0.36892   0.00000  Uiso   1.00
C247   C     0.50836   0.31349   0.29996   0.00000  Uiso   1.00
C248   C     0.81085   0.22696   0.44836   0.00000  Uiso   1.00
C249   C     0.81232   0.16931   0.47366   0.00000  Uiso   1.00
C250   C     0.91379   0.13419   0.45261   0.00000  Uiso   1.00
C251   C     0.77829   0.32548   0.49776   0.00000  Uiso   1.00
C252   C     0.75242   0.35065   0.56461   0.00000  Uiso   1.00
C253   C     0.82652   0.39846   0.58516   0.00000  Uiso   1.00
H254   H     0.96174   0.33005   0.34746   0.00000  Uiso   1.00
H255   H     0.80527   0.35365   0.24316   0.00000  Uiso   1.00
H256   H     0.08344   0.23064   0.34790   0.00000  Uiso   1.00
H257   H     0.02355   0.41195   0.43883   0.00000  Uiso   1.00
H258   H     0.58927   0.37017   0.14725   0.00000  Uiso   1.00
H259   H     0.17581   0.11080   0.36810   0.00000  Uiso   1.00
H260   H     0.04954   0.49313   0.55985   0.00000  Uiso   1.00
H261   H     0.63395   0.25593   0.49952   0.00000  Uiso   1.00
H262   H     0.45949   0.27545   0.40356   0.00000  Uiso   1.00
H263   H     0.73766   0.15244   0.50829   0.00000  Uiso   1.00
H264   H     0.67777   0.33375   0.59922   0.00000  Uiso   1.00
H265   H     0.30862   0.30670   0.27744   0.00000  Uiso   1.00
H266   H     0.89517   0.04733   0.49829   0.00000  Uiso   1.00
H267   H     0.76889   0.42966   0.69003   0.00000  Uiso   1.00
O268   O     0.34009   0.35260   0.14647   0.00000  Uiso   1.00
O269   O     0.10964   0.01232   0.43623   0.00000  Uiso   1.00
O270   O     0.94396   0.51393   0.68779   0.00000  Uiso   1.00
N271   N     0.54715   0.35256   0.19107   0.00000  Uiso   1.00
N272   N     0.09553   0.11006   0.39754   0.00000  Uiso   1.00
N273   N     0.97750   0.46750   0.57681   0.00000  Uiso   1.00
N274   N     0.39614   0.31841   0.26112   0.00000  Uiso   1.00
N275   N     0.94452   0.07591   0.46759   0.00000  Uiso   1.00
N276   N     0.82648   0.43335   0.64686   0.00000  Uiso   1.00
C277   C     0.88664   0.18693   0.11770   0.00000  Uiso   1.00
C278   C     0.75617   0.18438   0.15328   0.00000  Uiso   1.00
C279   C     0.73060   0.16323   0.22222   0.00000  Uiso   1.00
C280   C     0.60499   0.16466   0.24486   0.00000  Uiso   1.00
C281   C     0.41709   0.15742   0.30693   0.00000  Uiso   1.00
C282   C     0.90730   0.25122   0.09639   0.00000  Uiso   1.00
C283   C     0.00880   0.28626   0.11748   0.00000  Uiso   1.00
C284   C     0.01042   0.34395   0.09222   0.00000  Uiso   1.00
C285   C     0.05719   0.44047   0.06591   0.00000  Uiso   1.00
C286   C     0.87475   0.15271   0.04699   0.00000  Uiso   1.00
C287   C     0.94891   0.10492   0.02653   0.00000  Uiso   1.00
C288   C     0.92315   0.07968   0.95967   0.00000  Uiso   1.00
C289   C     0.91940   0.02323   0.85666   0.00000  Uiso   1.00
C290   C     0.70905   0.22709   0.03532   0.00000  Uiso   1.00
C291   C     0.65972   0.20620   0.10853   0.00000  Uiso   1.00
C292   C     0.53411   0.20766   0.13108   0.00000  Uiso   1.00
C293   C     0.50836   0.18651   0.20004   0.00000  Uiso   1.00
C294   C     0.81085   0.27304   0.05164   0.00000  Uiso   1.00
C295   C     0.81232   0.33069   0.02634   0.00000  Uiso   1.00
C296   C     0.91379   0.36581   0.04739   0.00000  Uiso   1.00
C297   C     0.77829   0.17452   0.00224   0.00000  Uiso   1.00
C298   C     0.75242   0.14935   0.93539   0.00000  Uiso   1.00
C299   C     0.82652   0.10154   0.91484   0.00000  Uiso   1.00
H300   H     0.96174   0.16995   0.15254   0.00000  Uiso   1.00
H301   H     0.80527   0.14635   0.25684   0.00000  Uiso   1.00
H302   H     0.08344   0.26936   0.15210   0.00000  Uiso   1.00
H303   H     0.02355   0.08805   0.06117   0.00000  Uiso   1.00
H304   H     0.58927   0.12983   0.35275   0.00000  Uiso   1.00
H305   H     0.17581   0.38920   0.13190   0.00000  Uiso   1.00
H306   H     0.04954   0.00687   0.94015   0.00000  Uiso   1.00
H307   H     0.63395   0.24407   0.00048   0.00000  Uiso   1.00
H308   H     0.45949   0.22455   0.09644   0.00000  Uiso   1.00
H309   H     0.73766   0.34756   0.99171   0.00000  Uiso   1.00
H310   H     0.67777   0.16625   0.90078   0.00000  Uiso   1.00
H311   H     0.30862   0.19330   0.22256   0.00000  Uiso   1.00
H312   H     0.89517   0.45267   0.00171   0.00000  Uiso   1.00
H313   H     0.76889   0.07034   0.80997   0.00000  Uiso   1.00
O314   O     0.34009   0.14740   0.35353   0.00000  Uiso   1.00
O315   O     0.10964   0.48768   0.06377   0.00000  Uiso   1.00
O316   O     0.94396   0.98607   0.81221   0.00000  Uiso   1.00
N317   N     0.54715   0.14744   0.30893   0.00000  Uiso   1.00
N318   N     0.09553   0.38994   0.10246   0.00000  Uiso   1.00
N319   N     0.97750   0.03250   0.92319   0.00000  Uiso   1.00
N320   N     0.39614   0.18159   0.23888   0.00000  Uiso   1.00
N321   N     0.94452   0.42409   0.03241   0.00000  Uiso   1.00
N322   N     0.82648   0.06665   0.85314   0.00000  Uiso   1.00
C323   C     0.61336   0.81307   0.11770   0.00000  Uiso   1.00
C324   C     0.74383   0.81562   0.15328   0.00000  Uiso   1.00
C325   C     0.76940   0.83677   0.22222   0.00000  Uiso   1.00
C326   C     0.89501   0.83534   0.24486   0.00000  Uiso   1.00
C327   C     0.08291   0.84258   0.30693   0.00000  Uiso   1.00
C328   C     0.59270   0.74878   0.09639   0.00000  Uiso   1.00
C329   C     0.49120   0.71374   0.11748   0.00000  Uiso   1.00
C330   C     0.48958   0.65605   0.09222   0.00000  Uiso   1.00
C331   C     0.44281   0.55953   0.06591   0.00000  Uiso   1.00
C332   C     0.62525   0.84729   0.04699   0.00000  Uiso   1.00
C333   C     0.55109   0.89508   0.02653   0.00000  Uiso   1.00
C334   C     0.57685   0.92032   0.95967   0.00000  Uiso   1.00
C335   C     0.58060   0.97677   0.85666   0.00000  Uiso   1.00
C336   C     0.79095   0.77291   0.03532   0.00000  Uiso   1.00
C337   C     0.84028   0.79380   0.10853   0.00000  Uiso   1.00
C338   C     0.96589   0.79234   0.13108   0.00000  Uiso   1.00
C339   C     0.99164   0.81349   0.20004   0.00000  Uiso   1.00
C340   C     0.68915   0.72696   0.05164   0.00000  Uiso   1.00
C341   C     0.68768   0.66931   0.02634   0.00000  Uiso   1.00
C342   C     0.58621   0.63419   0.04739   0.00000  Uiso   1.00
C343   C     0.72171   0.82548   0.00224   0.00000  Uiso   1.00
C344   C     0.74758   0.85065   0.93539   0.00000  Uiso   1.00
C345   C     0.67348   0.89846   0.91484   0.00000  Uiso   1.00
H346   H     0.53826   0.83005   0.15254   0.00000  Uiso   1.00
H347   H     0.69473   0.85365   0.25684   0.00000  Uiso   1.00
H348   H     0.41656   0.73064   0.15210   0.00000  Uiso   1.00
H349   H     0.47645   0.91195   0.06117   0.00000  Uiso   1.00
H350   H     0.91073   0.87017   0.35275   0.00000  Uiso   1.00
H351   H     0.32419   0.61080   0.13190   0.00000  Uiso   1.00
H352   H     0.45046   0.99313   0.94015   0.00000  Uiso   1.00
H353   H     0.86605   0.75593   0.00048   0.00000  Uiso   1.00
H354   H     0.04051   0.77545   0.09644   0.00000  Uiso   1.00
H355   H     0.76234   0.65244   0.99171   0.00000  Uiso   1.00
H356   H     0.82223   0.83375   0.90078   0.00000  Uiso   1.00
H357   H     0.19138   0.80670   0.22256   0.00000  Uiso   1.00
H358   H     0.60483   0.54733   0.00171   0.00000  Uiso   1.00
H359   H     0.73111   0.92966   0.80997   0.00000  Uiso   1.00
O360   O     0.15991   0.85260   0.35353   0.00000  Uiso   1.00
O361   O     0.39036   0.51232   0.06377   0.00000  Uiso   1.00
O362   O     0.55604   0.01393   0.81221   0.00000  Uiso   1.00
N363   N     0.95285   0.85256   0.30893   0.00000  Uiso   1.00
N364   N     0.40447   0.61006   0.10246   0.00000  Uiso   1.00
N365   N     0.52250   0.96750   0.92319   0.00000  Uiso   1.00
N366   N     0.10386   0.81841   0.23888   0.00000  Uiso   1.00
N367   N     0.55548   0.57591   0.03241   0.00000  Uiso   1.00
N368   N     0.67352   0.93335   0.85314   0.00000  Uiso   1.00
