data_job_01531
_audit_creation_date              2018-12-19
_audit_creation_method            'Materials Studio'
_symmetry_space_group_name_H-M    'P1'
_symmetry_Int_Tables_number       1
_symmetry_cell_setting            triclinic
loop_
_symmetry_equiv_pos_as_xyz
  x,y,z
_cell_length_a                    40.3343
_cell_length_b                    14.8097
_cell_length_c                    9.6560
_cell_angle_alpha                 90.0000
_cell_angle_beta                  86.2198
_cell_angle_gamma                 90.0000
loop_
_atom_site_label
_atom_site_type_symbol
_atom_site_fract_x
_atom_site_fract_y
_atom_site_fract_z
_atom_site_U_iso_or_equiv
_atom_site_adp_type
_atom_site_occupancy
C1     C     0.66599   0.23183   0.85297   0.00000  Uiso   1.00
C2     C     0.63295   0.18483   0.83429   0.00000  Uiso   1.00
C3     C     0.62349   0.14524   0.71274   0.00000  Uiso   1.00
C4     C     0.59223   0.10570   0.71685   0.00000  Uiso   1.00
C5     C     0.54410   0.03275   0.66938   0.00000  Uiso   1.00
C6     C     0.65732   0.32684   0.90434   0.00000  Uiso   1.00
C7     C     0.66837   0.40666   0.84168   0.00000  Uiso   1.00
C8     C     0.65763   0.48667   0.90477   0.00000  Uiso   1.00
C9     C     0.64738   0.63419   0.96609   0.00000  Uiso   1.00
C10    C     0.68119   0.18394   0.97341   0.00000  Uiso   1.00
C11    C     0.71230   0.14362   0.96884   0.00000  Uiso   1.00
C12    C     0.72167   0.10333   0.09010   0.00000  Uiso   1.00
C13    C     0.74847   0.02897   0.25866   0.00000  Uiso   1.00
C14    C     0.62730   0.23199   0.07643   0.00000  Uiso   1.00
C15    C     0.61193   0.18492   0.95567   0.00000  Uiso   1.00
C16    C     0.58068   0.14543   0.95997   0.00000  Uiso   1.00
C17    C     0.57117   0.10579   0.83845   0.00000  Uiso   1.00
C18    C     0.63631   0.32694   0.02571   0.00000  Uiso   1.00
C19    C     0.62556   0.40684   0.08891   0.00000  Uiso   1.00
C20    C     0.63658   0.48676   0.02637   0.00000  Uiso   1.00
C21    C     0.66017   0.18403   0.09478   0.00000  Uiso   1.00
C22    C     0.66949   0.14380   0.21607   0.00000  Uiso   1.00
C23    C     0.70061   0.10342   0.21170   0.00000  Uiso   1.00
H24    H     0.68236   0.23176   0.75847   0.00000  Uiso   1.00
H25    H     0.63976   0.14520   0.61883   0.00000  Uiso   1.00
H26    H     0.68463   0.40657   0.74776   0.00000  Uiso   1.00
H27    H     0.72856   0.14356   0.87490   0.00000  Uiso   1.00
H28    H     0.58326   0.04929   0.51752   0.00000  Uiso   1.00
H29    H     0.67789   0.60040   0.78940   0.00000  Uiso   1.00
H30    H     0.77052   0.04581   0.05750   0.00000  Uiso   1.00
H31    H     0.61094   0.23207   0.17093   0.00000  Uiso   1.00
H32    H     0.56442   0.14551   0.05392   0.00000  Uiso   1.00
H33    H     0.60929   0.40689   0.18285   0.00000  Uiso   1.00
H34    H     0.65322   0.14388   0.30998   0.00000  Uiso   1.00
H35    H     0.52211   0.04954   0.87065   0.00000  Uiso   1.00
H36    H     0.61674   0.60067   0.14254   0.00000  Uiso   1.00
H37    H     0.70937   0.04607   0.41063   0.00000  Uiso   1.00
O38    O     0.52336   0.99249   0.60965   0.00000  Uiso   1.00
O39    O     0.64752   0.71554   0.96637   0.00000  Uiso   1.00
O40    O     0.76905   0.98792   0.31810   0.00000  Uiso   1.00
N41    N     0.57525   0.06121   0.61669   0.00000  Uiso   1.00
N42    N     0.66372   0.57647   0.87088   0.00000  Uiso   1.00
N43    N     0.75033   0.05799   0.12154   0.00000  Uiso   1.00
N44    N     0.54235   0.06135   0.80671   0.00000  Uiso   1.00
N45    N     0.63082   0.57661   0.06089   0.00000  Uiso   1.00
N46    N     0.71742   0.05813   0.31155   0.00000  Uiso   1.00
C47    C     0.16599   0.73183   0.85297   0.00000  Uiso   1.00
C48    C     0.13295   0.68483   0.83429   0.00000  Uiso   1.00
C49    C     0.12349   0.64524   0.71274   0.00000  Uiso   1.00
C50    C     0.09223   0.60570   0.71685   0.00000  Uiso   1.00
C51    C     0.04410   0.53275   0.66938   0.00000  Uiso   1.00
C52    C     0.15732   0.82684   0.90434   0.00000  Uiso   1.00
C53    C     0.16837   0.90666   0.84168   0.00000  Uiso   1.00
C54    C     0.15763   0.98667   0.90477   0.00000  Uiso   1.00
C55    C     0.14738   0.13419   0.96609   0.00000  Uiso   1.00
C56    C     0.18119   0.68394   0.97341   0.00000  Uiso   1.00
C57    C     0.21230   0.64362   0.96884   0.00000  Uiso   1.00
C58    C     0.22167   0.60333   0.09010   0.00000  Uiso   1.00
C59    C     0.24847   0.52897   0.25866   0.00000  Uiso   1.00
C60    C     0.12730   0.73199   0.07643   0.00000  Uiso   1.00
C61    C     0.11193   0.68492   0.95567   0.00000  Uiso   1.00
C62    C     0.08068   0.64543   0.95997   0.00000  Uiso   1.00
C63    C     0.07117   0.60579   0.83845   0.00000  Uiso   1.00
C64    C     0.13631   0.82694   0.02571   0.00000  Uiso   1.00
C65    C     0.12556   0.90684   0.08891   0.00000  Uiso   1.00
C66    C     0.13658   0.98676   0.02637   0.00000  Uiso   1.00
C67    C     0.16017   0.68403   0.09478   0.00000  Uiso   1.00
C68    C     0.16949   0.64380   0.21607   0.00000  Uiso   1.00
C69    C     0.20061   0.60342   0.21170   0.00000  Uiso   1.00
H70    H     0.18236   0.73176   0.75847   0.00000  Uiso   1.00
H71    H     0.13976   0.64520   0.61883   0.00000  Uiso   1.00
H72    H     0.18463   0.90657   0.74776   0.00000  Uiso   1.00
H73    H     0.22856   0.64356   0.87490   0.00000  Uiso   1.00
H74    H     0.08326   0.54929   0.51752   0.00000  Uiso   1.00
H75    H     0.17789   0.10040   0.78940   0.00000  Uiso   1.00
H76    H     0.27052   0.54581   0.05750   0.00000  Uiso   1.00
H77    H     0.11094   0.73207   0.17093   0.00000  Uiso   1.00
H78    H     0.06442   0.64551   0.05392   0.00000  Uiso   1.00
H79    H     0.10929   0.90689   0.18285   0.00000  Uiso   1.00
H80    H     0.15322   0.64388   0.30998   0.00000  Uiso   1.00
H81    H     0.02211   0.54954   0.87065   0.00000  Uiso   1.00
H82    H     0.11674   0.10067   0.14254   0.00000  Uiso   1.00
H83    H     0.20937   0.54607   0.41063   0.00000  Uiso   1.00
O84    O     0.02336   0.49249   0.60965   0.00000  Uiso   1.00
O85    O     0.14752   0.21554   0.96637   0.00000  Uiso   1.00
O86    O     0.26905   0.48792   0.31810   0.00000  Uiso   1.00
N87    N     0.07525   0.56121   0.61669   0.00000  Uiso   1.00
N88    N     0.16372   0.07647   0.87088   0.00000  Uiso   1.00
N89    N     0.25033   0.55799   0.12154   0.00000  Uiso   1.00
N90    N     0.04235   0.56135   0.80671   0.00000  Uiso   1.00
N91    N     0.13082   0.07661   0.06089   0.00000  Uiso   1.00
N92    N     0.21742   0.55813   0.31155   0.00000  Uiso   1.00
C93    C     0.33401   0.23183   0.64703   0.00000  Uiso   1.00
C94    C     0.36705   0.18483   0.66571   0.00000  Uiso   1.00
C95    C     0.37651   0.14524   0.78726   0.00000  Uiso   1.00
C96    C     0.40777   0.10570   0.78315   0.00000  Uiso   1.00
C97    C     0.45590   0.03275   0.83062   0.00000  Uiso   1.00
C98    C     0.34268   0.32684   0.59566   0.00000  Uiso   1.00
C99    C     0.33163   0.40666   0.65832   0.00000  Uiso   1.00
C100   C     0.34237   0.48667   0.59523   0.00000  Uiso   1.00
C101   C     0.35262   0.63419   0.53391   0.00000  Uiso   1.00
C102   C     0.31881   0.18394   0.52659   0.00000  Uiso   1.00
C103   C     0.28770   0.14362   0.53116   0.00000  Uiso   1.00
C104   C     0.27833   0.10333   0.40990   0.00000  Uiso   1.00
C105   C     0.25153   0.02897   0.24134   0.00000  Uiso   1.00
C106   C     0.37270   0.23199   0.42357   0.00000  Uiso   1.00
C107   C     0.38807   0.18492   0.54433   0.00000  Uiso   1.00
C108   C     0.41932   0.14543   0.54003   0.00000  Uiso   1.00
C109   C     0.42883   0.10579   0.66155   0.00000  Uiso   1.00
C110   C     0.36369   0.32694   0.47429   0.00000  Uiso   1.00
C111   C     0.37444   0.40684   0.41109   0.00000  Uiso   1.00
C112   C     0.36342   0.48676   0.47363   0.00000  Uiso   1.00
C113   C     0.33983   0.18403   0.40522   0.00000  Uiso   1.00
C114   C     0.33051   0.14380   0.28393   0.00000  Uiso   1.00
C115   C     0.29939   0.10342   0.28830   0.00000  Uiso   1.00
H116   H     0.31764   0.23176   0.74153   0.00000  Uiso   1.00
H117   H     0.36024   0.14520   0.88117   0.00000  Uiso   1.00
H118   H     0.31537   0.40657   0.75224   0.00000  Uiso   1.00
H119   H     0.27144   0.14356   0.62510   0.00000  Uiso   1.00
H120   H     0.41674   0.04929   0.98248   0.00000  Uiso   1.00
H121   H     0.32211   0.60040   0.71060   0.00000  Uiso   1.00
H122   H     0.22948   0.04581   0.44250   0.00000  Uiso   1.00
H123   H     0.38906   0.23207   0.32907   0.00000  Uiso   1.00
H124   H     0.43558   0.14551   0.44608   0.00000  Uiso   1.00
H125   H     0.39071   0.40689   0.31715   0.00000  Uiso   1.00
H126   H     0.34678   0.14388   0.19002   0.00000  Uiso   1.00
H127   H     0.47789   0.04954   0.62935   0.00000  Uiso   1.00
H128   H     0.38326   0.60067   0.35746   0.00000  Uiso   1.00
H129   H     0.29063   0.04607   0.08937   0.00000  Uiso   1.00
O130   O     0.47664   0.99249   0.89035   0.00000  Uiso   1.00
O131   O     0.35248   0.71554   0.53363   0.00000  Uiso   1.00
O132   O     0.23095   0.98792   0.18190   0.00000  Uiso   1.00
N133   N     0.42475   0.06121   0.88331   0.00000  Uiso   1.00
N134   N     0.33628   0.57647   0.62912   0.00000  Uiso   1.00
N135   N     0.24967   0.05799   0.37846   0.00000  Uiso   1.00
N136   N     0.45765   0.06135   0.69329   0.00000  Uiso   1.00
N137   N     0.36918   0.57661   0.43911   0.00000  Uiso   1.00
N138   N     0.28258   0.05813   0.18845   0.00000  Uiso   1.00
C139   C     0.83401   0.73183   0.64703   0.00000  Uiso   1.00
C140   C     0.86705   0.68483   0.66571   0.00000  Uiso   1.00
C141   C     0.87651   0.64524   0.78726   0.00000  Uiso   1.00
C142   C     0.90777   0.60570   0.78315   0.00000  Uiso   1.00
C143   C     0.95590   0.53275   0.83062   0.00000  Uiso   1.00
C144   C     0.84268   0.82684   0.59566   0.00000  Uiso   1.00
C145   C     0.83163   0.90666   0.65832   0.00000  Uiso   1.00
C146   C     0.84237   0.98667   0.59523   0.00000  Uiso   1.00
C147   C     0.85262   0.13419   0.53391   0.00000  Uiso   1.00
C148   C     0.81881   0.68394   0.52659   0.00000  Uiso   1.00
C149   C     0.78770   0.64362   0.53116   0.00000  Uiso   1.00
C150   C     0.77833   0.60333   0.40990   0.00000  Uiso   1.00
C151   C     0.75153   0.52897   0.24134   0.00000  Uiso   1.00
C152   C     0.87270   0.73199   0.42357   0.00000  Uiso   1.00
C153   C     0.88807   0.68492   0.54433   0.00000  Uiso   1.00
C154   C     0.91932   0.64543   0.54003   0.00000  Uiso   1.00
C155   C     0.92883   0.60579   0.66155   0.00000  Uiso   1.00
C156   C     0.86369   0.82694   0.47429   0.00000  Uiso   1.00
C157   C     0.87444   0.90684   0.41109   0.00000  Uiso   1.00
C158   C     0.86342   0.98676   0.47363   0.00000  Uiso   1.00
C159   C     0.83983   0.68403   0.40522   0.00000  Uiso   1.00
C160   C     0.83051   0.64380   0.28393   0.00000  Uiso   1.00
C161   C     0.79939   0.60342   0.28830   0.00000  Uiso   1.00
H162   H     0.81764   0.73176   0.74153   0.00000  Uiso   1.00
H163   H     0.86024   0.64520   0.88117   0.00000  Uiso   1.00
H164   H     0.81537   0.90657   0.75224   0.00000  Uiso   1.00
H165   H     0.77144   0.64356   0.62510   0.00000  Uiso   1.00
H166   H     0.91674   0.54929   0.98248   0.00000  Uiso   1.00
H167   H     0.82211   0.10040   0.71060   0.00000  Uiso   1.00
H168   H     0.72948   0.54581   0.44250   0.00000  Uiso   1.00
H169   H     0.88906   0.73207   0.32907   0.00000  Uiso   1.00
H170   H     0.93558   0.64551   0.44608   0.00000  Uiso   1.00
H171   H     0.89071   0.90689   0.31715   0.00000  Uiso   1.00
H172   H     0.84678   0.64388   0.19002   0.00000  Uiso   1.00
H173   H     0.97789   0.54954   0.62935   0.00000  Uiso   1.00
H174   H     0.88326   0.10067   0.35746   0.00000  Uiso   1.00
H175   H     0.79063   0.54607   0.08937   0.00000  Uiso   1.00
O176   O     0.97664   0.49249   0.89035   0.00000  Uiso   1.00
O177   O     0.85248   0.21554   0.53363   0.00000  Uiso   1.00
O178   O     0.73095   0.48792   0.18190   0.00000  Uiso   1.00
N179   N     0.92475   0.56121   0.88331   0.00000  Uiso   1.00
N180   N     0.83628   0.07647   0.62912   0.00000  Uiso   1.00
N181   N     0.74967   0.55799   0.37846   0.00000  Uiso   1.00
N182   N     0.95765   0.56135   0.69329   0.00000  Uiso   1.00
N183   N     0.86918   0.07661   0.43911   0.00000  Uiso   1.00
N184   N     0.78258   0.55813   0.18845   0.00000  Uiso   1.00
C185   C     0.33401   0.76817   0.14703   0.00000  Uiso   1.00
C186   C     0.36705   0.81517   0.16571   0.00000  Uiso   1.00
C187   C     0.37651   0.85476   0.28726   0.00000  Uiso   1.00
C188   C     0.40777   0.89430   0.28315   0.00000  Uiso   1.00
C189   C     0.45590   0.96725   0.33062   0.00000  Uiso   1.00
C190   C     0.34268   0.67316   0.09566   0.00000  Uiso   1.00
C191   C     0.33163   0.59334   0.15832   0.00000  Uiso   1.00
C192   C     0.34237   0.51333   0.09523   0.00000  Uiso   1.00
C193   C     0.35262   0.36581   0.03391   0.00000  Uiso   1.00
C194   C     0.31881   0.81606   0.02659   0.00000  Uiso   1.00
C195   C     0.28770   0.85638   0.03116   0.00000  Uiso   1.00
C196   C     0.27833   0.89667   0.90990   0.00000  Uiso   1.00
C197   C     0.25153   0.97103   0.74134   0.00000  Uiso   1.00
C198   C     0.37270   0.76801   0.92357   0.00000  Uiso   1.00
C199   C     0.38807   0.81508   0.04433   0.00000  Uiso   1.00
C200   C     0.41932   0.85457   0.04003   0.00000  Uiso   1.00
C201   C     0.42883   0.89421   0.16155   0.00000  Uiso   1.00
C202   C     0.36369   0.67306   0.97429   0.00000  Uiso   1.00
C203   C     0.37444   0.59316   0.91109   0.00000  Uiso   1.00
C204   C     0.36342   0.51324   0.97363   0.00000  Uiso   1.00
C205   C     0.33983   0.81597   0.90522   0.00000  Uiso   1.00
C206   C     0.33051   0.85620   0.78393   0.00000  Uiso   1.00
C207   C     0.29939   0.89658   0.78830   0.00000  Uiso   1.00
H208   H     0.31764   0.76824   0.24153   0.00000  Uiso   1.00
H209   H     0.36024   0.85480   0.38117   0.00000  Uiso   1.00
H210   H     0.31537   0.59343   0.25224   0.00000  Uiso   1.00
H211   H     0.27144   0.85644   0.12510   0.00000  Uiso   1.00
H212   H     0.41674   0.95071   0.48248   0.00000  Uiso   1.00
H213   H     0.32211   0.39960   0.21060   0.00000  Uiso   1.00
H214   H     0.22948   0.95419   0.94250   0.00000  Uiso   1.00
H215   H     0.38906   0.76793   0.82907   0.00000  Uiso   1.00
H216   H     0.43558   0.85449   0.94608   0.00000  Uiso   1.00
H217   H     0.39071   0.59311   0.81715   0.00000  Uiso   1.00
H218   H     0.34678   0.85612   0.69002   0.00000  Uiso   1.00
H219   H     0.47789   0.95046   0.12935   0.00000  Uiso   1.00
H220   H     0.38326   0.39933   0.85746   0.00000  Uiso   1.00
H221   H     0.29063   0.95393   0.58937   0.00000  Uiso   1.00
O222   O     0.47664   0.00751   0.39035   0.00000  Uiso   1.00
O223   O     0.35248   0.28446   0.03363   0.00000  Uiso   1.00
O224   O     0.23095   0.01208   0.68190   0.00000  Uiso   1.00
N225   N     0.42475   0.93879   0.38331   0.00000  Uiso   1.00
N226   N     0.33628   0.42353   0.12912   0.00000  Uiso   1.00
N227   N     0.24967   0.94201   0.87846   0.00000  Uiso   1.00
N228   N     0.45765   0.93865   0.19329   0.00000  Uiso   1.00
N229   N     0.36918   0.42339   0.93911   0.00000  Uiso   1.00
N230   N     0.28258   0.94187   0.68845   0.00000  Uiso   1.00
C231   C     0.83401   0.26817   0.14703   0.00000  Uiso   1.00
C232   C     0.86705   0.31517   0.16571   0.00000  Uiso   1.00
C233   C     0.87651   0.35476   0.28726   0.00000  Uiso   1.00
C234   C     0.90777   0.39430   0.28315   0.00000  Uiso   1.00
C235   C     0.95590   0.46725   0.33062   0.00000  Uiso   1.00
C236   C     0.84268   0.17316   0.09566   0.00000  Uiso   1.00
C237   C     0.83163   0.09334   0.15832   0.00000  Uiso   1.00
C238   C     0.84237   0.01333   0.09523   0.00000  Uiso   1.00
C239   C     0.85262   0.86581   0.03391   0.00000  Uiso   1.00
C240   C     0.81881   0.31606   0.02659   0.00000  Uiso   1.00
C241   C     0.78770   0.35638   0.03116   0.00000  Uiso   1.00
C242   C     0.77833   0.39667   0.90990   0.00000  Uiso   1.00
C243   C     0.75153   0.47103   0.74134   0.00000  Uiso   1.00
C244   C     0.87270   0.26801   0.92357   0.00000  Uiso   1.00
C245   C     0.88807   0.31508   0.04433   0.00000  Uiso   1.00
C246   C     0.91932   0.35457   0.04003   0.00000  Uiso   1.00
C247   C     0.92883   0.39421   0.16155   0.00000  Uiso   1.00
C248   C     0.86369   0.17306   0.97429   0.00000  Uiso   1.00
C249   C     0.87444   0.09316   0.91109   0.00000  Uiso   1.00
C250   C     0.86342   0.01324   0.97363   0.00000  Uiso   1.00
C251   C     0.83983   0.31597   0.90522   0.00000  Uiso   1.00
C252   C     0.83051   0.35620   0.78393   0.00000  Uiso   1.00
C253   C     0.79939   0.39658   0.78830   0.00000  Uiso   1.00
H254   H     0.81764   0.26824   0.24153   0.00000  Uiso   1.00
H255   H     0.86024   0.35480   0.38117   0.00000  Uiso   1.00
H256   H     0.81537   0.09343   0.25224   0.00000  Uiso   1.00
H257   H     0.77144   0.35644   0.12510   0.00000  Uiso   1.00
H258   H     0.91674   0.45071   0.48248   0.00000  Uiso   1.00
H259   H     0.82211   0.89960   0.21060   0.00000  Uiso   1.00
H260   H     0.72948   0.45419   0.94250   0.00000  Uiso   1.00
H261   H     0.88906   0.26793   0.82907   0.00000  Uiso   1.00
H262   H     0.93558   0.35449   0.94608   0.00000  Uiso   1.00
H263   H     0.89071   0.09311   0.81715   0.00000  Uiso   1.00
H264   H     0.84678   0.35612   0.69002   0.00000  Uiso   1.00
H265   H     0.97789   0.45046   0.12935   0.00000  Uiso   1.00
H266   H     0.88326   0.89933   0.85746   0.00000  Uiso   1.00
H267   H     0.79063   0.45393   0.58937   0.00000  Uiso   1.00
O268   O     0.97664   0.50751   0.39035   0.00000  Uiso   1.00
O269   O     0.85248   0.78446   0.03363   0.00000  Uiso   1.00
O270   O     0.73095   0.51208   0.68190   0.00000  Uiso   1.00
N271   N     0.92475   0.43879   0.38331   0.00000  Uiso   1.00
N272   N     0.83628   0.92353   0.12912   0.00000  Uiso   1.00
N273   N     0.74967   0.44201   0.87846   0.00000  Uiso   1.00
N274   N     0.95765   0.43865   0.19329   0.00000  Uiso   1.00
N275   N     0.86918   0.92339   0.93911   0.00000  Uiso   1.00
N276   N     0.78258   0.44187   0.68845   0.00000  Uiso   1.00
C277   C     0.66599   0.76817   0.35297   0.00000  Uiso   1.00
C278   C     0.63295   0.81517   0.33429   0.00000  Uiso   1.00
C279   C     0.62349   0.85476   0.21274   0.00000  Uiso   1.00
C280   C     0.59223   0.89430   0.21685   0.00000  Uiso   1.00
C281   C     0.54410   0.96725   0.16938   0.00000  Uiso   1.00
C282   C     0.65732   0.67316   0.40434   0.00000  Uiso   1.00
C283   C     0.66837   0.59334   0.34168   0.00000  Uiso   1.00
C284   C     0.65763   0.51333   0.40477   0.00000  Uiso   1.00
C285   C     0.64738   0.36581   0.46609   0.00000  Uiso   1.00
C286   C     0.68119   0.81606   0.47341   0.00000  Uiso   1.00
C287   C     0.71230   0.85638   0.46884   0.00000  Uiso   1.00
C288   C     0.72167   0.89667   0.59010   0.00000  Uiso   1.00
C289   C     0.74847   0.97103   0.75866   0.00000  Uiso   1.00
C290   C     0.62730   0.76801   0.57643   0.00000  Uiso   1.00
C291   C     0.61193   0.81508   0.45567   0.00000  Uiso   1.00
C292   C     0.58068   0.85457   0.45997   0.00000  Uiso   1.00
C293   C     0.57117   0.89421   0.33845   0.00000  Uiso   1.00
C294   C     0.63631   0.67306   0.52571   0.00000  Uiso   1.00
C295   C     0.62556   0.59316   0.58891   0.00000  Uiso   1.00
C296   C     0.63658   0.51324   0.52637   0.00000  Uiso   1.00
C297   C     0.66017   0.81597   0.59478   0.00000  Uiso   1.00
C298   C     0.66949   0.85620   0.71607   0.00000  Uiso   1.00
C299   C     0.70061   0.89658   0.71170   0.00000  Uiso   1.00
H300   H     0.68236   0.76824   0.25847   0.00000  Uiso   1.00
H301   H     0.63976   0.85480   0.11883   0.00000  Uiso   1.00
H302   H     0.68463   0.59343   0.24776   0.00000  Uiso   1.00
H303   H     0.72856   0.85644   0.37490   0.00000  Uiso   1.00
H304   H     0.58326   0.95071   0.01752   0.00000  Uiso   1.00
H305   H     0.67789   0.39960   0.28940   0.00000  Uiso   1.00
H306   H     0.77052   0.95419   0.55750   0.00000  Uiso   1.00
H307   H     0.61094   0.76793   0.67093   0.00000  Uiso   1.00
H308   H     0.56442   0.85449   0.55392   0.00000  Uiso   1.00
H309   H     0.60929   0.59311   0.68285   0.00000  Uiso   1.00
H310   H     0.65322   0.85612   0.80998   0.00000  Uiso   1.00
H311   H     0.52211   0.95046   0.37065   0.00000  Uiso   1.00
H312   H     0.61674   0.39933   0.64254   0.00000  Uiso   1.00
H313   H     0.70937   0.95393   0.91063   0.00000  Uiso   1.00
O314   O     0.52336   0.00751   0.10965   0.00000  Uiso   1.00
O315   O     0.64752   0.28446   0.46637   0.00000  Uiso   1.00
O316   O     0.76905   0.01208   0.81810   0.00000  Uiso   1.00
N317   N     0.57525   0.93879   0.11669   0.00000  Uiso   1.00
N318   N     0.66372   0.42353   0.37088   0.00000  Uiso   1.00
N319   N     0.75033   0.94201   0.62154   0.00000  Uiso   1.00
N320   N     0.54235   0.93865   0.30671   0.00000  Uiso   1.00
N321   N     0.63082   0.42339   0.56089   0.00000  Uiso   1.00
N322   N     0.71742   0.94187   0.81155   0.00000  Uiso   1.00
C323   C     0.16599   0.26817   0.35297   0.00000  Uiso   1.00
C324   C     0.13295   0.31517   0.33429   0.00000  Uiso   1.00
C325   C     0.12349   0.35476   0.21274   0.00000  Uiso   1.00
C326   C     0.09223   0.39430   0.21685   0.00000  Uiso   1.00
C327   C     0.04410   0.46725   0.16938   0.00000  Uiso   1.00
C328   C     0.15732   0.17316   0.40434   0.00000  Uiso   1.00
C329   C     0.16837   0.09334   0.34168   0.00000  Uiso   1.00
C330   C     0.15763   0.01333   0.40477   0.00000  Uiso   1.00
C331   C     0.14738   0.86581   0.46609   0.00000  Uiso   1.00
C332   C     0.18119   0.31606   0.47341   0.00000  Uiso   1.00
C333   C     0.21230   0.35638   0.46884   0.00000  Uiso   1.00
C334   C     0.22167   0.39667   0.59010   0.00000  Uiso   1.00
C335   C     0.24847   0.47103   0.75866   0.00000  Uiso   1.00
C336   C     0.12730   0.26801   0.57643   0.00000  Uiso   1.00
C337   C     0.11193   0.31508   0.45567   0.00000  Uiso   1.00
C338   C     0.08068   0.35457   0.45997   0.00000  Uiso   1.00
C339   C     0.07117   0.39421   0.33845   0.00000  Uiso   1.00
C340   C     0.13631   0.17306   0.52571   0.00000  Uiso   1.00
C341   C     0.12556   0.09316   0.58891   0.00000  Uiso   1.00
C342   C     0.13658   0.01324   0.52637   0.00000  Uiso   1.00
C343   C     0.16017   0.31597   0.59478   0.00000  Uiso   1.00
C344   C     0.16949   0.35620   0.71607   0.00000  Uiso   1.00
C345   C     0.20061   0.39658   0.71170   0.00000  Uiso   1.00
H346   H     0.18236   0.26824   0.25847   0.00000  Uiso   1.00
H347   H     0.13976   0.35480   0.11883   0.00000  Uiso   1.00
H348   H     0.18463   0.09343   0.24776   0.00000  Uiso   1.00
H349   H     0.22856   0.35644   0.37490   0.00000  Uiso   1.00
H350   H     0.08326   0.45071   0.01752   0.00000  Uiso   1.00
H351   H     0.17789   0.89960   0.28940   0.00000  Uiso   1.00
H352   H     0.27052   0.45419   0.55750   0.00000  Uiso   1.00
H353   H     0.11094   0.26793   0.67093   0.00000  Uiso   1.00
H354   H     0.06442   0.35449   0.55392   0.00000  Uiso   1.00
H355   H     0.10929   0.09311   0.68285   0.00000  Uiso   1.00
H356   H     0.15322   0.35612   0.80998   0.00000  Uiso   1.00
H357   H     0.02211   0.45046   0.37065   0.00000  Uiso   1.00
H358   H     0.11674   0.89933   0.64254   0.00000  Uiso   1.00
H359   H     0.20937   0.45393   0.91063   0.00000  Uiso   1.00
O360   O     0.02336   0.50751   0.10965   0.00000  Uiso   1.00
O361   O     0.14752   0.78446   0.46637   0.00000  Uiso   1.00
O362   O     0.26905   0.51208   0.81810   0.00000  Uiso   1.00
N363   N     0.07525   0.43879   0.11669   0.00000  Uiso   1.00
N364   N     0.16372   0.92353   0.37088   0.00000  Uiso   1.00
N365   N     0.25033   0.44201   0.62154   0.00000  Uiso   1.00
N366   N     0.04235   0.43865   0.30671   0.00000  Uiso   1.00
N367   N     0.13082   0.92339   0.56089   0.00000  Uiso   1.00
N368   N     0.21742   0.44187   0.81155   0.00000  Uiso   1.00
