data_job_03378
_audit_creation_date              2018-12-19
_audit_creation_method            'Materials Studio'
_symmetry_space_group_name_H-M    'P1'
_symmetry_Int_Tables_number       1
_symmetry_cell_setting            triclinic
loop_
_symmetry_equiv_pos_as_xyz
  x,y,z
_cell_length_a                    24.6596
_cell_length_b                    24.6596
_cell_length_c                    9.6792
_cell_angle_alpha                 90.0000
_cell_angle_beta                  90.0000
_cell_angle_gamma                 90.0000
loop_
_atom_site_label
_atom_site_type_symbol
_atom_site_fract_x
_atom_site_fract_y
_atom_site_fract_z
_atom_site_U_iso_or_equiv
_atom_site_adp_type
_atom_site_occupancy
C1     C     0.35685   0.69588   0.50435   0.00000  Uiso   1.00
C2     C     0.35507   0.69122   0.34731   0.00000  Uiso   1.00
C3     C     0.31366   0.66772   0.27088   0.00000  Uiso   1.00
C4     C     0.31965   0.66745   0.12826   0.00000  Uiso   1.00
C5     C     0.30994   0.65676   0.89412   0.00000  Uiso   1.00
C6     C     0.40949   0.66867   0.54939   0.00000  Uiso   1.00
C7     C     0.41383   0.62621   0.64287   0.00000  Uiso   1.00
C8     C     0.46563   0.60697   0.67036   0.00000  Uiso   1.00
C9     C     0.54041   0.56131   0.75002   0.00000  Uiso   1.00
C10    C     0.36374   0.75607   0.53591   0.00000  Uiso   1.00
C11    C     0.32963   0.78711   0.61809   0.00000  Uiso   1.00
C12    C     0.34293   0.84145   0.63426   0.00000  Uiso   1.00
C13    C     0.34668   0.93150   0.69300   0.00000  Uiso   1.00
C14    C     0.44112   0.73720   0.38697   0.00000  Uiso   1.00
C15    C     0.40085   0.71366   0.28356   0.00000  Uiso   1.00
C16    C     0.40690   0.71343   0.14101   0.00000  Uiso   1.00
C17    C     0.36550   0.68993   0.06438   0.00000  Uiso   1.00
C18    C     0.45526   0.69111   0.48563   0.00000  Uiso   1.00
C19    C     0.50707   0.67193   0.51300   0.00000  Uiso   1.00
C20    C     0.51149   0.62945   0.60649   0.00000  Uiso   1.00
C21    C     0.40952   0.77852   0.47215   0.00000  Uiso   1.00
C22    C     0.42287   0.83282   0.48821   0.00000  Uiso   1.00
C23    C     0.38879   0.86394   0.57039   0.00000  Uiso   1.00
H24    H     0.32121   0.67841   0.55399   0.00000  Uiso   1.00
H25    H     0.27824   0.65035   0.32026   0.00000  Uiso   1.00
H26    H     0.37840   0.60886   0.69220   0.00000  Uiso   1.00
H27    H     0.29421   0.76973   0.66741   0.00000  Uiso   1.00
H28    H     0.25080   0.62912   0.03301   0.00000  Uiso   1.00
H29    H     0.46199   0.54165   0.81730   0.00000  Uiso   1.00
H30    H     0.28446   0.88087   0.76504   0.00000  Uiso   1.00
H31    H     0.47676   0.75467   0.33733   0.00000  Uiso   1.00
H32    H     0.44233   0.73080   0.09170   0.00000  Uiso   1.00
H33    H     0.54248   0.68930   0.46365   0.00000  Uiso   1.00
H34    H     0.45830   0.85017   0.43886   0.00000  Uiso   1.00
H35    H     0.38398   0.69441   0.84751   0.00000  Uiso   1.00
H36    H     0.59516   0.60694   0.63181   0.00000  Uiso   1.00
H37    H     0.41764   0.94616   0.57954   0.00000  Uiso   1.00
O38    O     0.29194   0.64466   0.78259   0.00000  Uiso   1.00
O39    O     0.56901   0.52991   0.81157   0.00000  Uiso   1.00
O40    O     0.33610   0.97497   0.74300   0.00000  Uiso   1.00
N41    N     0.28686   0.64777   0.02306   0.00000  Uiso   1.00
N42    N     0.48431   0.56598   0.75631   0.00000  Uiso   1.00
N43    N     0.31835   0.88313   0.70748   0.00000  Uiso   1.00
N44    N     0.35852   0.68290   0.92324   0.00000  Uiso   1.00
N45    N     0.55597   0.60112   0.65649   0.00000  Uiso   1.00
N46    N     0.39001   0.91826   0.60766   0.00000  Uiso   1.00
C47    C     0.64315   0.30412   0.50435   0.00000  Uiso   1.00
C48    C     0.64493   0.30878   0.34731   0.00000  Uiso   1.00
C49    C     0.68634   0.33228   0.27088   0.00000  Uiso   1.00
C50    C     0.68035   0.33255   0.12826   0.00000  Uiso   1.00
C51    C     0.69006   0.34324   0.89412   0.00000  Uiso   1.00
C52    C     0.59051   0.33133   0.54939   0.00000  Uiso   1.00
C53    C     0.58617   0.37379   0.64287   0.00000  Uiso   1.00
C54    C     0.53437   0.39303   0.67036   0.00000  Uiso   1.00
C55    C     0.45959   0.43869   0.75002   0.00000  Uiso   1.00
C56    C     0.63626   0.24393   0.53591   0.00000  Uiso   1.00
C57    C     0.67037   0.21289   0.61809   0.00000  Uiso   1.00
C58    C     0.65707   0.15855   0.63426   0.00000  Uiso   1.00
C59    C     0.65332   0.06850   0.69300   0.00000  Uiso   1.00
C60    C     0.55888   0.26280   0.38697   0.00000  Uiso   1.00
C61    C     0.59915   0.28634   0.28356   0.00000  Uiso   1.00
C62    C     0.59310   0.28657   0.14101   0.00000  Uiso   1.00
C63    C     0.63450   0.31007   0.06438   0.00000  Uiso   1.00
C64    C     0.54474   0.30889   0.48563   0.00000  Uiso   1.00
C65    C     0.49293   0.32807   0.51300   0.00000  Uiso   1.00
C66    C     0.48851   0.37055   0.60649   0.00000  Uiso   1.00
C67    C     0.59048   0.22148   0.47215   0.00000  Uiso   1.00
C68    C     0.57713   0.16718   0.48821   0.00000  Uiso   1.00
C69    C     0.61121   0.13606   0.57039   0.00000  Uiso   1.00
H70    H     0.67879   0.32159   0.55399   0.00000  Uiso   1.00
H71    H     0.72176   0.34965   0.32026   0.00000  Uiso   1.00
H72    H     0.62160   0.39114   0.69220   0.00000  Uiso   1.00
H73    H     0.70579   0.23027   0.66741   0.00000  Uiso   1.00
H74    H     0.74920   0.37088   0.03301   0.00000  Uiso   1.00
H75    H     0.53801   0.45835   0.81730   0.00000  Uiso   1.00
H76    H     0.71554   0.11913   0.76504   0.00000  Uiso   1.00
H77    H     0.52324   0.24533   0.33733   0.00000  Uiso   1.00
H78    H     0.55767   0.26920   0.09170   0.00000  Uiso   1.00
H79    H     0.45752   0.31070   0.46365   0.00000  Uiso   1.00
H80    H     0.54170   0.14983   0.43886   0.00000  Uiso   1.00
H81    H     0.61602   0.30559   0.84751   0.00000  Uiso   1.00
H82    H     0.40484   0.39306   0.63181   0.00000  Uiso   1.00
H83    H     0.58236   0.05384   0.57954   0.00000  Uiso   1.00
O84    O     0.70806   0.35534   0.78259   0.00000  Uiso   1.00
O85    O     0.43099   0.47009   0.81157   0.00000  Uiso   1.00
O86    O     0.66390   0.02503   0.74300   0.00000  Uiso   1.00
N87    N     0.71314   0.35223   0.02306   0.00000  Uiso   1.00
N88    N     0.51569   0.43402   0.75631   0.00000  Uiso   1.00
N89    N     0.68165   0.11687   0.70748   0.00000  Uiso   1.00
N90    N     0.64148   0.31710   0.92324   0.00000  Uiso   1.00
N91    N     0.44403   0.39888   0.65649   0.00000  Uiso   1.00
N92    N     0.60999   0.08174   0.60766   0.00000  Uiso   1.00
C93    C     0.80412   0.85685   0.00435   0.00000  Uiso   1.00
C94    C     0.80878   0.85507   0.84731   0.00000  Uiso   1.00
C95    C     0.83228   0.81366   0.77088   0.00000  Uiso   1.00
C96    C     0.83255   0.81965   0.62826   0.00000  Uiso   1.00
C97    C     0.84324   0.80994   0.39412   0.00000  Uiso   1.00
C98    C     0.83133   0.90949   0.04939   0.00000  Uiso   1.00
C99    C     0.87379   0.91383   0.14287   0.00000  Uiso   1.00
C100   C     0.89303   0.96563   0.17036   0.00000  Uiso   1.00
C101   C     0.93869   0.04041   0.25002   0.00000  Uiso   1.00
C102   C     0.74393   0.86374   0.03591   0.00000  Uiso   1.00
C103   C     0.71289   0.82963   0.11809   0.00000  Uiso   1.00
C104   C     0.65855   0.84293   0.13426   0.00000  Uiso   1.00
C105   C     0.56850   0.84668   0.19300   0.00000  Uiso   1.00
C106   C     0.76280   0.94112   0.88697   0.00000  Uiso   1.00
C107   C     0.78634   0.90085   0.78356   0.00000  Uiso   1.00
C108   C     0.78657   0.90690   0.64101   0.00000  Uiso   1.00
C109   C     0.81007   0.86550   0.56438   0.00000  Uiso   1.00
C110   C     0.80889   0.95526   0.98563   0.00000  Uiso   1.00
C111   C     0.82807   0.00707   0.01300   0.00000  Uiso   1.00
C112   C     0.87055   0.01149   0.10649   0.00000  Uiso   1.00
C113   C     0.72148   0.90952   0.97215   0.00000  Uiso   1.00
C114   C     0.66718   0.92287   0.98821   0.00000  Uiso   1.00
C115   C     0.63606   0.88879   0.07039   0.00000  Uiso   1.00
H116   H     0.82159   0.82121   0.05399   0.00000  Uiso   1.00
H117   H     0.84965   0.77824   0.82026   0.00000  Uiso   1.00
H118   H     0.89114   0.87840   0.19220   0.00000  Uiso   1.00
H119   H     0.73027   0.79421   0.16741   0.00000  Uiso   1.00
H120   H     0.87088   0.75080   0.53301   0.00000  Uiso   1.00
H121   H     0.95835   0.96199   0.31730   0.00000  Uiso   1.00
H122   H     0.61913   0.78446   0.26504   0.00000  Uiso   1.00
H123   H     0.74533   0.97676   0.83733   0.00000  Uiso   1.00
H124   H     0.76920   0.94233   0.59170   0.00000  Uiso   1.00
H125   H     0.81070   0.04248   0.96365   0.00000  Uiso   1.00
H126   H     0.64983   0.95830   0.93886   0.00000  Uiso   1.00
H127   H     0.80559   0.88398   0.34751   0.00000  Uiso   1.00
H128   H     0.89306   0.09516   0.13181   0.00000  Uiso   1.00
H129   H     0.55384   0.91764   0.07954   0.00000  Uiso   1.00
O130   O     0.85534   0.79194   0.28259   0.00000  Uiso   1.00
O131   O     0.97009   0.06901   0.31157   0.00000  Uiso   1.00
O132   O     0.52503   0.83610   0.24300   0.00000  Uiso   1.00
N133   N     0.85223   0.78686   0.52306   0.00000  Uiso   1.00
N134   N     0.93402   0.98431   0.25631   0.00000  Uiso   1.00
N135   N     0.61687   0.81835   0.20748   0.00000  Uiso   1.00
N136   N     0.81710   0.85852   0.42324   0.00000  Uiso   1.00
N137   N     0.89888   0.05597   0.15649   0.00000  Uiso   1.00
N138   N     0.58174   0.89001   0.10766   0.00000  Uiso   1.00
C139   C     0.19588   0.14315   0.00435   0.00000  Uiso   1.00
C140   C     0.19122   0.14493   0.84731   0.00000  Uiso   1.00
C141   C     0.16772   0.18634   0.77088   0.00000  Uiso   1.00
C142   C     0.16745   0.18035   0.62826   0.00000  Uiso   1.00
C143   C     0.15676   0.19006   0.39412   0.00000  Uiso   1.00
C144   C     0.16867   0.09051   0.04939   0.00000  Uiso   1.00
C145   C     0.12621   0.08617   0.14287   0.00000  Uiso   1.00
C146   C     0.10697   0.03437   0.17036   0.00000  Uiso   1.00
C147   C     0.06131   0.95959   0.25002   0.00000  Uiso   1.00
C148   C     0.25607   0.13626   0.03591   0.00000  Uiso   1.00
C149   C     0.28711   0.17037   0.11809   0.00000  Uiso   1.00
C150   C     0.34145   0.15707   0.13426   0.00000  Uiso   1.00
C151   C     0.43150   0.15332   0.19300   0.00000  Uiso   1.00
C152   C     0.23720   0.05888   0.88697   0.00000  Uiso   1.00
C153   C     0.21366   0.09915   0.78356   0.00000  Uiso   1.00
C154   C     0.21343   0.09310   0.64101   0.00000  Uiso   1.00
C155   C     0.18993   0.13450   0.56438   0.00000  Uiso   1.00
C156   C     0.19111   0.04474   0.98563   0.00000  Uiso   1.00
C157   C     0.17193   0.99293   0.01300   0.00000  Uiso   1.00
C158   C     0.12945   0.98851   0.10649   0.00000  Uiso   1.00
C159   C     0.27852   0.09048   0.97215   0.00000  Uiso   1.00
C160   C     0.33282   0.07713   0.98821   0.00000  Uiso   1.00
C161   C     0.36394   0.11121   0.07039   0.00000  Uiso   1.00
H162   H     0.17841   0.17879   0.05399   0.00000  Uiso   1.00
H163   H     0.15035   0.22176   0.82026   0.00000  Uiso   1.00
H164   H     0.10886   0.12160   0.19220   0.00000  Uiso   1.00
H165   H     0.26973   0.20579   0.16741   0.00000  Uiso   1.00
H166   H     0.12912   0.24920   0.53301   0.00000  Uiso   1.00
H167   H     0.04165   0.03801   0.31730   0.00000  Uiso   1.00
H168   H     0.38087   0.21554   0.26504   0.00000  Uiso   1.00
H169   H     0.25467   0.02324   0.83733   0.00000  Uiso   1.00
H170   H     0.23080   0.05767   0.59170   0.00000  Uiso   1.00
H171   H     0.18930   0.95752   0.96365   0.00000  Uiso   1.00
H172   H     0.35017   0.04170   0.93886   0.00000  Uiso   1.00
H173   H     0.19441   0.11602   0.34751   0.00000  Uiso   1.00
H174   H     0.10694   0.90484   0.13181   0.00000  Uiso   1.00
H175   H     0.44616   0.08236   0.07954   0.00000  Uiso   1.00
O176   O     0.14466   0.20806   0.28259   0.00000  Uiso   1.00
O177   O     0.02991   0.93099   0.31157   0.00000  Uiso   1.00
O178   O     0.47497   0.16390   0.24300   0.00000  Uiso   1.00
N179   N     0.14777   0.21314   0.52306   0.00000  Uiso   1.00
N180   N     0.06598   0.01569   0.25631   0.00000  Uiso   1.00
N181   N     0.38313   0.18165   0.20748   0.00000  Uiso   1.00
N182   N     0.18290   0.14148   0.42324   0.00000  Uiso   1.00
N183   N     0.10112   0.94403   0.15649   0.00000  Uiso   1.00
N184   N     0.41826   0.10999   0.10766   0.00000  Uiso   1.00
C185   C     0.14315   0.80412   0.99565   0.00000  Uiso   1.00
C186   C     0.14493   0.80878   0.15269   0.00000  Uiso   1.00
C187   C     0.18634   0.83228   0.22912   0.00000  Uiso   1.00
C188   C     0.18035   0.83255   0.37174   0.00000  Uiso   1.00
C189   C     0.19006   0.84324   0.60588   0.00000  Uiso   1.00
C190   C     0.09051   0.83133   0.95061   0.00000  Uiso   1.00
C191   C     0.08617   0.87379   0.85713   0.00000  Uiso   1.00
C192   C     0.03437   0.89303   0.82964   0.00000  Uiso   1.00
C193   C     0.95959   0.93869   0.74998   0.00000  Uiso   1.00
C194   C     0.13626   0.74393   0.96409   0.00000  Uiso   1.00
C195   C     0.17037   0.71289   0.88191   0.00000  Uiso   1.00
C196   C     0.15707   0.65855   0.86574   0.00000  Uiso   1.00
C197   C     0.15332   0.56850   0.80700   0.00000  Uiso   1.00
C198   C     0.05888   0.76280   0.11303   0.00000  Uiso   1.00
C199   C     0.09915   0.78634   0.21644   0.00000  Uiso   1.00
C200   C     0.09310   0.78657   0.35899   0.00000  Uiso   1.00
C201   C     0.13450   0.81007   0.43562   0.00000  Uiso   1.00
C202   C     0.04474   0.80889   0.01437   0.00000  Uiso   1.00
C203   C     0.99293   0.82807   0.98700   0.00000  Uiso   1.00
C204   C     0.98851   0.87055   0.89351   0.00000  Uiso   1.00
C205   C     0.09048   0.72148   0.02785   0.00000  Uiso   1.00
C206   C     0.07713   0.66718   0.01179   0.00000  Uiso   1.00
C207   C     0.11121   0.63606   0.92961   0.00000  Uiso   1.00
H208   H     0.17879   0.82159   0.94601   0.00000  Uiso   1.00
H209   H     0.22176   0.84965   0.17974   0.00000  Uiso   1.00
H210   H     0.12160   0.89114   0.80780   0.00000  Uiso   1.00
H211   H     0.20579   0.73027   0.83259   0.00000  Uiso   1.00
H212   H     0.24920   0.87088   0.46699   0.00000  Uiso   1.00
H213   H     0.03801   0.95835   0.68270   0.00000  Uiso   1.00
H214   H     0.21554   0.61913   0.73496   0.00000  Uiso   1.00
H215   H     0.02324   0.74533   0.16267   0.00000  Uiso   1.00
H216   H     0.05767   0.76920   0.40830   0.00000  Uiso   1.00
H217   H     0.95752   0.81070   0.03635   0.00000  Uiso   1.00
H218   H     0.04170   0.64983   0.06114   0.00000  Uiso   1.00
H219   H     0.11602   0.80559   0.65249   0.00000  Uiso   1.00
H220   H     0.90484   0.89306   0.86819   0.00000  Uiso   1.00
H221   H     0.08236   0.55384   0.92046   0.00000  Uiso   1.00
O222   O     0.20806   0.85534   0.71741   0.00000  Uiso   1.00
O223   O     0.93099   0.97009   0.68843   0.00000  Uiso   1.00
O224   O     0.16390   0.52503   0.75700   0.00000  Uiso   1.00
N225   N     0.21314   0.85223   0.47694   0.00000  Uiso   1.00
N226   N     0.01569   0.93402   0.74369   0.00000  Uiso   1.00
N227   N     0.18165   0.61687   0.79252   0.00000  Uiso   1.00
N228   N     0.14148   0.81710   0.57676   0.00000  Uiso   1.00
N229   N     0.94403   0.89888   0.84351   0.00000  Uiso   1.00
N230   N     0.10999   0.58174   0.89234   0.00000  Uiso   1.00
C231   C     0.85685   0.19588   0.99565   0.00000  Uiso   1.00
C232   C     0.85507   0.19122   0.15269   0.00000  Uiso   1.00
C233   C     0.81366   0.16772   0.22912   0.00000  Uiso   1.00
C234   C     0.81965   0.16745   0.37174   0.00000  Uiso   1.00
C235   C     0.80994   0.15676   0.60588   0.00000  Uiso   1.00
C236   C     0.90949   0.16867   0.95061   0.00000  Uiso   1.00
C237   C     0.91383   0.12621   0.85713   0.00000  Uiso   1.00
C238   C     0.96563   0.10697   0.82964   0.00000  Uiso   1.00
C239   C     0.04041   0.06131   0.74998   0.00000  Uiso   1.00
C240   C     0.86374   0.25607   0.96409   0.00000  Uiso   1.00
C241   C     0.82963   0.28711   0.88191   0.00000  Uiso   1.00
C242   C     0.84293   0.34145   0.86574   0.00000  Uiso   1.00
C243   C     0.84668   0.43150   0.80700   0.00000  Uiso   1.00
C244   C     0.94112   0.23720   0.11303   0.00000  Uiso   1.00
C245   C     0.90085   0.21366   0.21644   0.00000  Uiso   1.00
C246   C     0.90690   0.21343   0.35899   0.00000  Uiso   1.00
C247   C     0.86550   0.18993   0.43562   0.00000  Uiso   1.00
C248   C     0.95526   0.19111   0.01437   0.00000  Uiso   1.00
C249   C     0.00707   0.17193   0.98700   0.00000  Uiso   1.00
C250   C     0.01149   0.12945   0.89351   0.00000  Uiso   1.00
C251   C     0.90952   0.27852   0.02785   0.00000  Uiso   1.00
C252   C     0.92287   0.33282   0.01179   0.00000  Uiso   1.00
C253   C     0.88879   0.36394   0.92961   0.00000  Uiso   1.00
H254   H     0.82121   0.17841   0.94601   0.00000  Uiso   1.00
H255   H     0.77824   0.15035   0.17974   0.00000  Uiso   1.00
H256   H     0.87840   0.10886   0.80780   0.00000  Uiso   1.00
H257   H     0.79421   0.26973   0.83259   0.00000  Uiso   1.00
H258   H     0.75080   0.12912   0.46699   0.00000  Uiso   1.00
H259   H     0.96199   0.04165   0.68270   0.00000  Uiso   1.00
H260   H     0.78446   0.38087   0.73496   0.00000  Uiso   1.00
H261   H     0.97676   0.25467   0.16267   0.00000  Uiso   1.00
H262   H     0.94233   0.23080   0.40830   0.00000  Uiso   1.00
H263   H     0.04248   0.18930   0.03635   0.00000  Uiso   1.00
H264   H     0.95830   0.35017   0.06114   0.00000  Uiso   1.00
H265   H     0.88398   0.19441   0.65249   0.00000  Uiso   1.00
H266   H     0.09516   0.10694   0.86819   0.00000  Uiso   1.00
H267   H     0.91764   0.44616   0.92046   0.00000  Uiso   1.00
O268   O     0.79194   0.14466   0.71741   0.00000  Uiso   1.00
O269   O     0.06901   0.02991   0.68843   0.00000  Uiso   1.00
O270   O     0.83610   0.47497   0.75700   0.00000  Uiso   1.00
N271   N     0.78686   0.14777   0.47694   0.00000  Uiso   1.00
N272   N     0.98431   0.06598   0.74369   0.00000  Uiso   1.00
N273   N     0.81835   0.38313   0.79252   0.00000  Uiso   1.00
N274   N     0.85852   0.18290   0.57676   0.00000  Uiso   1.00
N275   N     0.05597   0.10112   0.84351   0.00000  Uiso   1.00
N276   N     0.89001   0.41826   0.89234   0.00000  Uiso   1.00
C277   C     0.69588   0.64315   0.49565   0.00000  Uiso   1.00
C278   C     0.69122   0.64493   0.65269   0.00000  Uiso   1.00
C279   C     0.66772   0.68634   0.72912   0.00000  Uiso   1.00
C280   C     0.66745   0.68035   0.87174   0.00000  Uiso   1.00
C281   C     0.65676   0.69006   0.10588   0.00000  Uiso   1.00
C282   C     0.66867   0.59051   0.45061   0.00000  Uiso   1.00
C283   C     0.62621   0.58617   0.35713   0.00000  Uiso   1.00
C284   C     0.60697   0.53437   0.32964   0.00000  Uiso   1.00
C285   C     0.56131   0.45959   0.24998   0.00000  Uiso   1.00
C286   C     0.75607   0.63626   0.46409   0.00000  Uiso   1.00
C287   C     0.78711   0.67037   0.38191   0.00000  Uiso   1.00
C288   C     0.84145   0.65707   0.36574   0.00000  Uiso   1.00
C289   C     0.93150   0.65332   0.30700   0.00000  Uiso   1.00
C290   C     0.73720   0.55888   0.61303   0.00000  Uiso   1.00
C291   C     0.71366   0.59915   0.71644   0.00000  Uiso   1.00
C292   C     0.71343   0.59310   0.85899   0.00000  Uiso   1.00
C293   C     0.68993   0.63450   0.93562   0.00000  Uiso   1.00
C294   C     0.69111   0.54474   0.51437   0.00000  Uiso   1.00
C295   C     0.67193   0.49293   0.48700   0.00000  Uiso   1.00
C296   C     0.62945   0.48851   0.39351   0.00000  Uiso   1.00
C297   C     0.77852   0.59048   0.52785   0.00000  Uiso   1.00
C298   C     0.83282   0.57713   0.51179   0.00000  Uiso   1.00
C299   C     0.86394   0.61121   0.42961   0.00000  Uiso   1.00
H300   H     0.67841   0.67879   0.44601   0.00000  Uiso   1.00
H301   H     0.65035   0.72176   0.67974   0.00000  Uiso   1.00
H302   H     0.60886   0.62160   0.30780   0.00000  Uiso   1.00
H303   H     0.76973   0.70579   0.33259   0.00000  Uiso   1.00
H304   H     0.62912   0.74920   0.96699   0.00000  Uiso   1.00
H305   H     0.54165   0.53801   0.18270   0.00000  Uiso   1.00
H306   H     0.88087   0.71554   0.23496   0.00000  Uiso   1.00
H307   H     0.75467   0.52324   0.66267   0.00000  Uiso   1.00
H308   H     0.73080   0.55767   0.90830   0.00000  Uiso   1.00
H309   H     0.68930   0.45752   0.53635   0.00000  Uiso   1.00
H310   H     0.85017   0.54170   0.56114   0.00000  Uiso   1.00
H311   H     0.69441   0.61602   0.15249   0.00000  Uiso   1.00
H312   H     0.60694   0.40484   0.36819   0.00000  Uiso   1.00
H313   H     0.94616   0.58236   0.42046   0.00000  Uiso   1.00
O314   O     0.64466   0.70806   0.21741   0.00000  Uiso   1.00
O315   O     0.52991   0.43099   0.18843   0.00000  Uiso   1.00
O316   O     0.97497   0.66390   0.25700   0.00000  Uiso   1.00
N317   N     0.64777   0.71314   0.97694   0.00000  Uiso   1.00
N318   N     0.56598   0.51569   0.24369   0.00000  Uiso   1.00
N319   N     0.88313   0.68165   0.29252   0.00000  Uiso   1.00
N320   N     0.68290   0.64148   0.07676   0.00000  Uiso   1.00
N321   N     0.60112   0.44403   0.34351   0.00000  Uiso   1.00
N322   N     0.91826   0.60999   0.39234   0.00000  Uiso   1.00
C323   C     0.30412   0.35685   0.49565   0.00000  Uiso   1.00
C324   C     0.30878   0.35507   0.65269   0.00000  Uiso   1.00
C325   C     0.33228   0.31366   0.72912   0.00000  Uiso   1.00
C326   C     0.33255   0.31965   0.87174   0.00000  Uiso   1.00
C327   C     0.34324   0.30994   0.10588   0.00000  Uiso   1.00
C328   C     0.33133   0.40949   0.45061   0.00000  Uiso   1.00
C329   C     0.37379   0.41383   0.35713   0.00000  Uiso   1.00
C330   C     0.39303   0.46563   0.32964   0.00000  Uiso   1.00
C331   C     0.43869   0.54041   0.24998   0.00000  Uiso   1.00
C332   C     0.24393   0.36374   0.46409   0.00000  Uiso   1.00
C333   C     0.21289   0.32963   0.38191   0.00000  Uiso   1.00
C334   C     0.15855   0.34293   0.36574   0.00000  Uiso   1.00
C335   C     0.06850   0.34668   0.30700   0.00000  Uiso   1.00
C336   C     0.26280   0.44112   0.61303   0.00000  Uiso   1.00
C337   C     0.28634   0.40085   0.71644   0.00000  Uiso   1.00
C338   C     0.28657   0.40690   0.85899   0.00000  Uiso   1.00
C339   C     0.31007   0.36550   0.93562   0.00000  Uiso   1.00
C340   C     0.30889   0.45526   0.51437   0.00000  Uiso   1.00
C341   C     0.32807   0.50707   0.48700   0.00000  Uiso   1.00
C342   C     0.37055   0.51149   0.39351   0.00000  Uiso   1.00
C343   C     0.22148   0.40952   0.52785   0.00000  Uiso   1.00
C344   C     0.16718   0.42287   0.51179   0.00000  Uiso   1.00
C345   C     0.13606   0.38879   0.42961   0.00000  Uiso   1.00
H346   H     0.32159   0.32121   0.44601   0.00000  Uiso   1.00
H347   H     0.34965   0.27824   0.67974   0.00000  Uiso   1.00
H348   H     0.39114   0.37840   0.30780   0.00000  Uiso   1.00
H349   H     0.23027   0.29421   0.33259   0.00000  Uiso   1.00
H350   H     0.37088   0.25080   0.96699   0.00000  Uiso   1.00
H351   H     0.45835   0.46199   0.18270   0.00000  Uiso   1.00
H352   H     0.11913   0.28446   0.23496   0.00000  Uiso   1.00
H353   H     0.24533   0.47676   0.66267   0.00000  Uiso   1.00
H354   H     0.26920   0.44233   0.90830   0.00000  Uiso   1.00
H355   H     0.31070   0.54248   0.53635   0.00000  Uiso   1.00
H356   H     0.14983   0.45830   0.56114   0.00000  Uiso   1.00
H357   H     0.30559   0.38398   0.15249   0.00000  Uiso   1.00
H358   H     0.39306   0.59516   0.36819   0.00000  Uiso   1.00
H359   H     0.05384   0.41764   0.42046   0.00000  Uiso   1.00
O360   O     0.35534   0.29194   0.21741   0.00000  Uiso   1.00
O361   O     0.47009   0.56901   0.18843   0.00000  Uiso   1.00
O362   O     0.02503   0.33610   0.25700   0.00000  Uiso   1.00
N363   N     0.35223   0.28686   0.97694   0.00000  Uiso   1.00
N364   N     0.43402   0.48431   0.24369   0.00000  Uiso   1.00
N365   N     0.11687   0.31835   0.29252   0.00000  Uiso   1.00
N366   N     0.31710   0.35852   0.07676   0.00000  Uiso   1.00
N367   N     0.39888   0.55597   0.34351   0.00000  Uiso   1.00
N368   N     0.08174   0.39001   0.39234   0.00000  Uiso   1.00
