data_job_05027
_audit_creation_date              2018-12-19
_audit_creation_method            'Materials Studio'
_symmetry_space_group_name_H-M    'P1'
_symmetry_Int_Tables_number       1
_symmetry_cell_setting            triclinic
loop_
_symmetry_equiv_pos_as_xyz
  x,y,z
_cell_length_a                    9.5220
_cell_length_b                    19.7277
_cell_length_c                    28.1401
_cell_angle_alpha                 90.0000
_cell_angle_beta                  90.0000
_cell_angle_gamma                 90.0000
loop_
_atom_site_label
_atom_site_type_symbol
_atom_site_fract_x
_atom_site_fract_y
_atom_site_fract_z
_atom_site_U_iso_or_equiv
_atom_site_adp_type
_atom_site_occupancy
C1     C     0.61711   0.29883   0.41946   0.00000  Uiso   1.00
C2     C     0.71506   0.35370   0.43838   0.00000  Uiso   1.00
C3     C     0.73869   0.36838   0.48595   0.00000  Uiso   1.00
C4     C     0.83214   0.42048   0.49594   0.00000  Uiso   1.00
C5     C     0.97393   0.50022   0.53085   0.00000  Uiso   1.00
C6     C     0.51417   0.33473   0.38644   0.00000  Uiso   1.00
C7     C     0.36890   0.33343   0.39033   0.00000  Uiso   1.00
C8     C     0.29325   0.36955   0.35660   0.00000  Uiso   1.00
C9     C     0.12316   0.41979   0.31085   0.00000  Uiso   1.00
C10    C     0.70702   0.25360   0.38776   0.00000  Uiso   1.00
C11    C     0.72387   0.18408   0.39274   0.00000  Uiso   1.00
C12    C     0.81057   0.15189   0.36011   0.00000  Uiso   1.00
C13    C     0.93991   0.07616   0.31639   0.00000  Uiso   1.00
C14    C     0.74106   0.36527   0.35263   0.00000  Uiso   1.00
C15    C     0.78238   0.38979   0.40208   0.00000  Uiso   1.00
C16    C     0.87583   0.44189   0.41201   0.00000  Uiso   1.00
C17    C     0.89959   0.45664   0.45958   0.00000  Uiso   1.00
C18    C     0.58149   0.37081   0.35014   0.00000  Uiso   1.00
C19    C     0.50604   0.40694   0.31640   0.00000  Uiso   1.00
C20    C     0.36069   0.40571   0.32024   0.00000  Uiso   1.00
C21    C     0.77435   0.28968   0.35146   0.00000  Uiso   1.00
C22    C     0.86102   0.25760   0.31881   0.00000  Uiso   1.00
C23    C     0.87801   0.18805   0.32374   0.00000  Uiso   1.00
H24    H     0.56469   0.27073   0.44772   0.00000  Uiso   1.00
H25    H     0.68655   0.34044   0.51403   0.00000  Uiso   1.00
H26    H     0.31683   0.30549   0.41842   0.00000  Uiso   1.00
H27    H     0.67176   0.15617   0.42084   0.00000  Uiso   1.00
H28    H     0.85132   0.43366   0.57154   0.00000  Uiso   1.00
H29    H     0.07173   0.35995   0.36994   0.00000  Uiso   1.00
H30    H     0.82016   0.04507   0.37503   0.00000  Uiso   1.00
H31    H     0.79347   0.39337   0.32437   0.00000  Uiso   1.00
H32    H     0.92791   0.46981   0.38391   0.00000  Uiso   1.00
H33    H     0.55817   0.43486   0.28831   0.00000  Uiso   1.00
H34    H     0.91310   0.28554   0.29072   0.00000  Uiso   1.00
H35    H     0.04721   0.53866   0.46593   0.00000  Uiso   1.00
H36    H     0.26761   0.46495   0.26434   0.00000  Uiso   1.00
H37    H     0.01605   0.15007   0.26942   0.00000  Uiso   1.00
O38    O     0.03353   0.53424   0.56013   0.00000  Uiso   1.00
O39    O     0.01074   0.43753   0.29564   0.00000  Uiso   1.00
O40    O     0.99267   0.02442   0.30231   0.00000  Uiso   1.00
N41    N     0.87900   0.44787   0.53851   0.00000  Uiso   1.00
N42    N     0.15013   0.37897   0.35004   0.00000  Uiso   1.00
N43    N     0.84982   0.08458   0.35478   0.00000  Uiso   1.00
N44    N     0.98440   0.50437   0.48168   0.00000  Uiso   1.00
N45    N     0.25553   0.43547   0.29321   0.00000  Uiso   1.00
N46    N     0.95522   0.14108   0.29796   0.00000  Uiso   1.00
C47    C     0.17206   0.80214   0.59024   0.00000  Uiso   1.00
C48    C     0.07799   0.85816   0.57072   0.00000  Uiso   1.00
C49    C     0.06086   0.87437   0.52308   0.00000  Uiso   1.00
C50    C     0.97007   0.92733   0.51250   0.00000  Uiso   1.00
C51    C     0.83487   0.00894   0.47674   0.00000  Uiso   1.00
C52    C     0.27153   0.83643   0.62526   0.00000  Uiso   1.00
C53    C     0.41712   0.83435   0.62348   0.00000  Uiso   1.00
C54    C     0.48925   0.86901   0.65881   0.00000  Uiso   1.00
C55    C     0.65451   0.91684   0.70774   0.00000  Uiso   1.00
C56    C     0.07705   0.75655   0.61992   0.00000  Uiso   1.00
C57    C     0.05915   0.68730   0.61367   0.00000  Uiso   1.00
C58    C     0.96756   0.65470   0.64452   0.00000  Uiso   1.00
C59    C     0.83087   0.57851   0.68517   0.00000  Uiso   1.00
C60    C     0.04128   0.86737   0.65616   0.00000  Uiso   1.00
C61    C     0.00696   0.89359   0.60652   0.00000  Uiso   1.00
C62    C     0.91617   0.94654   0.59601   0.00000  Uiso   1.00
C63    C     0.89890   0.96282   0.54837   0.00000  Uiso   1.00
C64    C     0.20050   0.87186   0.66106   0.00000  Uiso   1.00
C65    C     0.27243   0.90652   0.69641   0.00000  Uiso   1.00
C66    C     0.41809   0.90450   0.69468   0.00000  Uiso   1.00
C67    C     0.00601   0.79198   0.65573   0.00000  Uiso   1.00
C68    C     0.91445   0.75948   0.68660   0.00000  Uiso   1.00
C69    C     0.89640   0.69020   0.68039   0.00000  Uiso   1.00
H70    H     0.22737   0.77456   0.56237   0.00000  Uiso   1.00
H71    H     0.11587   0.84694   0.49538   0.00000  Uiso   1.00
H72    H     0.47207   0.80693   0.59577   0.00000  Uiso   1.00
H73    H     0.11414   0.65990   0.58596   0.00000  Uiso   1.00
H74    H     0.96095   0.94283   0.43691   0.00000  Uiso   1.00
H75    H     0.71202   0.85843   0.64858   0.00000  Uiso   1.00
H76    H     0.95727   0.54841   0.62790   0.00000  Uiso   1.00
H77    H     0.98598   0.89496   0.68404   0.00000  Uiso   1.00
H78    H     0.86121   0.97395   0.62373   0.00000  Uiso   1.00
H79    H     0.21742   0.93393   0.72411   0.00000  Uiso   1.00
H80    H     0.85949   0.78691   0.71430   0.00000  Uiso   1.00
H81    H     0.75427   0.04592   0.54108   0.00000  Uiso   1.00
H82    H     0.50534   0.96152   0.75275   0.00000  Uiso   1.00
H83    H     0.75058   0.65149   0.73207   0.00000  Uiso   1.00
O84    O     0.77993   0.04418   0.44712   0.00000  Uiso   1.00
O85    O     0.76530   0.93344   0.72484   0.00000  Uiso   1.00
O86    O     0.77508   0.52669   0.69770   0.00000  Uiso   1.00
N87    N     0.92941   0.95624   0.46970   0.00000  Uiso   1.00
N88    N     0.63161   0.87735   0.66760   0.00000  Uiso   1.00
N89    N     0.92601   0.58749   0.64827   0.00000  Uiso   1.00
N90    N     0.81819   0.01171   0.52575   0.00000  Uiso   1.00
N91    N     0.52040   0.93281   0.72365   0.00000  Uiso   1.00
N92    N     0.81480   0.64296   0.70432   0.00000  Uiso   1.00
C93    C     0.38289   0.70117   0.91946   0.00000  Uiso   1.00
C94    C     0.28494   0.64630   0.93838   0.00000  Uiso   1.00
C95    C     0.26131   0.63162   0.98595   0.00000  Uiso   1.00
C96    C     0.16786   0.57952   0.99594   0.00000  Uiso   1.00
C97    C     0.02607   0.49978   0.03085   0.00000  Uiso   1.00
C98    C     0.48583   0.66527   0.88644   0.00000  Uiso   1.00
C99    C     0.63110   0.66657   0.89033   0.00000  Uiso   1.00
C100   C     0.70675   0.63045   0.85660   0.00000  Uiso   1.00
C101   C     0.87684   0.58021   0.81085   0.00000  Uiso   1.00
C102   C     0.29298   0.74640   0.88776   0.00000  Uiso   1.00
C103   C     0.27613   0.81592   0.89274   0.00000  Uiso   1.00
C104   C     0.18943   0.84811   0.86011   0.00000  Uiso   1.00
C105   C     0.06009   0.92384   0.81639   0.00000  Uiso   1.00
C106   C     0.25894   0.63473   0.85263   0.00000  Uiso   1.00
C107   C     0.21762   0.61021   0.90208   0.00000  Uiso   1.00
C108   C     0.12417   0.55811   0.91201   0.00000  Uiso   1.00
C109   C     0.10041   0.54336   0.95958   0.00000  Uiso   1.00
C110   C     0.41851   0.62919   0.85014   0.00000  Uiso   1.00
C111   C     0.49396   0.59306   0.81640   0.00000  Uiso   1.00
C112   C     0.63931   0.59429   0.82024   0.00000  Uiso   1.00
C113   C     0.22565   0.71032   0.85146   0.00000  Uiso   1.00
C114   C     0.13898   0.74240   0.81881   0.00000  Uiso   1.00
C115   C     0.12199   0.81195   0.82374   0.00000  Uiso   1.00
H116   H     0.43531   0.72927   0.94772   0.00000  Uiso   1.00
H117   H     0.31345   0.65956   0.01403   0.00000  Uiso   1.00
H118   H     0.68317   0.69451   0.91842   0.00000  Uiso   1.00
H119   H     0.32824   0.84383   0.92084   0.00000  Uiso   1.00
H120   H     0.14868   0.56634   0.07154   0.00000  Uiso   1.00
H121   H     0.92827   0.64005   0.86994   0.00000  Uiso   1.00
H122   H     0.17984   0.95493   0.87503   0.00000  Uiso   1.00
H123   H     0.20653   0.60663   0.82437   0.00000  Uiso   1.00
H124   H     0.07209   0.53019   0.88391   0.00000  Uiso   1.00
H125   H     0.44183   0.56514   0.78831   0.00000  Uiso   1.00
H126   H     0.08690   0.71446   0.79072   0.00000  Uiso   1.00
H127   H     0.95279   0.46134   0.96593   0.00000  Uiso   1.00
H128   H     0.73239   0.53505   0.76434   0.00000  Uiso   1.00
H129   H     0.98395   0.84993   0.76942   0.00000  Uiso   1.00
O130   O     0.96647   0.46576   0.06013   0.00000  Uiso   1.00
O131   O     0.98926   0.56247   0.79564   0.00000  Uiso   1.00
O132   O     0.00733   0.97558   0.80231   0.00000  Uiso   1.00
N133   N     0.12100   0.55213   0.03851   0.00000  Uiso   1.00
N134   N     0.84987   0.62103   0.85004   0.00000  Uiso   1.00
N135   N     0.15018   0.91542   0.85478   0.00000  Uiso   1.00
N136   N     0.01560   0.49563   0.98168   0.00000  Uiso   1.00
N137   N     0.74447   0.56453   0.79321   0.00000  Uiso   1.00
N138   N     0.04478   0.85892   0.79796   0.00000  Uiso   1.00
C139   C     0.82794   0.19786   0.09024   0.00000  Uiso   1.00
C140   C     0.92201   0.14184   0.07072   0.00000  Uiso   1.00
C141   C     0.93914   0.12563   0.02308   0.00000  Uiso   1.00
C142   C     0.02993   0.07267   0.01250   0.00000  Uiso   1.00
C143   C     0.16513   0.99106   0.97674   0.00000  Uiso   1.00
C144   C     0.72847   0.16357   0.12526   0.00000  Uiso   1.00
C145   C     0.58288   0.16565   0.12348   0.00000  Uiso   1.00
C146   C     0.51075   0.13099   0.15881   0.00000  Uiso   1.00
C147   C     0.34549   0.08316   0.20774   0.00000  Uiso   1.00
C148   C     0.92295   0.24345   0.11992   0.00000  Uiso   1.00
C149   C     0.94085   0.31270   0.11367   0.00000  Uiso   1.00
C150   C     0.03244   0.34530   0.14452   0.00000  Uiso   1.00
C151   C     0.16913   0.42149   0.18517   0.00000  Uiso   1.00
C152   C     0.95872   0.13263   0.15616   0.00000  Uiso   1.00
C153   C     0.99304   0.10641   0.10652   0.00000  Uiso   1.00
C154   C     0.08383   0.05346   0.09601   0.00000  Uiso   1.00
C155   C     0.10110   0.03718   0.04837   0.00000  Uiso   1.00
C156   C     0.79950   0.12814   0.16106   0.00000  Uiso   1.00
C157   C     0.72757   0.09348   0.19641   0.00000  Uiso   1.00
C158   C     0.58191   0.09550   0.19468   0.00000  Uiso   1.00
C159   C     0.99399   0.20802   0.15573   0.00000  Uiso   1.00
C160   C     0.08555   0.24052   0.18660   0.00000  Uiso   1.00
C161   C     0.10360   0.30980   0.18039   0.00000  Uiso   1.00
H162   H     0.77263   0.22544   0.06237   0.00000  Uiso   1.00
H163   H     0.88413   0.15306   0.99538   0.00000  Uiso   1.00
H164   H     0.52793   0.19307   0.09577   0.00000  Uiso   1.00
H165   H     0.88586   0.34010   0.08596   0.00000  Uiso   1.00
H166   H     0.03905   0.05717   0.93691   0.00000  Uiso   1.00
H167   H     0.28798   0.14157   0.14858   0.00000  Uiso   1.00
H168   H     0.04273   0.45159   0.12790   0.00000  Uiso   1.00
H169   H     0.01402   0.10504   0.18404   0.00000  Uiso   1.00
H170   H     0.13879   0.02605   0.12373   0.00000  Uiso   1.00
H171   H     0.78258   0.06607   0.22411   0.00000  Uiso   1.00
H172   H     0.14051   0.21309   0.21430   0.00000  Uiso   1.00
H173   H     0.24573   0.95408   0.04108   0.00000  Uiso   1.00
H174   H     0.49466   0.03848   0.25275   0.00000  Uiso   1.00
H175   H     0.24942   0.34851   0.23207   0.00000  Uiso   1.00
O176   O     0.22007   0.95582   0.94712   0.00000  Uiso   1.00
O177   O     0.23470   0.06656   0.22484   0.00000  Uiso   1.00
O178   O     0.22492   0.47331   0.19770   0.00000  Uiso   1.00
N179   N     0.07059   0.04376   0.96970   0.00000  Uiso   1.00
N180   N     0.36839   0.12265   0.16760   0.00000  Uiso   1.00
N181   N     0.07399   0.41251   0.14827   0.00000  Uiso   1.00
N182   N     0.18181   0.98829   0.02575   0.00000  Uiso   1.00
N183   N     0.47960   0.06719   0.22365   0.00000  Uiso   1.00
N184   N     0.18520   0.35704   0.20432   0.00000  Uiso   1.00
C185   C     0.11711   0.70117   0.41946   0.00000  Uiso   1.00
C186   C     0.21506   0.64630   0.43838   0.00000  Uiso   1.00
C187   C     0.23869   0.63162   0.48595   0.00000  Uiso   1.00
C188   C     0.33214   0.57952   0.49594   0.00000  Uiso   1.00
C189   C     0.47393   0.49978   0.53085   0.00000  Uiso   1.00
C190   C     0.01417   0.66527   0.38644   0.00000  Uiso   1.00
C191   C     0.86890   0.66657   0.39033   0.00000  Uiso   1.00
C192   C     0.79325   0.63045   0.35660   0.00000  Uiso   1.00
C193   C     0.62316   0.58021   0.31085   0.00000  Uiso   1.00
C194   C     0.20702   0.74640   0.38776   0.00000  Uiso   1.00
C195   C     0.22387   0.81592   0.39274   0.00000  Uiso   1.00
C196   C     0.31057   0.84811   0.36011   0.00000  Uiso   1.00
C197   C     0.43991   0.92384   0.31639   0.00000  Uiso   1.00
C198   C     0.24106   0.63473   0.35263   0.00000  Uiso   1.00
C199   C     0.28238   0.61021   0.40208   0.00000  Uiso   1.00
C200   C     0.37583   0.55811   0.41201   0.00000  Uiso   1.00
C201   C     0.39959   0.54336   0.45958   0.00000  Uiso   1.00
C202   C     0.08149   0.62919   0.35014   0.00000  Uiso   1.00
C203   C     0.00604   0.59306   0.31640   0.00000  Uiso   1.00
C204   C     0.86069   0.59429   0.32024   0.00000  Uiso   1.00
C205   C     0.27435   0.71032   0.35146   0.00000  Uiso   1.00
C206   C     0.36102   0.74240   0.31881   0.00000  Uiso   1.00
C207   C     0.37801   0.81195   0.32374   0.00000  Uiso   1.00
H208   H     0.06469   0.72927   0.44772   0.00000  Uiso   1.00
H209   H     0.18655   0.65956   0.51403   0.00000  Uiso   1.00
H210   H     0.81683   0.69451   0.41842   0.00000  Uiso   1.00
H211   H     0.17176   0.84383   0.42084   0.00000  Uiso   1.00
H212   H     0.35132   0.56634   0.57154   0.00000  Uiso   1.00
H213   H     0.57173   0.64005   0.36994   0.00000  Uiso   1.00
H214   H     0.32016   0.95493   0.37503   0.00000  Uiso   1.00
H215   H     0.29347   0.60663   0.32437   0.00000  Uiso   1.00
H216   H     0.42791   0.53019   0.38391   0.00000  Uiso   1.00
H217   H     0.05817   0.56514   0.28831   0.00000  Uiso   1.00
H218   H     0.41310   0.71446   0.29072   0.00000  Uiso   1.00
H219   H     0.54721   0.46134   0.46593   0.00000  Uiso   1.00
H220   H     0.76761   0.53505   0.26434   0.00000  Uiso   1.00
H221   H     0.51605   0.84993   0.26942   0.00000  Uiso   1.00
O222   O     0.53353   0.46576   0.56013   0.00000  Uiso   1.00
O223   O     0.51074   0.56247   0.29564   0.00000  Uiso   1.00
O224   O     0.49267   0.97558   0.30231   0.00000  Uiso   1.00
N225   N     0.37900   0.55213   0.53851   0.00000  Uiso   1.00
N226   N     0.65013   0.62103   0.35004   0.00000  Uiso   1.00
N227   N     0.34982   0.91542   0.35478   0.00000  Uiso   1.00
N228   N     0.48440   0.49563   0.48168   0.00000  Uiso   1.00
N229   N     0.75553   0.56453   0.29321   0.00000  Uiso   1.00
N230   N     0.45522   0.85892   0.29796   0.00000  Uiso   1.00
C231   C     0.67206   0.19786   0.59024   0.00000  Uiso   1.00
C232   C     0.57799   0.14184   0.57072   0.00000  Uiso   1.00
C233   C     0.56086   0.12563   0.52308   0.00000  Uiso   1.00
C234   C     0.47007   0.07267   0.51250   0.00000  Uiso   1.00
C235   C     0.33487   0.99106   0.47674   0.00000  Uiso   1.00
C236   C     0.77153   0.16357   0.62526   0.00000  Uiso   1.00
C237   C     0.91712   0.16565   0.62348   0.00000  Uiso   1.00
C238   C     0.98925   0.13099   0.65881   0.00000  Uiso   1.00
C239   C     0.15451   0.08316   0.70774   0.00000  Uiso   1.00
C240   C     0.57705   0.24345   0.61992   0.00000  Uiso   1.00
C241   C     0.55915   0.31270   0.61367   0.00000  Uiso   1.00
C242   C     0.46756   0.34530   0.64452   0.00000  Uiso   1.00
C243   C     0.33087   0.42149   0.68517   0.00000  Uiso   1.00
C244   C     0.54128   0.13263   0.65616   0.00000  Uiso   1.00
C245   C     0.50696   0.10641   0.60652   0.00000  Uiso   1.00
C246   C     0.41617   0.05346   0.59601   0.00000  Uiso   1.00
C247   C     0.39890   0.03718   0.54837   0.00000  Uiso   1.00
C248   C     0.70050   0.12814   0.66106   0.00000  Uiso   1.00
C249   C     0.77243   0.09348   0.69641   0.00000  Uiso   1.00
C250   C     0.91809   0.09550   0.69468   0.00000  Uiso   1.00
C251   C     0.50601   0.20802   0.65573   0.00000  Uiso   1.00
C252   C     0.41445   0.24052   0.68660   0.00000  Uiso   1.00
C253   C     0.39640   0.30980   0.68039   0.00000  Uiso   1.00
H254   H     0.72737   0.22544   0.56237   0.00000  Uiso   1.00
H255   H     0.61587   0.15306   0.49538   0.00000  Uiso   1.00
H256   H     0.97207   0.19307   0.59577   0.00000  Uiso   1.00
H257   H     0.61414   0.34010   0.58596   0.00000  Uiso   1.00
H258   H     0.46095   0.05717   0.43691   0.00000  Uiso   1.00
H259   H     0.21202   0.14157   0.64858   0.00000  Uiso   1.00
H260   H     0.45727   0.45159   0.62790   0.00000  Uiso   1.00
H261   H     0.48598   0.10504   0.68404   0.00000  Uiso   1.00
H262   H     0.36121   0.02605   0.62373   0.00000  Uiso   1.00
H263   H     0.71742   0.06607   0.72411   0.00000  Uiso   1.00
H264   H     0.35949   0.21309   0.71430   0.00000  Uiso   1.00
H265   H     0.25427   0.95408   0.54108   0.00000  Uiso   1.00
H266   H     0.00534   0.03848   0.75275   0.00000  Uiso   1.00
H267   H     0.25058   0.34851   0.73207   0.00000  Uiso   1.00
O268   O     0.27993   0.95582   0.44712   0.00000  Uiso   1.00
O269   O     0.26530   0.06656   0.72484   0.00000  Uiso   1.00
O270   O     0.27508   0.47331   0.69770   0.00000  Uiso   1.00
N271   N     0.42941   0.04376   0.46970   0.00000  Uiso   1.00
N272   N     0.13161   0.12265   0.66760   0.00000  Uiso   1.00
N273   N     0.42601   0.41251   0.64827   0.00000  Uiso   1.00
N274   N     0.31819   0.98829   0.52575   0.00000  Uiso   1.00
N275   N     0.02040   0.06719   0.72365   0.00000  Uiso   1.00
N276   N     0.31480   0.35704   0.70432   0.00000  Uiso   1.00
C277   C     0.88289   0.29883   0.91946   0.00000  Uiso   1.00
C278   C     0.78494   0.35370   0.93838   0.00000  Uiso   1.00
C279   C     0.76131   0.36838   0.98595   0.00000  Uiso   1.00
C280   C     0.66786   0.42048   0.99594   0.00000  Uiso   1.00
C281   C     0.52607   0.50022   0.03085   0.00000  Uiso   1.00
C282   C     0.98583   0.33473   0.88644   0.00000  Uiso   1.00
C283   C     0.13110   0.33343   0.89033   0.00000  Uiso   1.00
C284   C     0.20675   0.36955   0.85660   0.00000  Uiso   1.00
C285   C     0.37684   0.41979   0.81085   0.00000  Uiso   1.00
C286   C     0.79298   0.25360   0.88776   0.00000  Uiso   1.00
C287   C     0.77613   0.18408   0.89274   0.00000  Uiso   1.00
C288   C     0.68943   0.15189   0.86011   0.00000  Uiso   1.00
C289   C     0.56009   0.07616   0.81639   0.00000  Uiso   1.00
C290   C     0.75894   0.36527   0.85263   0.00000  Uiso   1.00
C291   C     0.71762   0.38979   0.90208   0.00000  Uiso   1.00
C292   C     0.62417   0.44189   0.91201   0.00000  Uiso   1.00
C293   C     0.60041   0.45664   0.95958   0.00000  Uiso   1.00
C294   C     0.91851   0.37081   0.85014   0.00000  Uiso   1.00
C295   C     0.99396   0.40694   0.81640   0.00000  Uiso   1.00
C296   C     0.13931   0.40571   0.82024   0.00000  Uiso   1.00
C297   C     0.72565   0.28968   0.85146   0.00000  Uiso   1.00
C298   C     0.63898   0.25760   0.81881   0.00000  Uiso   1.00
C299   C     0.62199   0.18805   0.82374   0.00000  Uiso   1.00
H300   H     0.93531   0.27073   0.94772   0.00000  Uiso   1.00
H301   H     0.81345   0.34044   0.01403   0.00000  Uiso   1.00
H302   H     0.18317   0.30549   0.91842   0.00000  Uiso   1.00
H303   H     0.82824   0.15617   0.92084   0.00000  Uiso   1.00
H304   H     0.64868   0.43366   0.07154   0.00000  Uiso   1.00
H305   H     0.42827   0.35995   0.86994   0.00000  Uiso   1.00
H306   H     0.67984   0.04507   0.87503   0.00000  Uiso   1.00
H307   H     0.70653   0.39337   0.82437   0.00000  Uiso   1.00
H308   H     0.57209   0.46981   0.88391   0.00000  Uiso   1.00
H309   H     0.94183   0.43486   0.78831   0.00000  Uiso   1.00
H310   H     0.58690   0.28554   0.79072   0.00000  Uiso   1.00
H311   H     0.45279   0.53866   0.96593   0.00000  Uiso   1.00
H312   H     0.23239   0.46495   0.76434   0.00000  Uiso   1.00
H313   H     0.48395   0.15007   0.76942   0.00000  Uiso   1.00
O314   O     0.46647   0.53424   0.06013   0.00000  Uiso   1.00
O315   O     0.48926   0.43753   0.79564   0.00000  Uiso   1.00
O316   O     0.50733   0.02442   0.80231   0.00000  Uiso   1.00
N317   N     0.62100   0.44787   0.03851   0.00000  Uiso   1.00
N318   N     0.34987   0.37897   0.85004   0.00000  Uiso   1.00
N319   N     0.65018   0.08458   0.85478   0.00000  Uiso   1.00
N320   N     0.51560   0.50437   0.98168   0.00000  Uiso   1.00
N321   N     0.24447   0.43547   0.79321   0.00000  Uiso   1.00
N322   N     0.54478   0.14108   0.79796   0.00000  Uiso   1.00
C323   C     0.32794   0.80214   0.09024   0.00000  Uiso   1.00
C324   C     0.42201   0.85816   0.07072   0.00000  Uiso   1.00
C325   C     0.43914   0.87437   0.02308   0.00000  Uiso   1.00
C326   C     0.52993   0.92733   0.01250   0.00000  Uiso   1.00
C327   C     0.66513   0.00894   0.97674   0.00000  Uiso   1.00
C328   C     0.22847   0.83643   0.12526   0.00000  Uiso   1.00
C329   C     0.08288   0.83435   0.12348   0.00000  Uiso   1.00
C330   C     0.01075   0.86901   0.15881   0.00000  Uiso   1.00
C331   C     0.84549   0.91684   0.20774   0.00000  Uiso   1.00
C332   C     0.42295   0.75655   0.11992   0.00000  Uiso   1.00
C333   C     0.44085   0.68730   0.11367   0.00000  Uiso   1.00
C334   C     0.53244   0.65470   0.14452   0.00000  Uiso   1.00
C335   C     0.66913   0.57851   0.18517   0.00000  Uiso   1.00
C336   C     0.45872   0.86737   0.15616   0.00000  Uiso   1.00
C337   C     0.49304   0.89359   0.10652   0.00000  Uiso   1.00
C338   C     0.58383   0.94654   0.09601   0.00000  Uiso   1.00
C339   C     0.60110   0.96282   0.04837   0.00000  Uiso   1.00
C340   C     0.29950   0.87186   0.16106   0.00000  Uiso   1.00
C341   C     0.22757   0.90652   0.19641   0.00000  Uiso   1.00
C342   C     0.08191   0.90450   0.19468   0.00000  Uiso   1.00
C343   C     0.49399   0.79198   0.15573   0.00000  Uiso   1.00
C344   C     0.58555   0.75948   0.18660   0.00000  Uiso   1.00
C345   C     0.60360   0.69020   0.18039   0.00000  Uiso   1.00
H346   H     0.27263   0.77456   0.06237   0.00000  Uiso   1.00
H347   H     0.38413   0.84694   0.99538   0.00000  Uiso   1.00
H348   H     0.02793   0.80693   0.09577   0.00000  Uiso   1.00
H349   H     0.38586   0.65990   0.08596   0.00000  Uiso   1.00
H350   H     0.53905   0.94283   0.93691   0.00000  Uiso   1.00
H351   H     0.78798   0.85843   0.14858   0.00000  Uiso   1.00
H352   H     0.54273   0.54841   0.12790   0.00000  Uiso   1.00
H353   H     0.51402   0.89496   0.18404   0.00000  Uiso   1.00
H354   H     0.63879   0.97395   0.12373   0.00000  Uiso   1.00
H355   H     0.28258   0.93393   0.22411   0.00000  Uiso   1.00
H356   H     0.64051   0.78691   0.21430   0.00000  Uiso   1.00
H357   H     0.74573   0.04592   0.04108   0.00000  Uiso   1.00
H358   H     0.99466   0.96152   0.25275   0.00000  Uiso   1.00
H359   H     0.74942   0.65149   0.23207   0.00000  Uiso   1.00
O360   O     0.72007   0.04418   0.94712   0.00000  Uiso   1.00
O361   O     0.73470   0.93344   0.22484   0.00000  Uiso   1.00
O362   O     0.72492   0.52669   0.19770   0.00000  Uiso   1.00
N363   N     0.57059   0.95624   0.96970   0.00000  Uiso   1.00
N364   N     0.86839   0.87735   0.16760   0.00000  Uiso   1.00
N365   N     0.57399   0.58749   0.14827   0.00000  Uiso   1.00
N366   N     0.68181   0.01171   0.02575   0.00000  Uiso   1.00
N367   N     0.97960   0.93281   0.22365   0.00000  Uiso   1.00
N368   N     0.68520   0.64296   0.20432   0.00000  Uiso   1.00
