data_job_01183
_audit_creation_date              2018-12-19
_audit_creation_method            'Materials Studio'
_symmetry_space_group_name_H-M    'P1'
_symmetry_Int_Tables_number       1
_symmetry_cell_setting            triclinic
loop_
_symmetry_equiv_pos_as_xyz
  x,y,z
_cell_length_a                    8.6767
_cell_length_b                    16.5745
_cell_length_c                    16.9778
_cell_angle_alpha                 90.0000
_cell_angle_beta                  84.8862
_cell_angle_gamma                 90.0000
loop_
_atom_site_label
_atom_site_type_symbol
_atom_site_fract_x
_atom_site_fract_y
_atom_site_fract_z
_atom_site_U_iso_or_equiv
_atom_site_adp_type
_atom_site_occupancy
C1     C     0.09585   0.02071   0.77601   0.00000  Uiso   1.00
C2     C     0.97071   0.07645   0.74933   0.00000  Uiso   1.00
C3     C     0.96602   0.15966   0.75834   0.00000  Uiso   1.00
C4     C     0.84181   0.19977   0.73000   0.00000  Uiso   1.00
C5     C     0.66499   0.29266   0.69409   0.00000  Uiso   1.00
C6     C     0.01217   0.95870   0.83069   0.00000  Uiso   1.00
C7     C     0.04235   0.94289   0.90811   0.00000  Uiso   1.00
C8     C     0.95304   0.88387   0.94826   0.00000  Uiso   1.00
C9     C     0.84067   0.79390   0.03865   0.00000  Uiso   1.00
C10    C     0.15922   0.97440   0.70253   0.00000  Uiso   1.00
C11    C     0.31305   0.97178   0.67220   0.00000  Uiso   1.00
C12    C     0.34756   0.92596   0.60446   0.00000  Uiso   1.00
C13    C     0.46350   0.86037   0.49586   0.00000  Uiso   1.00
C14    C     0.88361   0.94399   0.70965   0.00000  Uiso   1.00
C15    C     0.85543   0.03478   0.71329   0.00000  Uiso   1.00
C16    C     0.73120   0.07478   0.68492   0.00000  Uiso   1.00
C17    C     0.72632   0.15803   0.69389   0.00000  Uiso   1.00
C18    C     0.89689   0.91702   0.79465   0.00000  Uiso   1.00
C19    C     0.80753   0.85801   0.83469   0.00000  Uiso   1.00
C20    C     0.83755   0.84212   0.91215   0.00000  Uiso   1.00
C21    C     0.04394   0.93273   0.66649   0.00000  Uiso   1.00
C22    C     0.07822   0.88690   0.59878   0.00000  Uiso   1.00
C23    C     0.23207   0.88421   0.56835   0.00000  Uiso   1.00
H24    H     0.18560   0.05315   0.80408   0.00000  Uiso   1.00
H25    H     0.05525   0.19188   0.78625   0.00000  Uiso   1.00
H26    H     0.13158   0.97514   0.93599   0.00000  Uiso   1.00
H27    H     0.40223   0.00403   0.70011   0.00000  Uiso   1.00
H28    H     0.85986   0.32732   0.75061   0.00000  Uiso   1.00
H29    H     0.02084   0.87029   0.06634   0.00000  Uiso   1.00
H30    H     0.59157   0.93120   0.56895   0.00000  Uiso   1.00
H31    H     0.79385   0.91154   0.68158   0.00000  Uiso   1.00
H32    H     0.64200   0.04251   0.65703   0.00000  Uiso   1.00
H33    H     0.71833   0.82577   0.80677   0.00000  Uiso   1.00
H34    H     0.98898   0.85466   0.57090   0.00000  Uiso   1.00
H35    H     0.52445   0.20608   0.64574   0.00000  Uiso   1.00
H36    H     0.68543   0.74905   0.96146   0.00000  Uiso   1.00
H37    H     0.25615   0.80997   0.46408   0.00000  Uiso   1.00
O38    O     0.59930   0.35541   0.68426   0.00000  Uiso   1.00
O39    O     0.81052   0.75580   0.09847   0.00000  Uiso   1.00
O40    O     0.55929   0.83572   0.44591   0.00000  Uiso   1.00
N41    N     0.80178   0.28081   0.72928   0.00000  Uiso   1.00
N42    N     0.95226   0.85353   0.02447   0.00000  Uiso   1.00
N43    N     0.48585   0.91046   0.55947   0.00000  Uiso   1.00
N44    N     0.62129   0.21558   0.67285   0.00000  Uiso   1.00
N45    N     0.77178   0.78829   0.96804   0.00000  Uiso   1.00
N46    N     0.30537   0.84522   0.50304   0.00000  Uiso   1.00
C47    C     0.90415   0.52071   0.72399   0.00000  Uiso   1.00
C48    C     0.02929   0.57645   0.75067   0.00000  Uiso   1.00
C49    C     0.03398   0.65966   0.74166   0.00000  Uiso   1.00
C50    C     0.15819   0.69977   0.77000   0.00000  Uiso   1.00
C51    C     0.33501   0.79266   0.80591   0.00000  Uiso   1.00
C52    C     0.98783   0.45870   0.66931   0.00000  Uiso   1.00
C53    C     0.95765   0.44289   0.59189   0.00000  Uiso   1.00
C54    C     0.04696   0.38387   0.55174   0.00000  Uiso   1.00
C55    C     0.15933   0.29390   0.46135   0.00000  Uiso   1.00
C56    C     0.84078   0.47440   0.79747   0.00000  Uiso   1.00
C57    C     0.68695   0.47178   0.82780   0.00000  Uiso   1.00
C58    C     0.65244   0.42596   0.89554   0.00000  Uiso   1.00
C59    C     0.53650   0.36037   0.00414   0.00000  Uiso   1.00
C60    C     0.11639   0.44399   0.79035   0.00000  Uiso   1.00
C61    C     0.14457   0.53478   0.78671   0.00000  Uiso   1.00
C62    C     0.26880   0.57478   0.81508   0.00000  Uiso   1.00
C63    C     0.27368   0.65803   0.80611   0.00000  Uiso   1.00
C64    C     0.10311   0.41702   0.70535   0.00000  Uiso   1.00
C65    C     0.19247   0.35801   0.66531   0.00000  Uiso   1.00
C66    C     0.16245   0.34212   0.58785   0.00000  Uiso   1.00
C67    C     0.95606   0.43273   0.83351   0.00000  Uiso   1.00
C68    C     0.92178   0.38690   0.90122   0.00000  Uiso   1.00
C69    C     0.76793   0.38421   0.93165   0.00000  Uiso   1.00
H70    H     0.81440   0.55315   0.69592   0.00000  Uiso   1.00
H71    H     0.94475   0.69188   0.71375   0.00000  Uiso   1.00
H72    H     0.86842   0.47514   0.56401   0.00000  Uiso   1.00
H73    H     0.59777   0.50403   0.79989   0.00000  Uiso   1.00
H74    H     0.14014   0.82732   0.74939   0.00000  Uiso   1.00
H75    H     0.97916   0.37029   0.43366   0.00000  Uiso   1.00
H76    H     0.40843   0.43120   0.93105   0.00000  Uiso   1.00
H77    H     0.20615   0.41154   0.81842   0.00000  Uiso   1.00
H78    H     0.35800   0.54251   0.84297   0.00000  Uiso   1.00
H79    H     0.28167   0.32577   0.69323   0.00000  Uiso   1.00
H80    H     0.01102   0.35466   0.92910   0.00000  Uiso   1.00
H81    H     0.47555   0.70608   0.85426   0.00000  Uiso   1.00
H82    H     0.31457   0.24905   0.53854   0.00000  Uiso   1.00
H83    H     0.74385   0.30997   0.03592   0.00000  Uiso   1.00
O84    O     0.40070   0.85541   0.81574   0.00000  Uiso   1.00
O85    O     0.18948   0.25580   0.40153   0.00000  Uiso   1.00
O86    O     0.44071   0.33572   0.05409   0.00000  Uiso   1.00
N87    N     0.19822   0.78081   0.77072   0.00000  Uiso   1.00
N88    N     0.04774   0.35353   0.47553   0.00000  Uiso   1.00
N89    N     0.51415   0.41046   0.94053   0.00000  Uiso   1.00
N90    N     0.37871   0.71558   0.82715   0.00000  Uiso   1.00
N91    N     0.22822   0.28829   0.53196   0.00000  Uiso   1.00
N92    N     0.69463   0.34522   0.99696   0.00000  Uiso   1.00
C93    C     0.90415   0.97929   0.22399   0.00000  Uiso   1.00
C94    C     0.02929   0.92355   0.25067   0.00000  Uiso   1.00
C95    C     0.03398   0.84034   0.24166   0.00000  Uiso   1.00
C96    C     0.15819   0.80023   0.27000   0.00000  Uiso   1.00
C97    C     0.33501   0.70734   0.30591   0.00000  Uiso   1.00
C98    C     0.98783   0.04130   0.16931   0.00000  Uiso   1.00
C99    C     0.95765   0.05711   0.09189   0.00000  Uiso   1.00
C100   C     0.04696   0.11613   0.05174   0.00000  Uiso   1.00
C101   C     0.15933   0.20610   0.96135   0.00000  Uiso   1.00
C102   C     0.84078   0.02560   0.29747   0.00000  Uiso   1.00
C103   C     0.68695   0.02822   0.32780   0.00000  Uiso   1.00
C104   C     0.65244   0.07404   0.39554   0.00000  Uiso   1.00
C105   C     0.53650   0.13963   0.50414   0.00000  Uiso   1.00
C106   C     0.11639   0.05601   0.29035   0.00000  Uiso   1.00
C107   C     0.14457   0.96522   0.28671   0.00000  Uiso   1.00
C108   C     0.26880   0.92522   0.31508   0.00000  Uiso   1.00
C109   C     0.27368   0.84197   0.30611   0.00000  Uiso   1.00
C110   C     0.10311   0.08298   0.20535   0.00000  Uiso   1.00
C111   C     0.19247   0.14199   0.16531   0.00000  Uiso   1.00
C112   C     0.16245   0.15788   0.08785   0.00000  Uiso   1.00
C113   C     0.95606   0.06727   0.33351   0.00000  Uiso   1.00
C114   C     0.92178   0.11310   0.40122   0.00000  Uiso   1.00
C115   C     0.76793   0.11579   0.43165   0.00000  Uiso   1.00
H116   H     0.81440   0.94685   0.19592   0.00000  Uiso   1.00
H117   H     0.94475   0.80812   0.21375   0.00000  Uiso   1.00
H118   H     0.86842   0.02486   0.06401   0.00000  Uiso   1.00
H119   H     0.59777   0.99597   0.29989   0.00000  Uiso   1.00
H120   H     0.14014   0.67268   0.24939   0.00000  Uiso   1.00
H121   H     0.97916   0.12971   0.93366   0.00000  Uiso   1.00
H122   H     0.40843   0.06880   0.43105   0.00000  Uiso   1.00
H123   H     0.20615   0.08846   0.31842   0.00000  Uiso   1.00
H124   H     0.35800   0.95749   0.34297   0.00000  Uiso   1.00
H125   H     0.28167   0.17423   0.19323   0.00000  Uiso   1.00
H126   H     0.01102   0.14534   0.42910   0.00000  Uiso   1.00
H127   H     0.47555   0.79392   0.35426   0.00000  Uiso   1.00
H128   H     0.31457   0.25095   0.03854   0.00000  Uiso   1.00
H129   H     0.74385   0.19003   0.53592   0.00000  Uiso   1.00
O130   O     0.40070   0.64459   0.31574   0.00000  Uiso   1.00
O131   O     0.18948   0.24420   0.90153   0.00000  Uiso   1.00
O132   O     0.44071   0.16428   0.55409   0.00000  Uiso   1.00
N133   N     0.19822   0.71919   0.27072   0.00000  Uiso   1.00
N134   N     0.04774   0.14647   0.97553   0.00000  Uiso   1.00
N135   N     0.51415   0.08954   0.44053   0.00000  Uiso   1.00
N136   N     0.37871   0.78442   0.32715   0.00000  Uiso   1.00
N137   N     0.22822   0.21171   0.03196   0.00000  Uiso   1.00
N138   N     0.69463   0.15478   0.49696   0.00000  Uiso   1.00
C139   C     0.09585   0.47929   0.27601   0.00000  Uiso   1.00
C140   C     0.97071   0.42355   0.24933   0.00000  Uiso   1.00
C141   C     0.96602   0.34034   0.25834   0.00000  Uiso   1.00
C142   C     0.84181   0.30023   0.23000   0.00000  Uiso   1.00
C143   C     0.66499   0.20734   0.19409   0.00000  Uiso   1.00
C144   C     0.01217   0.54130   0.33069   0.00000  Uiso   1.00
C145   C     0.04235   0.55711   0.40811   0.00000  Uiso   1.00
C146   C     0.95304   0.61613   0.44826   0.00000  Uiso   1.00
C147   C     0.84067   0.70610   0.53865   0.00000  Uiso   1.00
C148   C     0.15922   0.52560   0.20253   0.00000  Uiso   1.00
C149   C     0.31305   0.52822   0.17220   0.00000  Uiso   1.00
C150   C     0.34756   0.57404   0.10446   0.00000  Uiso   1.00
C151   C     0.46350   0.63963   0.99586   0.00000  Uiso   1.00
C152   C     0.88361   0.55601   0.20965   0.00000  Uiso   1.00
C153   C     0.85543   0.46522   0.21329   0.00000  Uiso   1.00
C154   C     0.73120   0.42522   0.18492   0.00000  Uiso   1.00
C155   C     0.72632   0.34197   0.19389   0.00000  Uiso   1.00
C156   C     0.89689   0.58298   0.29465   0.00000  Uiso   1.00
C157   C     0.80753   0.64199   0.33469   0.00000  Uiso   1.00
C158   C     0.83755   0.65788   0.41215   0.00000  Uiso   1.00
C159   C     0.04394   0.56727   0.16649   0.00000  Uiso   1.00
C160   C     0.07822   0.61310   0.09878   0.00000  Uiso   1.00
C161   C     0.23207   0.61579   0.06835   0.00000  Uiso   1.00
H162   H     0.18560   0.44685   0.30408   0.00000  Uiso   1.00
H163   H     0.05525   0.30812   0.28625   0.00000  Uiso   1.00
H164   H     0.13158   0.52486   0.43599   0.00000  Uiso   1.00
H165   H     0.40223   0.49597   0.20011   0.00000  Uiso   1.00
H166   H     0.85986   0.17268   0.25061   0.00000  Uiso   1.00
H167   H     0.02084   0.62971   0.56634   0.00000  Uiso   1.00
H168   H     0.59157   0.56880   0.06895   0.00000  Uiso   1.00
H169   H     0.79385   0.58846   0.18158   0.00000  Uiso   1.00
H170   H     0.64200   0.45749   0.15703   0.00000  Uiso   1.00
H171   H     0.71833   0.67423   0.30677   0.00000  Uiso   1.00
H172   H     0.98898   0.64534   0.07090   0.00000  Uiso   1.00
H173   H     0.52445   0.29392   0.14574   0.00000  Uiso   1.00
H174   H     0.68543   0.75095   0.46146   0.00000  Uiso   1.00
H175   H     0.25615   0.69003   0.96408   0.00000  Uiso   1.00
O176   O     0.59930   0.14459   0.18426   0.00000  Uiso   1.00
O177   O     0.81052   0.74420   0.59847   0.00000  Uiso   1.00
O178   O     0.55929   0.66428   0.94591   0.00000  Uiso   1.00
N179   N     0.80178   0.21919   0.22928   0.00000  Uiso   1.00
N180   N     0.95226   0.64647   0.52447   0.00000  Uiso   1.00
N181   N     0.48585   0.58954   0.05947   0.00000  Uiso   1.00
N182   N     0.62129   0.28442   0.17285   0.00000  Uiso   1.00
N183   N     0.77178   0.71171   0.46804   0.00000  Uiso   1.00
N184   N     0.30537   0.65478   0.00304   0.00000  Uiso   1.00
