data_job_00697
_audit_creation_date              2018-12-19
_audit_creation_method            'Materials Studio'
_symmetry_space_group_name_H-M    'P1'
_symmetry_Int_Tables_number       1
_symmetry_cell_setting            triclinic
loop_
_symmetry_equiv_pos_as_xyz
  x,y,z
_cell_length_a                    19.7817
_cell_length_b                    14.6116
_cell_length_c                    9.8236
_cell_angle_alpha                 90.0000
_cell_angle_beta                  80.7989
_cell_angle_gamma                 90.0000
loop_
_atom_site_label
_atom_site_type_symbol
_atom_site_fract_x
_atom_site_fract_y
_atom_site_fract_z
_atom_site_U_iso_or_equiv
_atom_site_adp_type
_atom_site_occupancy
C1     C     0.24214   0.73933   0.37166   0.00000  Uiso   1.00
C2     C     0.27018   0.81737   0.27593   0.00000  Uiso   1.00
C3     C     0.33888   0.83477   0.22851   0.00000  Uiso   1.00
C4     C     0.35402   0.90951   0.14174   0.00000  Uiso   1.00
C5     C     0.40543   0.02230   0.99891   0.00000  Uiso   1.00
C6     C     0.19793   0.78405   0.49521   0.00000  Uiso   1.00
C7     C     0.20587   0.77341   0.63215   0.00000  Uiso   1.00
C8     C     0.16018   0.82010   0.72996   0.00000  Uiso   1.00
C9     C     0.09938   0.88110   0.92757   0.00000  Uiso   1.00
C10    C     0.19304   0.68636   0.29604   0.00000  Uiso   1.00
C11    C     0.19686   0.59357   0.26556   0.00000  Uiso   1.00
C12    C     0.14705   0.55801   0.19572   0.00000  Uiso   1.00
C13    C     0.07866   0.46733   0.08410   0.00000  Uiso   1.00
C14    C     0.14688   0.84115   0.30188   0.00000  Uiso   1.00
C15    C     0.21843   0.87267   0.23803   0.00000  Uiso   1.00
C16    C     0.23348   0.94741   0.15130   0.00000  Uiso   1.00
C17    C     0.30219   0.96491   0.10376   0.00000  Uiso   1.00
C18    C     0.14618   0.83935   0.45731   0.00000  Uiso   1.00
C19    C     0.10047   0.88606   0.55494   0.00000  Uiso   1.00
C20    C     0.10834   0.87550   0.69199   0.00000  Uiso   1.00
C21    C     0.14130   0.74166   0.25814   0.00000  Uiso   1.00
C22    C     0.09146   0.70623   0.18835   0.00000  Uiso   1.00
C23    C     0.09521   0.61341   0.15775   0.00000  Uiso   1.00
H24    H     0.28243   0.69628   0.40118   0.00000  Uiso   1.00
H25    H     0.37891   0.79196   0.25788   0.00000  Uiso   1.00
H26    H     0.24591   0.73060   0.66145   0.00000  Uiso   1.00
H27    H     0.23691   0.55080   0.29491   0.00000  Uiso   1.00
H28    H     0.46306   0.92244   0.08232   0.00000  Uiso   1.00
H29    H     0.18262   0.79305   0.93328   0.00000  Uiso   1.00
H30    H     0.16363   0.41390   0.16036   0.00000  Uiso   1.00
H31    H     0.10659   0.88420   0.27237   0.00000  Uiso   1.00
H32    H     0.19342   0.99020   0.12199   0.00000  Uiso   1.00
H33    H     0.06043   0.92884   0.52557   0.00000  Uiso   1.00
H34    H     0.05143   0.74904   0.15903   0.00000  Uiso   1.00
H35    H     0.31251   0.08334   0.97204   0.00000  Uiso   1.00
H36    H     0.03207   0.95395   0.82300   0.00000  Uiso   1.00
H37    H     0.01309   0.57480   0.05008   0.00000  Uiso   1.00
O38    O     0.44808   0.06925   0.93062   0.00000  Uiso   1.00
O39    O     0.08015   0.89948   0.04704   0.00000  Uiso   1.00
O40    O     0.05524   0.40204   0.03299   0.00000  Uiso   1.00
N41    N     0.41571   0.94575   0.07698   0.00000  Uiso   1.00
N42    N     0.15352   0.82480   0.87257   0.00000  Uiso   1.00
N43    N     0.13576   0.47031   0.15000   0.00000  Uiso   1.00
N44    N     0.33470   0.03233   0.01764   0.00000  Uiso   1.00
N45    N     0.07251   0.91137   0.81323   0.00000  Uiso   1.00
N46    N     0.05475   0.55689   0.09065   0.00000  Uiso   1.00
C47    C     0.75786   0.73933   0.12834   0.00000  Uiso   1.00
C48    C     0.72982   0.81737   0.22407   0.00000  Uiso   1.00
C49    C     0.66112   0.83477   0.27149   0.00000  Uiso   1.00
C50    C     0.64598   0.90951   0.35826   0.00000  Uiso   1.00
C51    C     0.59457   0.02230   0.50109   0.00000  Uiso   1.00
C52    C     0.80207   0.78405   0.00479   0.00000  Uiso   1.00
C53    C     0.79413   0.77341   0.86785   0.00000  Uiso   1.00
C54    C     0.83982   0.82010   0.77004   0.00000  Uiso   1.00
C55    C     0.90062   0.88110   0.57243   0.00000  Uiso   1.00
C56    C     0.80696   0.68636   0.20396   0.00000  Uiso   1.00
C57    C     0.80314   0.59357   0.23444   0.00000  Uiso   1.00
C58    C     0.85295   0.55801   0.30428   0.00000  Uiso   1.00
C59    C     0.92134   0.46733   0.41590   0.00000  Uiso   1.00
C60    C     0.85312   0.84115   0.19812   0.00000  Uiso   1.00
C61    C     0.78157   0.87267   0.26197   0.00000  Uiso   1.00
C62    C     0.76652   0.94741   0.34870   0.00000  Uiso   1.00
C63    C     0.69781   0.96491   0.39624   0.00000  Uiso   1.00
C64    C     0.85382   0.83935   0.04269   0.00000  Uiso   1.00
C65    C     0.89953   0.88606   0.94506   0.00000  Uiso   1.00
C66    C     0.89166   0.87550   0.80801   0.00000  Uiso   1.00
C67    C     0.85870   0.74166   0.24186   0.00000  Uiso   1.00
C68    C     0.90854   0.70623   0.31165   0.00000  Uiso   1.00
C69    C     0.90479   0.61341   0.34225   0.00000  Uiso   1.00
H70    H     0.71757   0.69628   0.09882   0.00000  Uiso   1.00
H71    H     0.62109   0.79196   0.24212   0.00000  Uiso   1.00
H72    H     0.75409   0.73060   0.83855   0.00000  Uiso   1.00
H73    H     0.76309   0.55080   0.20509   0.00000  Uiso   1.00
H74    H     0.53694   0.92244   0.41768   0.00000  Uiso   1.00
H75    H     0.81738   0.79305   0.56672   0.00000  Uiso   1.00
H76    H     0.83637   0.41390   0.33964   0.00000  Uiso   1.00
H77    H     0.89341   0.88420   0.22763   0.00000  Uiso   1.00
H78    H     0.80658   0.99020   0.37801   0.00000  Uiso   1.00
H79    H     0.93957   0.92884   0.97443   0.00000  Uiso   1.00
H80    H     0.94857   0.74904   0.34097   0.00000  Uiso   1.00
H81    H     0.68749   0.08334   0.52796   0.00000  Uiso   1.00
H82    H     0.96793   0.95395   0.67700   0.00000  Uiso   1.00
H83    H     0.98691   0.57480   0.44992   0.00000  Uiso   1.00
O84    O     0.55192   0.06925   0.56938   0.00000  Uiso   1.00
O85    O     0.91985   0.89948   0.45296   0.00000  Uiso   1.00
O86    O     0.94476   0.40204   0.46701   0.00000  Uiso   1.00
N87    N     0.58429   0.94575   0.42302   0.00000  Uiso   1.00
N88    N     0.84648   0.82480   0.62743   0.00000  Uiso   1.00
N89    N     0.86424   0.47031   0.35000   0.00000  Uiso   1.00
N90    N     0.66530   0.03233   0.48236   0.00000  Uiso   1.00
N91    N     0.92749   0.91137   0.68677   0.00000  Uiso   1.00
N92    N     0.94525   0.55689   0.40935   0.00000  Uiso   1.00
C93    C     0.75786   0.26067   0.62834   0.00000  Uiso   1.00
C94    C     0.72982   0.18263   0.72407   0.00000  Uiso   1.00
C95    C     0.66112   0.16523   0.77149   0.00000  Uiso   1.00
C96    C     0.64598   0.09049   0.85826   0.00000  Uiso   1.00
C97    C     0.59457   0.97770   0.00109   0.00000  Uiso   1.00
C98    C     0.80207   0.21595   0.50479   0.00000  Uiso   1.00
C99    C     0.79413   0.22659   0.36785   0.00000  Uiso   1.00
C100   C     0.83982   0.17990   0.27004   0.00000  Uiso   1.00
C101   C     0.90062   0.11890   0.07243   0.00000  Uiso   1.00
C102   C     0.80696   0.31364   0.70396   0.00000  Uiso   1.00
C103   C     0.80314   0.40643   0.73444   0.00000  Uiso   1.00
C104   C     0.85295   0.44199   0.80428   0.00000  Uiso   1.00
C105   C     0.92134   0.53267   0.91590   0.00000  Uiso   1.00
C106   C     0.85312   0.15885   0.69812   0.00000  Uiso   1.00
C107   C     0.78157   0.12733   0.76197   0.00000  Uiso   1.00
C108   C     0.76652   0.05259   0.84870   0.00000  Uiso   1.00
C109   C     0.69781   0.03509   0.89624   0.00000  Uiso   1.00
C110   C     0.85382   0.16065   0.54269   0.00000  Uiso   1.00
C111   C     0.89953   0.11394   0.44506   0.00000  Uiso   1.00
C112   C     0.89166   0.12450   0.30801   0.00000  Uiso   1.00
C113   C     0.85870   0.25834   0.74186   0.00000  Uiso   1.00
C114   C     0.90854   0.29377   0.81165   0.00000  Uiso   1.00
C115   C     0.90479   0.38659   0.84225   0.00000  Uiso   1.00
H116   H     0.71757   0.30372   0.59882   0.00000  Uiso   1.00
H117   H     0.62109   0.20804   0.74212   0.00000  Uiso   1.00
H118   H     0.75409   0.26940   0.33855   0.00000  Uiso   1.00
H119   H     0.76309   0.44920   0.70509   0.00000  Uiso   1.00
H120   H     0.53694   0.07756   0.91768   0.00000  Uiso   1.00
H121   H     0.81738   0.20695   0.06672   0.00000  Uiso   1.00
H122   H     0.83637   0.58610   0.83964   0.00000  Uiso   1.00
H123   H     0.89341   0.11580   0.72763   0.00000  Uiso   1.00
H124   H     0.80658   0.00980   0.87801   0.00000  Uiso   1.00
H125   H     0.93957   0.07116   0.47443   0.00000  Uiso   1.00
H126   H     0.94857   0.25096   0.84097   0.00000  Uiso   1.00
H127   H     0.68749   0.91666   0.02796   0.00000  Uiso   1.00
H128   H     0.96793   0.04605   0.17700   0.00000  Uiso   1.00
H129   H     0.98691   0.42520   0.94992   0.00000  Uiso   1.00
O130   O     0.55192   0.93075   0.06938   0.00000  Uiso   1.00
O131   O     0.91985   0.10052   0.95296   0.00000  Uiso   1.00
O132   O     0.94476   0.59796   0.96701   0.00000  Uiso   1.00
N133   N     0.58429   0.05425   0.92302   0.00000  Uiso   1.00
N134   N     0.84648   0.17520   0.12743   0.00000  Uiso   1.00
N135   N     0.86424   0.52969   0.85000   0.00000  Uiso   1.00
N136   N     0.66530   0.96767   0.98236   0.00000  Uiso   1.00
N137   N     0.92749   0.08863   0.18677   0.00000  Uiso   1.00
N138   N     0.94525   0.44311   0.90935   0.00000  Uiso   1.00
C139   C     0.24214   0.26067   0.87166   0.00000  Uiso   1.00
C140   C     0.27018   0.18263   0.77593   0.00000  Uiso   1.00
C141   C     0.33888   0.16523   0.72851   0.00000  Uiso   1.00
C142   C     0.35402   0.09049   0.64174   0.00000  Uiso   1.00
C143   C     0.40543   0.97770   0.49891   0.00000  Uiso   1.00
C144   C     0.19793   0.21595   0.99521   0.00000  Uiso   1.00
C145   C     0.20587   0.22659   0.13215   0.00000  Uiso   1.00
C146   C     0.16018   0.17990   0.22996   0.00000  Uiso   1.00
C147   C     0.09938   0.11890   0.42757   0.00000  Uiso   1.00
C148   C     0.19304   0.31364   0.79604   0.00000  Uiso   1.00
C149   C     0.19686   0.40643   0.76556   0.00000  Uiso   1.00
C150   C     0.14705   0.44199   0.69572   0.00000  Uiso   1.00
C151   C     0.07866   0.53267   0.58410   0.00000  Uiso   1.00
C152   C     0.14688   0.15885   0.80188   0.00000  Uiso   1.00
C153   C     0.21843   0.12733   0.73803   0.00000  Uiso   1.00
C154   C     0.23348   0.05259   0.65130   0.00000  Uiso   1.00
C155   C     0.30219   0.03509   0.60376   0.00000  Uiso   1.00
C156   C     0.14618   0.16065   0.95731   0.00000  Uiso   1.00
C157   C     0.10047   0.11394   0.05494   0.00000  Uiso   1.00
C158   C     0.10834   0.12450   0.19199   0.00000  Uiso   1.00
C159   C     0.14130   0.25834   0.75814   0.00000  Uiso   1.00
C160   C     0.09146   0.29377   0.68835   0.00000  Uiso   1.00
C161   C     0.09521   0.38659   0.65775   0.00000  Uiso   1.00
H162   H     0.28243   0.30372   0.90118   0.00000  Uiso   1.00
H163   H     0.37891   0.20804   0.75788   0.00000  Uiso   1.00
H164   H     0.24591   0.26940   0.16145   0.00000  Uiso   1.00
H165   H     0.23691   0.44920   0.79491   0.00000  Uiso   1.00
H166   H     0.46306   0.07756   0.58232   0.00000  Uiso   1.00
H167   H     0.18262   0.20695   0.43328   0.00000  Uiso   1.00
H168   H     0.16363   0.58610   0.66036   0.00000  Uiso   1.00
H169   H     0.10659   0.11580   0.77237   0.00000  Uiso   1.00
H170   H     0.19342   0.00980   0.62199   0.00000  Uiso   1.00
H171   H     0.06043   0.07116   0.02557   0.00000  Uiso   1.00
H172   H     0.05143   0.25096   0.65903   0.00000  Uiso   1.00
H173   H     0.31251   0.91666   0.47204   0.00000  Uiso   1.00
H174   H     0.03207   0.04605   0.32300   0.00000  Uiso   1.00
H175   H     0.01309   0.42520   0.55008   0.00000  Uiso   1.00
O176   O     0.44808   0.93075   0.43062   0.00000  Uiso   1.00
O177   O     0.08015   0.10052   0.54704   0.00000  Uiso   1.00
O178   O     0.05524   0.59796   0.53299   0.00000  Uiso   1.00
N179   N     0.41571   0.05425   0.57698   0.00000  Uiso   1.00
N180   N     0.15352   0.17520   0.37257   0.00000  Uiso   1.00
N181   N     0.13576   0.52969   0.65000   0.00000  Uiso   1.00
N182   N     0.33470   0.96767   0.51764   0.00000  Uiso   1.00
N183   N     0.07251   0.08863   0.31323   0.00000  Uiso   1.00
N184   N     0.05475   0.44311   0.59065   0.00000  Uiso   1.00
