data_job_04104
_audit_creation_date              2018-12-19
_audit_creation_method            'Materials Studio'
_symmetry_space_group_name_H-M    'P1'
_symmetry_Int_Tables_number       1
_symmetry_cell_setting            triclinic
loop_
_symmetry_equiv_pos_as_xyz
  x,y,z
_cell_length_a                    26.7909
_cell_length_b                    13.3025
_cell_length_c                    24.1372
_cell_angle_alpha                 90.0000
_cell_angle_beta                  158.8794
_cell_angle_gamma                 90.0000
loop_
_atom_site_label
_atom_site_type_symbol
_atom_site_fract_x
_atom_site_fract_y
_atom_site_fract_z
_atom_site_U_iso_or_equiv
_atom_site_adp_type
_atom_site_occupancy
C1     C     0.72562   0.19705   0.16447   0.00000  Uiso   1.00
C2     C     0.76198   0.29465   0.17233   0.00000  Uiso   1.00
C3     C     0.84021   0.30261   0.20529   0.00000  Uiso   1.00
C4     C     0.86190   0.39867   0.20700   0.00000  Uiso   1.00
C5     C     0.92672   0.53730   0.22388   0.00000  Uiso   1.00
C6     C     0.77798   0.20909   0.27791   0.00000  Uiso   1.00
C7     C     0.86965   0.14511   0.39963   0.00000  Uiso   1.00
C8     C     0.90480   0.16914   0.49020   0.00000  Uiso   1.00
C9     C     0.99438   0.17490   0.67093   0.00000  Uiso   1.00
C10    C     0.56799   0.19461   0.00508   0.00000  Uiso   1.00
C11    C     0.48309   0.11844   0.89741   0.00000  Uiso   1.00
C12    C     0.34144   0.13027   0.75830   0.00000  Uiso   1.00
C13    C     0.10498   0.11355   0.51542   0.00000  Uiso   1.00
C14    C     0.62504   0.35349   0.10888   0.00000  Uiso   1.00
C15    C     0.70734   0.37962   0.14214   0.00000  Uiso   1.00
C16    C     0.72892   0.47569   0.14379   0.00000  Uiso   1.00
C17    C     0.80716   0.48380   0.17675   0.00000  Uiso   1.00
C18    C     0.72335   0.29406   0.24773   0.00000  Uiso   1.00
C19    C     0.75836   0.31819   0.33813   0.00000  Uiso   1.00
C20    C     0.85007   0.25427   0.45996   0.00000  Uiso   1.00
C21    C     0.51335   0.27958   0.97489   0.00000  Uiso   1.00
C22    C     0.37181   0.29153   0.83592   0.00000  Uiso   1.00
C23    C     0.28671   0.21540   0.72805   0.00000  Uiso   1.00
H24    H     0.76816   0.13090   0.18798   0.00000  Uiso   1.00
H25    H     0.88248   0.23684   0.22866   0.00000  Uiso   1.00
H26    H     0.91190   0.07936   0.42295   0.00000  Uiso   1.00
H27    H     0.52541   0.05270   0.92082   0.00000  Uiso   1.00
H28    H     0.98517   0.39177   0.26051   0.00000  Uiso   1.00
H29    H     0.04718   0.05969   0.67016   0.00000  Uiso   1.00
H30    H     0.23217   0.00348   0.61130   0.00000  Uiso   1.00
H31    H     0.58250   0.41964   0.08538   0.00000  Uiso   1.00
H32    H     0.68663   0.54143   0.12043   0.00000  Uiso   1.00
H33    H     0.71606   0.38395   0.31473   0.00000  Uiso   1.00
H34    H     0.32956   0.35729   0.81260   0.00000  Uiso   1.00
H35    H     0.82622   0.63899   0.17267   0.00000  Uiso   1.00
H36    H     0.88822   0.30691   0.58232   0.00000  Uiso   1.00
H37    H     0.07322   0.25070   0.52347   0.00000  Uiso   1.00
O38    O     0.97759   0.59029   0.24155   0.00000  Uiso   1.00
O39    O     0.05891   0.15460   0.77897   0.00000  Uiso   1.00
O40    O     0.98965   0.08086   0.38978   0.00000  Uiso   1.00
N41    N     0.93345   0.43324   0.23499   0.00000  Uiso   1.00
N42    N     0.99144   0.12277   0.61801   0.00000  Uiso   1.00
N43    N     0.22948   0.07020   0.62808   0.00000  Uiso   1.00
N44    N     0.84792   0.56626   0.18773   0.00000  Uiso   1.00
N45    N     0.90590   0.25580   0.57074   0.00000  Uiso   1.00
N46    N     0.14395   0.20323   0.58082   0.00000  Uiso   1.00
C47    C     0.27438   0.69705   0.33553   0.00000  Uiso   1.00
C48    C     0.23802   0.79465   0.32767   0.00000  Uiso   1.00
C49    C     0.15979   0.80261   0.29471   0.00000  Uiso   1.00
C50    C     0.13810   0.89867   0.29300   0.00000  Uiso   1.00
C51    C     0.07328   0.03730   0.27612   0.00000  Uiso   1.00
C52    C     0.22202   0.70909   0.22209   0.00000  Uiso   1.00
C53    C     0.13035   0.64511   0.10037   0.00000  Uiso   1.00
C54    C     0.09520   0.66914   0.00980   0.00000  Uiso   1.00
C55    C     0.00562   0.67490   0.82907   0.00000  Uiso   1.00
C56    C     0.43201   0.69461   0.49492   0.00000  Uiso   1.00
C57    C     0.51691   0.61844   0.60259   0.00000  Uiso   1.00
C58    C     0.65856   0.63027   0.74170   0.00000  Uiso   1.00
C59    C     0.89502   0.61355   0.98458   0.00000  Uiso   1.00
C60    C     0.37496   0.85349   0.39112   0.00000  Uiso   1.00
C61    C     0.29266   0.87962   0.35786   0.00000  Uiso   1.00
C62    C     0.27108   0.97569   0.35621   0.00000  Uiso   1.00
C63    C     0.19284   0.98380   0.32325   0.00000  Uiso   1.00
C64    C     0.27665   0.79406   0.25227   0.00000  Uiso   1.00
C65    C     0.24164   0.81819   0.16187   0.00000  Uiso   1.00
C66    C     0.14993   0.75427   0.04004   0.00000  Uiso   1.00
C67    C     0.48665   0.77958   0.52511   0.00000  Uiso   1.00
C68    C     0.62819   0.79153   0.66408   0.00000  Uiso   1.00
C69    C     0.71329   0.71540   0.77195   0.00000  Uiso   1.00
H70    H     0.23184   0.63090   0.31202   0.00000  Uiso   1.00
H71    H     0.11752   0.73684   0.27134   0.00000  Uiso   1.00
H72    H     0.08810   0.57936   0.07705   0.00000  Uiso   1.00
H73    H     0.47459   0.55270   0.57918   0.00000  Uiso   1.00
H74    H     0.01483   0.89177   0.23949   0.00000  Uiso   1.00
H75    H     0.95282   0.55969   0.82984   0.00000  Uiso   1.00
H76    H     0.76783   0.50348   0.88870   0.00000  Uiso   1.00
H77    H     0.41750   0.91964   0.41462   0.00000  Uiso   1.00
H78    H     0.31337   0.04143   0.37957   0.00000  Uiso   1.00
H79    H     0.28394   0.88395   0.18527   0.00000  Uiso   1.00
H80    H     0.67044   0.85729   0.68740   0.00000  Uiso   1.00
H81    H     0.17378   0.13899   0.32733   0.00000  Uiso   1.00
H82    H     0.11178   0.80691   0.91768   0.00000  Uiso   1.00
H83    H     0.92678   0.75070   0.97653   0.00000  Uiso   1.00
O84    O     0.02241   0.09029   0.25845   0.00000  Uiso   1.00
O85    O     0.94109   0.65460   0.72103   0.00000  Uiso   1.00
O86    O     0.01035   0.58086   0.11022   0.00000  Uiso   1.00
N87    N     0.06655   0.93324   0.26501   0.00000  Uiso   1.00
N88    N     0.00856   0.62277   0.88199   0.00000  Uiso   1.00
N89    N     0.77052   0.57020   0.87192   0.00000  Uiso   1.00
N90    N     0.15208   0.06626   0.31227   0.00000  Uiso   1.00
N91    N     0.09410   0.75580   0.92926   0.00000  Uiso   1.00
N92    N     0.85605   0.70323   0.91918   0.00000  Uiso   1.00
C93    C     0.27438   0.80295   0.83553   0.00000  Uiso   1.00
C94    C     0.23802   0.70535   0.82767   0.00000  Uiso   1.00
C95    C     0.15979   0.69739   0.79471   0.00000  Uiso   1.00
C96    C     0.13810   0.60133   0.79300   0.00000  Uiso   1.00
C97    C     0.07328   0.46270   0.77612   0.00000  Uiso   1.00
C98    C     0.22202   0.79091   0.72209   0.00000  Uiso   1.00
C99    C     0.13035   0.85489   0.60037   0.00000  Uiso   1.00
C100   C     0.09520   0.83086   0.50980   0.00000  Uiso   1.00
C101   C     0.00562   0.82510   0.32907   0.00000  Uiso   1.00
C102   C     0.43201   0.80539   0.99492   0.00000  Uiso   1.00
C103   C     0.51691   0.88156   0.10259   0.00000  Uiso   1.00
C104   C     0.65856   0.86973   0.24170   0.00000  Uiso   1.00
C105   C     0.89502   0.88645   0.48458   0.00000  Uiso   1.00
C106   C     0.37496   0.64651   0.89112   0.00000  Uiso   1.00
C107   C     0.29266   0.62038   0.85786   0.00000  Uiso   1.00
C108   C     0.27108   0.52431   0.85621   0.00000  Uiso   1.00
C109   C     0.19284   0.51620   0.82325   0.00000  Uiso   1.00
C110   C     0.27665   0.70594   0.75227   0.00000  Uiso   1.00
C111   C     0.24164   0.68181   0.66187   0.00000  Uiso   1.00
C112   C     0.14993   0.74573   0.54004   0.00000  Uiso   1.00
C113   C     0.48665   0.72042   0.02511   0.00000  Uiso   1.00
C114   C     0.62819   0.70847   0.16408   0.00000  Uiso   1.00
C115   C     0.71329   0.78460   0.27195   0.00000  Uiso   1.00
H116   H     0.23184   0.86910   0.81202   0.00000  Uiso   1.00
H117   H     0.11752   0.76316   0.77134   0.00000  Uiso   1.00
H118   H     0.08810   0.92064   0.57705   0.00000  Uiso   1.00
H119   H     0.47459   0.94730   0.07918   0.00000  Uiso   1.00
H120   H     0.01483   0.60823   0.73949   0.00000  Uiso   1.00
H121   H     0.95282   0.94031   0.32984   0.00000  Uiso   1.00
H122   H     0.76783   0.99652   0.38870   0.00000  Uiso   1.00
H123   H     0.41750   0.58036   0.91462   0.00000  Uiso   1.00
H124   H     0.31337   0.45857   0.87957   0.00000  Uiso   1.00
H125   H     0.28394   0.61605   0.68527   0.00000  Uiso   1.00
H126   H     0.67044   0.64271   0.18740   0.00000  Uiso   1.00
H127   H     0.17378   0.36101   0.82733   0.00000  Uiso   1.00
H128   H     0.11178   0.69309   0.41768   0.00000  Uiso   1.00
H129   H     0.92678   0.74930   0.47653   0.00000  Uiso   1.00
O130   O     0.02241   0.40971   0.75845   0.00000  Uiso   1.00
O131   O     0.94109   0.84540   0.22103   0.00000  Uiso   1.00
O132   O     0.01035   0.91914   0.61022   0.00000  Uiso   1.00
N133   N     0.06655   0.56676   0.76501   0.00000  Uiso   1.00
N134   N     0.00856   0.87723   0.38199   0.00000  Uiso   1.00
N135   N     0.77052   0.92980   0.37192   0.00000  Uiso   1.00
N136   N     0.15208   0.43374   0.81227   0.00000  Uiso   1.00
N137   N     0.09410   0.74420   0.42926   0.00000  Uiso   1.00
N138   N     0.85605   0.79677   0.41918   0.00000  Uiso   1.00
C139   C     0.72562   0.30295   0.66447   0.00000  Uiso   1.00
C140   C     0.76198   0.20535   0.67233   0.00000  Uiso   1.00
C141   C     0.84021   0.19739   0.70529   0.00000  Uiso   1.00
C142   C     0.86190   0.10133   0.70700   0.00000  Uiso   1.00
C143   C     0.92672   0.96270   0.72388   0.00000  Uiso   1.00
C144   C     0.77798   0.29091   0.77791   0.00000  Uiso   1.00
C145   C     0.86965   0.35489   0.89963   0.00000  Uiso   1.00
C146   C     0.90480   0.33086   0.99020   0.00000  Uiso   1.00
C147   C     0.99438   0.32510   0.17093   0.00000  Uiso   1.00
C148   C     0.56799   0.30539   0.50508   0.00000  Uiso   1.00
C149   C     0.48309   0.38156   0.39741   0.00000  Uiso   1.00
C150   C     0.34144   0.36973   0.25830   0.00000  Uiso   1.00
C151   C     0.10498   0.38645   0.01542   0.00000  Uiso   1.00
C152   C     0.62504   0.14651   0.60888   0.00000  Uiso   1.00
C153   C     0.70734   0.12038   0.64214   0.00000  Uiso   1.00
C154   C     0.72892   0.02431   0.64379   0.00000  Uiso   1.00
C155   C     0.80716   0.01620   0.67675   0.00000  Uiso   1.00
C156   C     0.72335   0.20594   0.74773   0.00000  Uiso   1.00
C157   C     0.75836   0.18181   0.83813   0.00000  Uiso   1.00
C158   C     0.85007   0.24573   0.95996   0.00000  Uiso   1.00
C159   C     0.51335   0.22042   0.47489   0.00000  Uiso   1.00
C160   C     0.37181   0.20847   0.33592   0.00000  Uiso   1.00
C161   C     0.28671   0.28460   0.22805   0.00000  Uiso   1.00
H162   H     0.76816   0.36910   0.68798   0.00000  Uiso   1.00
H163   H     0.88248   0.26316   0.72866   0.00000  Uiso   1.00
H164   H     0.91190   0.42064   0.92295   0.00000  Uiso   1.00
H165   H     0.52541   0.44730   0.42082   0.00000  Uiso   1.00
H166   H     0.98517   0.10823   0.76051   0.00000  Uiso   1.00
H167   H     0.04718   0.44031   0.17016   0.00000  Uiso   1.00
H168   H     0.23217   0.49652   0.11130   0.00000  Uiso   1.00
H169   H     0.58250   0.08036   0.58538   0.00000  Uiso   1.00
H170   H     0.68663   0.95857   0.62043   0.00000  Uiso   1.00
H171   H     0.71606   0.11605   0.81473   0.00000  Uiso   1.00
H172   H     0.32956   0.14271   0.31260   0.00000  Uiso   1.00
H173   H     0.82622   0.86101   0.67267   0.00000  Uiso   1.00
H174   H     0.88822   0.19309   0.08232   0.00000  Uiso   1.00
H175   H     0.07322   0.24930   0.02347   0.00000  Uiso   1.00
O176   O     0.97759   0.90971   0.74155   0.00000  Uiso   1.00
O177   O     0.05891   0.34540   0.27897   0.00000  Uiso   1.00
O178   O     0.98965   0.41914   0.88978   0.00000  Uiso   1.00
N179   N     0.93345   0.06676   0.73499   0.00000  Uiso   1.00
N180   N     0.99144   0.37723   0.11801   0.00000  Uiso   1.00
N181   N     0.22948   0.42980   0.12808   0.00000  Uiso   1.00
N182   N     0.84792   0.93374   0.68773   0.00000  Uiso   1.00
N183   N     0.90590   0.24420   0.07074   0.00000  Uiso   1.00
N184   N     0.14395   0.29677   0.08082   0.00000  Uiso   1.00
