data_job_00474
_audit_creation_date              2018-12-19
_audit_creation_method            'Materials Studio'
_symmetry_space_group_name_H-M    'P1'
_symmetry_Int_Tables_number       1
_symmetry_cell_setting            triclinic
loop_
_symmetry_equiv_pos_as_xyz
  x,y,z
_cell_length_a                    11.6296
_cell_length_b                    11.7907
_cell_length_c                    12.2724
_cell_angle_alpha                 83.2908
_cell_angle_beta                  65.8008
_cell_angle_gamma                 97.4332
loop_
_atom_site_label
_atom_site_type_symbol
_atom_site_fract_x
_atom_site_fract_y
_atom_site_fract_z
_atom_site_U_iso_or_equiv
_atom_site_adp_type
_atom_site_occupancy
C1     C     0.36014   0.81394   0.21190   0.00000  Uiso   1.00
C2     C     0.49534   0.79779   0.19019   0.00000  Uiso   1.00
C3     C     0.60601   0.88342   0.13298   0.00000  Uiso   1.00
C4     C     0.72040   0.85122   0.12197   0.00000  Uiso   1.00
C5     C     0.92983   0.84343   0.08141   0.00000  Uiso   1.00
C6     C     0.31167   0.72365   0.15326   0.00000  Uiso   1.00
C7     C     0.26788   0.74694   0.06502   0.00000  Uiso   1.00
C8     C     0.22764   0.65233   0.02294   0.00000  Uiso   1.00
C9     C     0.15181   0.52943   0.92511   0.00000  Uiso   1.00
C10    C     0.27777   0.77685   0.34858   0.00000  Uiso   1.00
C11    C     0.20545   0.84485   0.42457   0.00000  Uiso   1.00
C12    C     0.13664   0.79501   0.54694   0.00000  Uiso   1.00
C13    C     0.00819   0.75471   0.75237   0.00000  Uiso   1.00
C14    C     0.36650   0.60450   0.29410   0.00000  Uiso   1.00
C15    C     0.49880   0.68403   0.23483   0.00000  Uiso   1.00
C16    C     0.61305   0.65170   0.22391   0.00000  Uiso   1.00
C17    C     0.72387   0.73726   0.16670   0.00000  Uiso   1.00
C18    C     0.31512   0.60990   0.19790   0.00000  Uiso   1.00
C19    C     0.27493   0.51522   0.15595   0.00000  Uiso   1.00
C20    C     0.23111   0.53836   0.06767   0.00000  Uiso   1.00
C21    C     0.28123   0.66309   0.39323   0.00000  Uiso   1.00
C22    C     0.21251   0.61313   0.51550   0.00000  Uiso   1.00
C23    C     0.14011   0.68105   0.59166   0.00000  Uiso   1.00
H24    H     0.35744   0.90250   0.17714   0.00000  Uiso   1.00
H25    H     0.60329   0.97144   0.09843   0.00000  Uiso   1.00
H26    H     0.26521   0.83499   0.03050   0.00000  Uiso   1.00
H27    H     0.20280   0.93288   0.38999   0.00000  Uiso   1.00
H28    H     0.87740   0.99769   0.03081   0.00000  Uiso   1.00
H29    H     0.16449   0.70996   0.88760   0.00000  Uiso   1.00
H30    H     0.03288   0.91639   0.64565   0.00000  Uiso   1.00
H31    H     0.36920   0.51593   0.32885   0.00000  Uiso   1.00
H32    H     0.61570   0.56366   0.25847   0.00000  Uiso   1.00
H33    H     0.27761   0.42720   0.19053   0.00000  Uiso   1.00
H34    H     0.21521   0.52510   0.55001   0.00000  Uiso   1.00
H35    H     0.88747   0.66672   0.16070   0.00000  Uiso   1.00
H36    H     0.17455   0.37899   0.01748   0.00000  Uiso   1.00
H37    H     0.04295   0.58542   0.77554   0.00000  Uiso   1.00
O38    O     0.04439   0.87056   0.04668   0.00000  Uiso   1.00
O39    O     0.10905   0.49308   0.85880   0.00000  Uiso   1.00
O40    O     0.93639   0.76391   0.85335   0.00000  Uiso   1.00
N41    N     0.84594   0.91325   0.07106   0.00000  Uiso   1.00
N42    N     0.17942   0.64425   0.93715   0.00000  Uiso   1.00
N43    N     0.05635   0.83723   0.64586   0.00000  Uiso   1.00
N44    N     0.85136   0.73516   0.14096   0.00000  Uiso   1.00
N45    N     0.18484   0.46615   0.00704   0.00000  Uiso   1.00
N46    N     0.06177   0.65914   0.71575   0.00000  Uiso   1.00
C47    C     0.63986   0.18606   0.78810   0.00000  Uiso   1.00
C48    C     0.50466   0.20221   0.80981   0.00000  Uiso   1.00
C49    C     0.39399   0.11658   0.86702   0.00000  Uiso   1.00
C50    C     0.27960   0.14878   0.87803   0.00000  Uiso   1.00
C51    C     0.07017   0.15657   0.91859   0.00000  Uiso   1.00
C52    C     0.68833   0.27635   0.84674   0.00000  Uiso   1.00
C53    C     0.73212   0.25306   0.93498   0.00000  Uiso   1.00
C54    C     0.77236   0.34767   0.97706   0.00000  Uiso   1.00
C55    C     0.84819   0.47057   0.07489   0.00000  Uiso   1.00
C56    C     0.72223   0.22315   0.65142   0.00000  Uiso   1.00
C57    C     0.79455   0.15515   0.57543   0.00000  Uiso   1.00
C58    C     0.86336   0.20499   0.45306   0.00000  Uiso   1.00
C59    C     0.99181   0.24529   0.24763   0.00000  Uiso   1.00
C60    C     0.63350   0.39550   0.70590   0.00000  Uiso   1.00
C61    C     0.50120   0.31597   0.76517   0.00000  Uiso   1.00
C62    C     0.38695   0.34830   0.77609   0.00000  Uiso   1.00
C63    C     0.27613   0.26274   0.83330   0.00000  Uiso   1.00
C64    C     0.68488   0.39010   0.80210   0.00000  Uiso   1.00
C65    C     0.72507   0.48478   0.84405   0.00000  Uiso   1.00
C66    C     0.76889   0.46164   0.93233   0.00000  Uiso   1.00
C67    C     0.71877   0.33691   0.60677   0.00000  Uiso   1.00
C68    C     0.78749   0.38687   0.48450   0.00000  Uiso   1.00
C69    C     0.85989   0.31895   0.40834   0.00000  Uiso   1.00
H70    H     0.64256   0.09750   0.82286   0.00000  Uiso   1.00
H71    H     0.39671   0.02856   0.90157   0.00000  Uiso   1.00
H72    H     0.73479   0.16501   0.96950   0.00000  Uiso   1.00
H73    H     0.79720   0.06712   0.61001   0.00000  Uiso   1.00
H74    H     0.12260   0.00231   0.96919   0.00000  Uiso   1.00
H75    H     0.83551   0.29004   0.11240   0.00000  Uiso   1.00
H76    H     0.96712   0.08361   0.35435   0.00000  Uiso   1.00
H77    H     0.63080   0.48407   0.67115   0.00000  Uiso   1.00
H78    H     0.38430   0.43634   0.74153   0.00000  Uiso   1.00
H79    H     0.72239   0.57280   0.80947   0.00000  Uiso   1.00
H80    H     0.78479   0.47490   0.44999   0.00000  Uiso   1.00
H81    H     0.11253   0.33328   0.83930   0.00000  Uiso   1.00
H82    H     0.82545   0.62101   0.98252   0.00000  Uiso   1.00
H83    H     0.95705   0.41458   0.22446   0.00000  Uiso   1.00
O84    O     0.95561   0.12944   0.95332   0.00000  Uiso   1.00
O85    O     0.89095   0.50692   0.14120   0.00000  Uiso   1.00
O86    O     0.06361   0.23609   0.14665   0.00000  Uiso   1.00
N87    N     0.15406   0.08675   0.92894   0.00000  Uiso   1.00
N88    N     0.82058   0.35575   0.06285   0.00000  Uiso   1.00
N89    N     0.94365   0.16277   0.35414   0.00000  Uiso   1.00
N90    N     0.14864   0.26484   0.85904   0.00000  Uiso   1.00
N91    N     0.81516   0.53385   0.99296   0.00000  Uiso   1.00
N92    N     0.93823   0.34086   0.28425   0.00000  Uiso   1.00
