data_job_01397
_audit_creation_date              2018-12-19
_audit_creation_method            'Materials Studio'
_symmetry_space_group_name_H-M    'P1'
_symmetry_Int_Tables_number       1
_symmetry_cell_setting            triclinic
loop_
_symmetry_equiv_pos_as_xyz
  x,y,z
_cell_length_a                    21.0153
_cell_length_b                    21.0153
_cell_length_c                    11.6246
_cell_angle_alpha                 90.0000
_cell_angle_beta                  90.0000
_cell_angle_gamma                 90.0000
loop_
_atom_site_label
_atom_site_type_symbol
_atom_site_fract_x
_atom_site_fract_y
_atom_site_fract_z
_atom_site_U_iso_or_equiv
_atom_site_adp_type
_atom_site_occupancy
C1     C     0.27168   0.68686   0.41609   0.00000  Uiso   1.00
C2     C     0.31932   0.68563   0.31716   0.00000  Uiso   1.00
C3     C     0.34737   0.73849   0.26671   0.00000  Uiso   1.00
C4     C     0.38971   0.72735   0.17727   0.00000  Uiso   1.00
C5     C     0.46157   0.73485   0.02933   0.00000  Uiso   1.00
C6     C     0.21291   0.65156   0.37309   0.00000  Uiso   1.00
C7     C     0.15150   0.67578   0.36967   0.00000  Uiso   1.00
C8     C     0.10428   0.63595   0.32733   0.00000  Uiso   1.00
C9     C     0.01093   0.59054   0.26630   0.00000  Uiso   1.00
C10    C     0.30015   0.64541   0.51065   0.00000  Uiso   1.00
C11    C     0.31208   0.66445   0.62292   0.00000  Uiso   1.00
C12    C     0.33829   0.61944   0.69641   0.00000  Uiso   1.00
C13    C     0.38039   0.56447   0.84896   0.00000  Uiso   1.00
C14    C     0.29700   0.57306   0.34698   0.00000  Uiso   1.00
C15    C     0.33307   0.62382   0.27962   0.00000  Uiso   1.00
C16    C     0.37538   0.61259   0.19024   0.00000  Uiso   1.00
C17    C     0.40349   0.66543   0.13967   0.00000  Uiso   1.00
C18    C     0.22666   0.58975   0.33555   0.00000  Uiso   1.00
C19    C     0.17952   0.54988   0.29321   0.00000  Uiso   1.00
C20    C     0.11805   0.57403   0.28972   0.00000  Uiso   1.00
C21    C     0.31391   0.58360   0.47312   0.00000  Uiso   1.00
C22    C     0.34010   0.53855   0.54645   0.00000  Uiso   1.00
C23    C     0.35206   0.55752   0.65880   0.00000  Uiso   1.00
H24    H     0.26097   0.73498   0.44532   0.00000  Uiso   1.00
H25    H     0.33671   0.78632   0.29578   0.00000  Uiso   1.00
H26    H     0.14088   0.72361   0.39874   0.00000  Uiso   1.00
H27    H     0.30143   0.71228   0.65194   0.00000  Uiso   1.00
H28    H     0.42673   0.81599   0.11340   0.00000  Uiso   1.00
H29    H     0.01380   0.68375   0.33054   0.00000  Uiso   1.00
H30    H     0.35236   0.65986   0.86446   0.00000  Uiso   1.00
H31    H     0.30770   0.52494   0.31775   0.00000  Uiso   1.00
H32    H     0.38601   0.56475   0.16121   0.00000  Uiso   1.00
H33    H     0.19018   0.50205   0.26417   0.00000  Uiso   1.00
H34    H     0.35073   0.49072   0.51737   0.00000  Uiso   1.00
H35    H     0.46675   0.63616   0.00418   0.00000  Uiso   1.00
H36    H     0.05381   0.50392   0.22132   0.00000  Uiso   1.00
H37    H     0.39237   0.48003   0.75524   0.00000  Uiso   1.00
O38    O     0.49739   0.75605   0.95809   0.00000  Uiso   1.00
O39    O     0.95564   0.58257   0.24299   0.00000  Uiso   1.00
O40    O     0.39983   0.55123   0.94348   0.00000  Uiso   1.00
N41    N     0.42541   0.76820   0.10920   0.00000  Uiso   1.00
N42    N     0.03935   0.64457   0.31219   0.00000  Uiso   1.00
N43    N     0.35585   0.62223   0.81137   0.00000  Uiso   1.00
N44    N     0.44694   0.67143   0.05042   0.00000  Uiso   1.00
N45    N     0.06088   0.54781   0.25342   0.00000  Uiso   1.00
N46    N     0.37739   0.52547   0.75260   0.00000  Uiso   1.00
C47    C     0.72832   0.31314   0.41609   0.00000  Uiso   1.00
C48    C     0.68068   0.31437   0.31716   0.00000  Uiso   1.00
C49    C     0.65263   0.26151   0.26671   0.00000  Uiso   1.00
C50    C     0.61029   0.27265   0.17727   0.00000  Uiso   1.00
C51    C     0.53843   0.26515   0.02933   0.00000  Uiso   1.00
C52    C     0.78709   0.34844   0.37309   0.00000  Uiso   1.00
C53    C     0.84850   0.32422   0.36967   0.00000  Uiso   1.00
C54    C     0.89572   0.36405   0.32733   0.00000  Uiso   1.00
C55    C     0.98907   0.40946   0.26630   0.00000  Uiso   1.00
C56    C     0.69985   0.35459   0.51065   0.00000  Uiso   1.00
C57    C     0.68792   0.33555   0.62292   0.00000  Uiso   1.00
C58    C     0.66171   0.38056   0.69641   0.00000  Uiso   1.00
C59    C     0.61961   0.43553   0.84896   0.00000  Uiso   1.00
C60    C     0.70300   0.42694   0.34698   0.00000  Uiso   1.00
C61    C     0.66693   0.37618   0.27962   0.00000  Uiso   1.00
C62    C     0.62462   0.38741   0.19024   0.00000  Uiso   1.00
C63    C     0.59651   0.33457   0.13967   0.00000  Uiso   1.00
C64    C     0.77334   0.41025   0.33555   0.00000  Uiso   1.00
C65    C     0.82048   0.45012   0.29321   0.00000  Uiso   1.00
C66    C     0.88195   0.42597   0.28972   0.00000  Uiso   1.00
C67    C     0.68609   0.41640   0.47312   0.00000  Uiso   1.00
C68    C     0.65990   0.46145   0.54645   0.00000  Uiso   1.00
C69    C     0.64794   0.44248   0.65880   0.00000  Uiso   1.00
H70    H     0.73903   0.26502   0.44532   0.00000  Uiso   1.00
H71    H     0.66329   0.21368   0.29578   0.00000  Uiso   1.00
H72    H     0.85912   0.27639   0.39874   0.00000  Uiso   1.00
H73    H     0.69857   0.28772   0.65194   0.00000  Uiso   1.00
H74    H     0.57327   0.18401   0.11340   0.00000  Uiso   1.00
H75    H     0.98620   0.31625   0.33054   0.00000  Uiso   1.00
H76    H     0.64764   0.34014   0.86446   0.00000  Uiso   1.00
H77    H     0.69230   0.47506   0.31775   0.00000  Uiso   1.00
H78    H     0.61399   0.43525   0.16121   0.00000  Uiso   1.00
H79    H     0.80982   0.49795   0.26417   0.00000  Uiso   1.00
H80    H     0.64927   0.50928   0.51737   0.00000  Uiso   1.00
H81    H     0.53325   0.36384   0.00418   0.00000  Uiso   1.00
H82    H     0.94619   0.49608   0.22132   0.00000  Uiso   1.00
H83    H     0.60763   0.51997   0.75524   0.00000  Uiso   1.00
O84    O     0.50261   0.24395   0.95809   0.00000  Uiso   1.00
O85    O     0.04436   0.41743   0.24299   0.00000  Uiso   1.00
O86    O     0.60017   0.44877   0.94348   0.00000  Uiso   1.00
N87    N     0.57459   0.23180   0.10920   0.00000  Uiso   1.00
N88    N     0.96065   0.35543   0.31219   0.00000  Uiso   1.00
N89    N     0.64415   0.37777   0.81137   0.00000  Uiso   1.00
N90    N     0.55306   0.32857   0.05042   0.00000  Uiso   1.00
N91    N     0.93912   0.45219   0.25342   0.00000  Uiso   1.00
N92    N     0.62261   0.47453   0.75260   0.00000  Uiso   1.00
C93    C     0.31314   0.27168   0.41609   0.00000  Uiso   1.00
C94    C     0.31437   0.31932   0.31716   0.00000  Uiso   1.00
C95    C     0.26151   0.34737   0.26671   0.00000  Uiso   1.00
C96    C     0.27265   0.38971   0.17727   0.00000  Uiso   1.00
C97    C     0.26515   0.46157   0.02933   0.00000  Uiso   1.00
C98    C     0.34844   0.21291   0.37309   0.00000  Uiso   1.00
C99    C     0.32422   0.15150   0.36967   0.00000  Uiso   1.00
C100   C     0.36405   0.10428   0.32733   0.00000  Uiso   1.00
C101   C     0.40946   0.01093   0.26630   0.00000  Uiso   1.00
C102   C     0.35459   0.30015   0.51065   0.00000  Uiso   1.00
C103   C     0.33555   0.31208   0.62292   0.00000  Uiso   1.00
C104   C     0.38056   0.33829   0.69641   0.00000  Uiso   1.00
C105   C     0.43553   0.38039   0.84896   0.00000  Uiso   1.00
C106   C     0.42694   0.29700   0.34698   0.00000  Uiso   1.00
C107   C     0.37618   0.33307   0.27962   0.00000  Uiso   1.00
C108   C     0.38741   0.37538   0.19024   0.00000  Uiso   1.00
C109   C     0.33457   0.40349   0.13967   0.00000  Uiso   1.00
C110   C     0.41025   0.22666   0.33555   0.00000  Uiso   1.00
C111   C     0.45012   0.17952   0.29321   0.00000  Uiso   1.00
C112   C     0.42597   0.11805   0.28972   0.00000  Uiso   1.00
C113   C     0.41640   0.31391   0.47312   0.00000  Uiso   1.00
C114   C     0.46145   0.34010   0.54645   0.00000  Uiso   1.00
C115   C     0.44248   0.35206   0.65880   0.00000  Uiso   1.00
H116   H     0.26502   0.26097   0.44532   0.00000  Uiso   1.00
H117   H     0.21368   0.33671   0.29578   0.00000  Uiso   1.00
H118   H     0.27639   0.14088   0.39874   0.00000  Uiso   1.00
H119   H     0.28772   0.30143   0.65194   0.00000  Uiso   1.00
H120   H     0.18401   0.42673   0.11340   0.00000  Uiso   1.00
H121   H     0.31625   0.01380   0.33054   0.00000  Uiso   1.00
H122   H     0.34014   0.35236   0.86446   0.00000  Uiso   1.00
H123   H     0.47506   0.30770   0.31775   0.00000  Uiso   1.00
H124   H     0.43525   0.38601   0.16121   0.00000  Uiso   1.00
H125   H     0.49795   0.19018   0.26417   0.00000  Uiso   1.00
H126   H     0.50928   0.35073   0.51737   0.00000  Uiso   1.00
H127   H     0.36384   0.46675   0.00418   0.00000  Uiso   1.00
H128   H     0.49608   0.05381   0.22132   0.00000  Uiso   1.00
H129   H     0.51997   0.39237   0.75524   0.00000  Uiso   1.00
O130   O     0.24395   0.49739   0.95809   0.00000  Uiso   1.00
O131   O     0.41743   0.95564   0.24299   0.00000  Uiso   1.00
O132   O     0.44877   0.39983   0.94348   0.00000  Uiso   1.00
N133   N     0.23180   0.42541   0.10920   0.00000  Uiso   1.00
N134   N     0.35543   0.03935   0.31219   0.00000  Uiso   1.00
N135   N     0.37777   0.35585   0.81137   0.00000  Uiso   1.00
N136   N     0.32857   0.44694   0.05042   0.00000  Uiso   1.00
N137   N     0.45219   0.06088   0.25342   0.00000  Uiso   1.00
N138   N     0.47453   0.37739   0.75260   0.00000  Uiso   1.00
C139   C     0.68686   0.72832   0.41609   0.00000  Uiso   1.00
C140   C     0.68563   0.68068   0.31716   0.00000  Uiso   1.00
C141   C     0.73849   0.65263   0.26671   0.00000  Uiso   1.00
C142   C     0.72735   0.61029   0.17727   0.00000  Uiso   1.00
C143   C     0.73485   0.53843   0.02933   0.00000  Uiso   1.00
C144   C     0.65156   0.78709   0.37309   0.00000  Uiso   1.00
C145   C     0.67578   0.84850   0.36967   0.00000  Uiso   1.00
C146   C     0.63595   0.89572   0.32733   0.00000  Uiso   1.00
C147   C     0.59054   0.98907   0.26630   0.00000  Uiso   1.00
C148   C     0.64541   0.69985   0.51065   0.00000  Uiso   1.00
C149   C     0.66445   0.68792   0.62292   0.00000  Uiso   1.00
C150   C     0.61944   0.66171   0.69641   0.00000  Uiso   1.00
C151   C     0.56447   0.61961   0.84896   0.00000  Uiso   1.00
C152   C     0.57306   0.70300   0.34698   0.00000  Uiso   1.00
C153   C     0.62382   0.66693   0.27962   0.00000  Uiso   1.00
C154   C     0.61259   0.62462   0.19024   0.00000  Uiso   1.00
C155   C     0.66543   0.59651   0.13967   0.00000  Uiso   1.00
C156   C     0.58975   0.77334   0.33555   0.00000  Uiso   1.00
C157   C     0.54988   0.82048   0.29321   0.00000  Uiso   1.00
C158   C     0.57403   0.88195   0.28972   0.00000  Uiso   1.00
C159   C     0.58360   0.68609   0.47312   0.00000  Uiso   1.00
C160   C     0.53855   0.65990   0.54645   0.00000  Uiso   1.00
C161   C     0.55752   0.64794   0.65880   0.00000  Uiso   1.00
H162   H     0.73498   0.73903   0.44532   0.00000  Uiso   1.00
H163   H     0.78632   0.66329   0.29578   0.00000  Uiso   1.00
H164   H     0.72361   0.85912   0.39874   0.00000  Uiso   1.00
H165   H     0.71228   0.69857   0.65194   0.00000  Uiso   1.00
H166   H     0.81599   0.57327   0.11340   0.00000  Uiso   1.00
H167   H     0.68375   0.98620   0.33054   0.00000  Uiso   1.00
H168   H     0.65986   0.64764   0.86446   0.00000  Uiso   1.00
H169   H     0.52494   0.69230   0.31775   0.00000  Uiso   1.00
H170   H     0.56475   0.61399   0.16121   0.00000  Uiso   1.00
H171   H     0.50205   0.80982   0.26417   0.00000  Uiso   1.00
H172   H     0.49072   0.64927   0.51737   0.00000  Uiso   1.00
H173   H     0.63616   0.53325   0.00418   0.00000  Uiso   1.00
H174   H     0.50392   0.94619   0.22132   0.00000  Uiso   1.00
H175   H     0.48003   0.60763   0.75524   0.00000  Uiso   1.00
O176   O     0.75605   0.50261   0.95809   0.00000  Uiso   1.00
O177   O     0.58257   0.04436   0.24299   0.00000  Uiso   1.00
O178   O     0.55123   0.60017   0.94348   0.00000  Uiso   1.00
N179   N     0.76820   0.57459   0.10920   0.00000  Uiso   1.00
N180   N     0.64457   0.96065   0.31219   0.00000  Uiso   1.00
N181   N     0.62223   0.64415   0.81137   0.00000  Uiso   1.00
N182   N     0.67143   0.55306   0.05042   0.00000  Uiso   1.00
N183   N     0.54781   0.93912   0.25342   0.00000  Uiso   1.00
N184   N     0.52547   0.62261   0.75260   0.00000  Uiso   1.00
C185   C     0.77168   0.81314   0.91609   0.00000  Uiso   1.00
C186   C     0.81932   0.81437   0.81716   0.00000  Uiso   1.00
C187   C     0.84737   0.76151   0.76671   0.00000  Uiso   1.00
C188   C     0.88971   0.77265   0.67727   0.00000  Uiso   1.00
C189   C     0.96157   0.76515   0.52933   0.00000  Uiso   1.00
C190   C     0.71291   0.84844   0.87309   0.00000  Uiso   1.00
C191   C     0.65150   0.82422   0.86967   0.00000  Uiso   1.00
C192   C     0.60428   0.86405   0.82733   0.00000  Uiso   1.00
C193   C     0.51093   0.90946   0.76630   0.00000  Uiso   1.00
C194   C     0.80015   0.85459   0.01065   0.00000  Uiso   1.00
C195   C     0.81208   0.83555   0.12292   0.00000  Uiso   1.00
C196   C     0.83829   0.88056   0.19641   0.00000  Uiso   1.00
C197   C     0.88039   0.93553   0.34896   0.00000  Uiso   1.00
C198   C     0.79700   0.92694   0.84698   0.00000  Uiso   1.00
C199   C     0.83307   0.87618   0.77962   0.00000  Uiso   1.00
C200   C     0.87538   0.88741   0.69024   0.00000  Uiso   1.00
C201   C     0.90349   0.83457   0.63967   0.00000  Uiso   1.00
C202   C     0.72666   0.91025   0.83555   0.00000  Uiso   1.00
C203   C     0.67952   0.95012   0.79321   0.00000  Uiso   1.00
C204   C     0.61805   0.92597   0.78972   0.00000  Uiso   1.00
C205   C     0.81391   0.91640   0.97312   0.00000  Uiso   1.00
C206   C     0.84010   0.96145   0.04645   0.00000  Uiso   1.00
C207   C     0.85206   0.94248   0.15880   0.00000  Uiso   1.00
H208   H     0.76097   0.76502   0.94532   0.00000  Uiso   1.00
H209   H     0.83671   0.71368   0.79578   0.00000  Uiso   1.00
H210   H     0.64088   0.77639   0.89874   0.00000  Uiso   1.00
H211   H     0.80143   0.78772   0.15194   0.00000  Uiso   1.00
H212   H     0.92673   0.68401   0.61340   0.00000  Uiso   1.00
H213   H     0.51380   0.81625   0.83054   0.00000  Uiso   1.00
H214   H     0.85236   0.84014   0.36446   0.00000  Uiso   1.00
H215   H     0.80770   0.97506   0.81775   0.00000  Uiso   1.00
H216   H     0.88601   0.93525   0.66121   0.00000  Uiso   1.00
H217   H     0.69018   0.99795   0.76417   0.00000  Uiso   1.00
H218   H     0.85073   0.00928   0.01737   0.00000  Uiso   1.00
H219   H     0.96675   0.86384   0.50418   0.00000  Uiso   1.00
H220   H     0.55381   0.99608   0.72132   0.00000  Uiso   1.00
H221   H     0.89237   0.01997   0.25524   0.00000  Uiso   1.00
O222   O     0.99739   0.74395   0.45809   0.00000  Uiso   1.00
O223   O     0.45564   0.91743   0.74299   0.00000  Uiso   1.00
O224   O     0.89983   0.94877   0.44348   0.00000  Uiso   1.00
N225   N     0.92541   0.73180   0.60920   0.00000  Uiso   1.00
N226   N     0.53935   0.85543   0.81219   0.00000  Uiso   1.00
N227   N     0.85585   0.87777   0.31137   0.00000  Uiso   1.00
N228   N     0.94694   0.82857   0.55042   0.00000  Uiso   1.00
N229   N     0.56088   0.95219   0.75342   0.00000  Uiso   1.00
N230   N     0.87739   0.97453   0.25260   0.00000  Uiso   1.00
C231   C     0.22832   0.18686   0.91609   0.00000  Uiso   1.00
C232   C     0.18068   0.18563   0.81716   0.00000  Uiso   1.00
C233   C     0.15263   0.23849   0.76671   0.00000  Uiso   1.00
C234   C     0.11029   0.22735   0.67727   0.00000  Uiso   1.00
C235   C     0.03843   0.23485   0.52933   0.00000  Uiso   1.00
C236   C     0.28709   0.15156   0.87309   0.00000  Uiso   1.00
C237   C     0.34850   0.17578   0.86967   0.00000  Uiso   1.00
C238   C     0.39572   0.13595   0.82733   0.00000  Uiso   1.00
C239   C     0.48907   0.09054   0.76630   0.00000  Uiso   1.00
C240   C     0.19985   0.14541   0.01065   0.00000  Uiso   1.00
C241   C     0.18792   0.16445   0.12292   0.00000  Uiso   1.00
C242   C     0.16171   0.11944   0.19641   0.00000  Uiso   1.00
C243   C     0.11961   0.06447   0.34896   0.00000  Uiso   1.00
C244   C     0.20300   0.07306   0.84698   0.00000  Uiso   1.00
C245   C     0.16693   0.12382   0.77962   0.00000  Uiso   1.00
C246   C     0.12462   0.11259   0.69024   0.00000  Uiso   1.00
C247   C     0.09651   0.16543   0.63967   0.00000  Uiso   1.00
C248   C     0.27334   0.08975   0.83555   0.00000  Uiso   1.00
C249   C     0.32048   0.04988   0.79321   0.00000  Uiso   1.00
C250   C     0.38195   0.07403   0.78972   0.00000  Uiso   1.00
C251   C     0.18609   0.08360   0.97312   0.00000  Uiso   1.00
C252   C     0.15990   0.03855   0.04645   0.00000  Uiso   1.00
C253   C     0.14794   0.05752   0.15880   0.00000  Uiso   1.00
H254   H     0.23903   0.23498   0.94532   0.00000  Uiso   1.00
H255   H     0.16329   0.28632   0.79578   0.00000  Uiso   1.00
H256   H     0.35912   0.22361   0.89874   0.00000  Uiso   1.00
H257   H     0.19857   0.21228   0.15194   0.00000  Uiso   1.00
H258   H     0.07327   0.31599   0.61340   0.00000  Uiso   1.00
H259   H     0.48620   0.18375   0.83054   0.00000  Uiso   1.00
H260   H     0.14764   0.15986   0.36446   0.00000  Uiso   1.00
H261   H     0.19230   0.02494   0.81775   0.00000  Uiso   1.00
H262   H     0.11399   0.06475   0.66121   0.00000  Uiso   1.00
H263   H     0.30982   0.00205   0.76417   0.00000  Uiso   1.00
H264   H     0.14927   0.99072   0.01737   0.00000  Uiso   1.00
H265   H     0.03325   0.13616   0.50418   0.00000  Uiso   1.00
H266   H     0.44619   0.00392   0.72132   0.00000  Uiso   1.00
H267   H     0.10763   0.98003   0.25524   0.00000  Uiso   1.00
O268   O     0.00261   0.25605   0.45809   0.00000  Uiso   1.00
O269   O     0.54436   0.08257   0.74299   0.00000  Uiso   1.00
O270   O     0.10017   0.05123   0.44348   0.00000  Uiso   1.00
N271   N     0.07459   0.26820   0.60920   0.00000  Uiso   1.00
N272   N     0.46065   0.14457   0.81219   0.00000  Uiso   1.00
N273   N     0.14415   0.12223   0.31137   0.00000  Uiso   1.00
N274   N     0.05306   0.17143   0.55042   0.00000  Uiso   1.00
N275   N     0.43912   0.04781   0.75342   0.00000  Uiso   1.00
N276   N     0.12261   0.02547   0.25260   0.00000  Uiso   1.00
C277   C     0.81314   0.22832   0.91609   0.00000  Uiso   1.00
C278   C     0.81437   0.18068   0.81716   0.00000  Uiso   1.00
C279   C     0.76151   0.15263   0.76671   0.00000  Uiso   1.00
C280   C     0.77265   0.11029   0.67727   0.00000  Uiso   1.00
C281   C     0.76515   0.03843   0.52933   0.00000  Uiso   1.00
C282   C     0.84844   0.28709   0.87309   0.00000  Uiso   1.00
C283   C     0.82422   0.34850   0.86967   0.00000  Uiso   1.00
C284   C     0.86405   0.39572   0.82733   0.00000  Uiso   1.00
C285   C     0.90946   0.48907   0.76630   0.00000  Uiso   1.00
C286   C     0.85459   0.19985   0.01065   0.00000  Uiso   1.00
C287   C     0.83555   0.18792   0.12292   0.00000  Uiso   1.00
C288   C     0.88056   0.16171   0.19641   0.00000  Uiso   1.00
C289   C     0.93553   0.11961   0.34896   0.00000  Uiso   1.00
C290   C     0.92694   0.20300   0.84698   0.00000  Uiso   1.00
C291   C     0.87618   0.16693   0.77962   0.00000  Uiso   1.00
C292   C     0.88741   0.12462   0.69024   0.00000  Uiso   1.00
C293   C     0.83457   0.09651   0.63967   0.00000  Uiso   1.00
C294   C     0.91025   0.27334   0.83555   0.00000  Uiso   1.00
C295   C     0.95012   0.32048   0.79321   0.00000  Uiso   1.00
C296   C     0.92597   0.38195   0.78972   0.00000  Uiso   1.00
C297   C     0.91640   0.18609   0.97312   0.00000  Uiso   1.00
C298   C     0.96145   0.15990   0.04645   0.00000  Uiso   1.00
C299   C     0.94248   0.14794   0.15880   0.00000  Uiso   1.00
H300   H     0.76502   0.23903   0.94532   0.00000  Uiso   1.00
H301   H     0.71368   0.16329   0.79578   0.00000  Uiso   1.00
H302   H     0.77639   0.35912   0.89874   0.00000  Uiso   1.00
H303   H     0.78772   0.19857   0.15194   0.00000  Uiso   1.00
H304   H     0.68401   0.07327   0.61340   0.00000  Uiso   1.00
H305   H     0.81625   0.48620   0.83054   0.00000  Uiso   1.00
H306   H     0.84014   0.14764   0.36446   0.00000  Uiso   1.00
H307   H     0.97506   0.19230   0.81775   0.00000  Uiso   1.00
H308   H     0.93525   0.11399   0.66121   0.00000  Uiso   1.00
H309   H     0.99795   0.30982   0.76417   0.00000  Uiso   1.00
H310   H     0.00928   0.14927   0.01737   0.00000  Uiso   1.00
H311   H     0.86384   0.03325   0.50418   0.00000  Uiso   1.00
H312   H     0.99608   0.44619   0.72132   0.00000  Uiso   1.00
H313   H     0.01997   0.10763   0.25524   0.00000  Uiso   1.00
O314   O     0.74395   0.00261   0.45809   0.00000  Uiso   1.00
O315   O     0.91743   0.54436   0.74299   0.00000  Uiso   1.00
O316   O     0.94877   0.10017   0.44348   0.00000  Uiso   1.00
N317   N     0.73180   0.07459   0.60920   0.00000  Uiso   1.00
N318   N     0.85543   0.46065   0.81219   0.00000  Uiso   1.00
N319   N     0.87777   0.14415   0.31137   0.00000  Uiso   1.00
N320   N     0.82857   0.05306   0.55042   0.00000  Uiso   1.00
N321   N     0.95219   0.43912   0.75342   0.00000  Uiso   1.00
N322   N     0.97453   0.12261   0.25260   0.00000  Uiso   1.00
C323   C     0.18686   0.77168   0.91609   0.00000  Uiso   1.00
C324   C     0.18563   0.81932   0.81716   0.00000  Uiso   1.00
C325   C     0.23849   0.84737   0.76671   0.00000  Uiso   1.00
C326   C     0.22735   0.88971   0.67727   0.00000  Uiso   1.00
C327   C     0.23485   0.96157   0.52933   0.00000  Uiso   1.00
C328   C     0.15156   0.71291   0.87309   0.00000  Uiso   1.00
C329   C     0.17578   0.65150   0.86967   0.00000  Uiso   1.00
C330   C     0.13595   0.60428   0.82733   0.00000  Uiso   1.00
C331   C     0.09054   0.51093   0.76630   0.00000  Uiso   1.00
C332   C     0.14541   0.80015   0.01065   0.00000  Uiso   1.00
C333   C     0.16445   0.81208   0.12292   0.00000  Uiso   1.00
C334   C     0.11944   0.83829   0.19641   0.00000  Uiso   1.00
C335   C     0.06447   0.88039   0.34896   0.00000  Uiso   1.00
C336   C     0.07306   0.79700   0.84698   0.00000  Uiso   1.00
C337   C     0.12382   0.83307   0.77962   0.00000  Uiso   1.00
C338   C     0.11259   0.87538   0.69024   0.00000  Uiso   1.00
C339   C     0.16543   0.90349   0.63967   0.00000  Uiso   1.00
C340   C     0.08975   0.72666   0.83555   0.00000  Uiso   1.00
C341   C     0.04988   0.67952   0.79321   0.00000  Uiso   1.00
C342   C     0.07403   0.61805   0.78972   0.00000  Uiso   1.00
C343   C     0.08360   0.81391   0.97312   0.00000  Uiso   1.00
C344   C     0.03855   0.84010   0.04645   0.00000  Uiso   1.00
C345   C     0.05752   0.85206   0.15880   0.00000  Uiso   1.00
H346   H     0.23498   0.76097   0.94532   0.00000  Uiso   1.00
H347   H     0.28632   0.83671   0.79578   0.00000  Uiso   1.00
H348   H     0.22361   0.64088   0.89874   0.00000  Uiso   1.00
H349   H     0.21228   0.80143   0.15194   0.00000  Uiso   1.00
H350   H     0.31599   0.92673   0.61340   0.00000  Uiso   1.00
H351   H     0.18375   0.51380   0.83054   0.00000  Uiso   1.00
H352   H     0.15986   0.85236   0.36446   0.00000  Uiso   1.00
H353   H     0.02494   0.80770   0.81775   0.00000  Uiso   1.00
H354   H     0.06475   0.88601   0.66121   0.00000  Uiso   1.00
H355   H     0.00205   0.69018   0.76417   0.00000  Uiso   1.00
H356   H     0.99072   0.85073   0.01737   0.00000  Uiso   1.00
H357   H     0.13616   0.96675   0.50418   0.00000  Uiso   1.00
H358   H     0.00392   0.55381   0.72132   0.00000  Uiso   1.00
H359   H     0.98003   0.89237   0.25524   0.00000  Uiso   1.00
O360   O     0.25605   0.99739   0.45809   0.00000  Uiso   1.00
O361   O     0.08257   0.45564   0.74299   0.00000  Uiso   1.00
O362   O     0.05123   0.89983   0.44348   0.00000  Uiso   1.00
N363   N     0.26820   0.92541   0.60920   0.00000  Uiso   1.00
N364   N     0.14457   0.53935   0.81219   0.00000  Uiso   1.00
N365   N     0.12223   0.85585   0.31137   0.00000  Uiso   1.00
N366   N     0.17143   0.94694   0.55042   0.00000  Uiso   1.00
N367   N     0.04781   0.56088   0.75342   0.00000  Uiso   1.00
N368   N     0.02547   0.87739   0.25260   0.00000  Uiso   1.00
