data_job_04174
_audit_creation_date              2018-12-19
_audit_creation_method            'Materials Studio'
_symmetry_space_group_name_H-M    'P1'
_symmetry_Int_Tables_number       1
_symmetry_cell_setting            triclinic
loop_
_symmetry_equiv_pos_as_xyz
  x,y,z
_cell_length_a                    9.7417
_cell_length_b                    12.0324
_cell_length_c                    21.8925
_cell_angle_alpha                 81.1573
_cell_angle_beta                  77.8662
_cell_angle_gamma                 67.6813
loop_
_atom_site_label
_atom_site_type_symbol
_atom_site_fract_x
_atom_site_fract_y
_atom_site_fract_z
_atom_site_U_iso_or_equiv
_atom_site_adp_type
_atom_site_occupancy
C1     C     0.70811   0.39767   0.28511   0.00000  Uiso   1.00
C2     C     0.76022   0.48785   0.30640   0.00000  Uiso   1.00
C3     C     0.90868   0.47620   0.30351   0.00000  Uiso   1.00
C4     C     0.93293   0.56850   0.32535   0.00000  Uiso   1.00
C5     C     0.03209   0.69323   0.35481   0.00000  Uiso   1.00
C6     C     0.60635   0.36370   0.34181   0.00000  Uiso   1.00
C7     C     0.62544   0.24766   0.36868   0.00000  Uiso   1.00
C8     C     0.52014   0.23545   0.42032   0.00000  Uiso   1.00
C9     C     0.38036   0.16743   0.50473   0.00000  Uiso   1.00
C10    C     0.60635   0.46800   0.23721   0.00000  Uiso   1.00
C11    C     0.62541   0.43965   0.17614   0.00000  Uiso   1.00
C12    C     0.52009   0.51524   0.13972   0.00000  Uiso   1.00
C13    C     0.38031   0.60916   0.06173   0.00000  Uiso   1.00
C14    C     0.48715   0.58230   0.32903   0.00000  Uiso   1.00
C15    C     0.64019   0.58812   0.33026   0.00000  Uiso   1.00
C16    C     0.66422   0.68047   0.35210   0.00000  Uiso   1.00
C17    C     0.81270   0.66896   0.34924   0.00000  Uiso   1.00
C18    C     0.48633   0.46397   0.36567   0.00000  Uiso   1.00
C19    C     0.38097   0.45193   0.41727   0.00000  Uiso   1.00
C20    C     0.39991   0.33591   0.44422   0.00000  Uiso   1.00
C21    C     0.48633   0.56828   0.26107   0.00000  Uiso   1.00
C22    C     0.38095   0.64392   0.22474   0.00000  Uiso   1.00
C23    C     0.39986   0.61570   0.16362   0.00000  Uiso   1.00
H24    H     0.80154   0.31960   0.26654   0.00000  Uiso   1.00
H25    H     0.00153   0.39857   0.28505   0.00000  Uiso   1.00
H26    H     0.71832   0.17008   0.35021   0.00000  Uiso   1.00
H27    H     0.71830   0.36204   0.15770   0.00000  Uiso   1.00
H28    H     0.17033   0.53034   0.31612   0.00000  Uiso   1.00
H29    H     0.57313   0.04854   0.45349   0.00000  Uiso   1.00
H30    H     0.57309   0.45332   0.04755   0.00000  Uiso   1.00
H31    H     0.39371   0.66037   0.34760   0.00000  Uiso   1.00
H32    H     0.57132   0.75806   0.37056   0.00000  Uiso   1.00
H33    H     0.28811   0.52955   0.43572   0.00000  Uiso   1.00
H34    H     0.28809   0.72152   0.24321   0.00000  Uiso   1.00
H35    H     0.82116   0.82210   0.38553   0.00000  Uiso   1.00
H36    H     0.22395   0.34029   0.52290   0.00000  Uiso   1.00
H37    H     0.22391   0.74509   0.11696   0.00000  Uiso   1.00
O38    O     0.11994   0.73431   0.36449   0.00000  Uiso   1.00
O39    O     0.33642   0.10220   0.54470   0.00000  Uiso   1.00
O40    O     0.33638   0.63328   0.01212   0.00000  Uiso   1.00
N41    N     0.06378   0.58561   0.32929   0.00000  Uiso   1.00
N42    N     0.50544   0.13515   0.45773   0.00000  Uiso   1.00
N43    N     0.50538   0.51358   0.07821   0.00000  Uiso   1.00
N44    N     0.87589   0.74261   0.36664   0.00000  Uiso   1.00
N45    N     0.31756   0.29215   0.49508   0.00000  Uiso   1.00
N46    N     0.31750   0.67058   0.11556   0.00000  Uiso   1.00
C47    C     0.29189   0.60233   0.71489   0.00000  Uiso   1.00
C48    C     0.23978   0.51215   0.69360   0.00000  Uiso   1.00
C49    C     0.09132   0.52380   0.69649   0.00000  Uiso   1.00
C50    C     0.06707   0.43150   0.67465   0.00000  Uiso   1.00
C51    C     0.96791   0.30677   0.64519   0.00000  Uiso   1.00
C52    C     0.39365   0.63630   0.65819   0.00000  Uiso   1.00
C53    C     0.37456   0.75234   0.63132   0.00000  Uiso   1.00
C54    C     0.47986   0.76455   0.57968   0.00000  Uiso   1.00
C55    C     0.61964   0.83257   0.49527   0.00000  Uiso   1.00
C56    C     0.39365   0.53200   0.76279   0.00000  Uiso   1.00
C57    C     0.37459   0.56035   0.82386   0.00000  Uiso   1.00
C58    C     0.47991   0.48476   0.86028   0.00000  Uiso   1.00
C59    C     0.61969   0.39084   0.93827   0.00000  Uiso   1.00
C60    C     0.51285   0.41770   0.67097   0.00000  Uiso   1.00
C61    C     0.35981   0.41188   0.66974   0.00000  Uiso   1.00
C62    C     0.33578   0.31953   0.64790   0.00000  Uiso   1.00
C63    C     0.18730   0.33104   0.65076   0.00000  Uiso   1.00
C64    C     0.51367   0.53603   0.63433   0.00000  Uiso   1.00
C65    C     0.61903   0.54807   0.58273   0.00000  Uiso   1.00
C66    C     0.60009   0.66409   0.55578   0.00000  Uiso   1.00
C67    C     0.51367   0.43172   0.73893   0.00000  Uiso   1.00
C68    C     0.61905   0.35608   0.77526   0.00000  Uiso   1.00
C69    C     0.60014   0.38430   0.83638   0.00000  Uiso   1.00
H70    H     0.19846   0.68040   0.73346   0.00000  Uiso   1.00
H71    H     0.99847   0.60143   0.71495   0.00000  Uiso   1.00
H72    H     0.28168   0.82992   0.64979   0.00000  Uiso   1.00
H73    H     0.28170   0.63796   0.84230   0.00000  Uiso   1.00
H74    H     0.82967   0.46966   0.68388   0.00000  Uiso   1.00
H75    H     0.42687   0.95146   0.54651   0.00000  Uiso   1.00
H76    H     0.42691   0.54668   0.95245   0.00000  Uiso   1.00
H77    H     0.60629   0.33963   0.65240   0.00000  Uiso   1.00
H78    H     0.42868   0.24194   0.62944   0.00000  Uiso   1.00
H79    H     0.71189   0.47045   0.56428   0.00000  Uiso   1.00
H80    H     0.71191   0.27848   0.75679   0.00000  Uiso   1.00
H81    H     0.17884   0.17790   0.61447   0.00000  Uiso   1.00
H82    H     0.77605   0.65971   0.47710   0.00000  Uiso   1.00
H83    H     0.77609   0.25491   0.88304   0.00000  Uiso   1.00
O84    O     0.88006   0.26569   0.63551   0.00000  Uiso   1.00
O85    O     0.66358   0.89780   0.45530   0.00000  Uiso   1.00
O86    O     0.66362   0.36672   0.98788   0.00000  Uiso   1.00
N87    N     0.93622   0.41439   0.67071   0.00000  Uiso   1.00
N88    N     0.49456   0.86485   0.54227   0.00000  Uiso   1.00
N89    N     0.49462   0.48642   0.92179   0.00000  Uiso   1.00
N90    N     0.12411   0.25739   0.63336   0.00000  Uiso   1.00
N91    N     0.68244   0.70785   0.50492   0.00000  Uiso   1.00
N92    N     0.68250   0.32942   0.88444   0.00000  Uiso   1.00
