data_job_03755
_audit_creation_date              2018-12-19
_audit_creation_method            'Materials Studio'
_symmetry_space_group_name_H-M    'P1'
_symmetry_Int_Tables_number       1
_symmetry_cell_setting            triclinic
loop_
_symmetry_equiv_pos_as_xyz
  x,y,z
_cell_length_a                    27.4132
_cell_length_b                    10.2575
_cell_length_c                    20.1759
_cell_angle_alpha                 90.0000
_cell_angle_beta                  110.2660
_cell_angle_gamma                 90.0000
loop_
_atom_site_label
_atom_site_type_symbol
_atom_site_fract_x
_atom_site_fract_y
_atom_site_fract_z
_atom_site_U_iso_or_equiv
_atom_site_adp_type
_atom_site_occupancy
C1     C     0.67625   0.85050   0.11382   0.00000  Uiso   1.00
C2     C     0.64261   0.93445   0.14329   0.00000  Uiso   1.00
C3     C     0.65417   0.96778   0.21375   0.00000  Uiso   1.00
C4     C     0.61838   0.04542   0.23000   0.00000  Uiso   1.00
C5     C     0.57308   0.16921   0.28373   0.00000  Uiso   1.00
C6     C     0.64171   0.73821   0.07486   0.00000  Uiso   1.00
C7     C     0.65254   0.60655   0.08777   0.00000  Uiso   1.00
C8     C     0.61599   0.51899   0.04641   0.00000  Uiso   1.00
C9     C     0.56933   0.33812   0.99386   0.00000  Uiso   1.00
C10    C     0.68675   0.93269   0.05723   0.00000  Uiso   1.00
C11    C     0.73545   0.96454   0.05531   0.00000  Uiso   1.00
C12    C     0.73682   0.04070   0.99909   0.00000  Uiso   1.00
C13    C     0.76009   0.16180   0.91917   0.00000  Uiso   1.00
C14    C     0.59210   0.92909   0.01739   0.00000  Uiso   1.00
C15    C     0.59690   0.97713   0.09091   0.00000  Uiso   1.00
C16    C     0.56107   0.05474   0.10706   0.00000  Uiso   1.00
C17    C     0.57259   0.08819   0.17752   0.00000  Uiso   1.00
C18    C     0.59601   0.78089   0.02248   0.00000  Uiso   1.00
C19    C     0.55944   0.69350   0.98108   0.00000  Uiso   1.00
C20    C     0.57020   0.56175   0.99393   0.00000  Uiso   1.00
C21    C     0.64105   0.97538   0.00485   0.00000  Uiso   1.00
C22    C     0.64234   0.05150   0.94862   0.00000  Uiso   1.00
C23    C     0.69103   0.08346   0.94661   0.00000  Uiso   1.00
H24    H     0.71183   0.81726   0.15460   0.00000  Uiso   1.00
H25    H     0.68955   0.93472   0.25427   0.00000  Uiso   1.00
H26    H     0.68792   0.57355   0.12830   0.00000  Uiso   1.00
H27    H     0.77081   0.93149   0.09585   0.00000  Uiso   1.00
H28    H     0.64468   0.08373   0.34167   0.00000  Uiso   1.00
H29    H     0.64124   0.32218   0.07606   0.00000  Uiso   1.00
H30    H     0.81605   0.07696   0.00762   0.00000  Uiso   1.00
H31    H     0.55651   0.96232   0.97661   0.00000  Uiso   1.00
H32    H     0.52570   0.08775   0.06651   0.00000  Uiso   1.00
H33    H     0.52407   0.72657   0.94055   0.00000  Uiso   1.00
H34    H     0.60696   0.08451   0.90810   0.00000  Uiso   1.00
H35    H     0.51169   0.20793   0.18929   0.00000  Uiso   1.00
H36    H     0.50826   0.44638   0.92367   0.00000  Uiso   1.00
H37    H     0.68306   0.20116   0.85523   0.00000  Uiso   1.00
O38    O     0.56072   0.22569   0.32784   0.00000  Uiso   1.00
O39    O     0.55621   0.22657   0.97936   0.00000  Uiso   1.00
O40    O     0.78555   0.21682   0.88956   0.00000  Uiso   1.00
N41    N     0.61761   0.09577   0.29347   0.00000  Uiso   1.00
N42    N     0.61440   0.38376   0.04515   0.00000  Uiso   1.00
N43    N     0.77782   0.08939   0.98115   0.00000  Uiso   1.00
N44    N     0.54606   0.16261   0.21147   0.00000  Uiso   1.00
N45    N     0.54284   0.45060   0.96315   0.00000  Uiso   1.00
N46    N     0.70627   0.15623   0.89915   0.00000  Uiso   1.00
C47    C     0.17625   0.35050   0.11382   0.00000  Uiso   1.00
C48    C     0.14261   0.43445   0.14329   0.00000  Uiso   1.00
C49    C     0.15417   0.46778   0.21375   0.00000  Uiso   1.00
C50    C     0.11838   0.54542   0.23000   0.00000  Uiso   1.00
C51    C     0.07308   0.66921   0.28373   0.00000  Uiso   1.00
C52    C     0.14171   0.23821   0.07486   0.00000  Uiso   1.00
C53    C     0.15254   0.10655   0.08777   0.00000  Uiso   1.00
C54    C     0.11599   0.01899   0.04641   0.00000  Uiso   1.00
C55    C     0.06933   0.83812   0.99386   0.00000  Uiso   1.00
C56    C     0.18675   0.43269   0.05723   0.00000  Uiso   1.00
C57    C     0.23545   0.46454   0.05531   0.00000  Uiso   1.00
C58    C     0.23682   0.54070   0.99909   0.00000  Uiso   1.00
C59    C     0.26009   0.66180   0.91917   0.00000  Uiso   1.00
C60    C     0.09210   0.42909   0.01739   0.00000  Uiso   1.00
C61    C     0.09690   0.47713   0.09091   0.00000  Uiso   1.00
C62    C     0.06107   0.55474   0.10706   0.00000  Uiso   1.00
C63    C     0.07259   0.58819   0.17752   0.00000  Uiso   1.00
C64    C     0.09601   0.28089   0.02248   0.00000  Uiso   1.00
C65    C     0.05944   0.19350   0.98108   0.00000  Uiso   1.00
C66    C     0.07020   0.06175   0.99393   0.00000  Uiso   1.00
C67    C     0.14105   0.47538   0.00485   0.00000  Uiso   1.00
C68    C     0.14234   0.55150   0.94862   0.00000  Uiso   1.00
C69    C     0.19103   0.58346   0.94661   0.00000  Uiso   1.00
H70    H     0.21183   0.31726   0.15460   0.00000  Uiso   1.00
H71    H     0.18955   0.43472   0.25427   0.00000  Uiso   1.00
H72    H     0.18792   0.07355   0.12830   0.00000  Uiso   1.00
H73    H     0.27081   0.43149   0.09585   0.00000  Uiso   1.00
H74    H     0.14468   0.58373   0.34167   0.00000  Uiso   1.00
H75    H     0.14124   0.82218   0.07606   0.00000  Uiso   1.00
H76    H     0.31605   0.57696   0.00762   0.00000  Uiso   1.00
H77    H     0.05651   0.46232   0.97661   0.00000  Uiso   1.00
H78    H     0.02570   0.58775   0.06651   0.00000  Uiso   1.00
H79    H     0.02407   0.22657   0.94055   0.00000  Uiso   1.00
H80    H     0.10696   0.58451   0.90810   0.00000  Uiso   1.00
H81    H     0.01169   0.70793   0.18929   0.00000  Uiso   1.00
H82    H     0.00826   0.94638   0.92367   0.00000  Uiso   1.00
H83    H     0.18306   0.70116   0.85523   0.00000  Uiso   1.00
O84    O     0.06072   0.72569   0.32784   0.00000  Uiso   1.00
O85    O     0.05621   0.72657   0.97936   0.00000  Uiso   1.00
O86    O     0.28555   0.71682   0.88956   0.00000  Uiso   1.00
N87    N     0.11761   0.59577   0.29347   0.00000  Uiso   1.00
N88    N     0.11440   0.88376   0.04515   0.00000  Uiso   1.00
N89    N     0.27782   0.58939   0.98115   0.00000  Uiso   1.00
N90    N     0.04606   0.66261   0.21147   0.00000  Uiso   1.00
N91    N     0.04284   0.95060   0.96315   0.00000  Uiso   1.00
N92    N     0.20627   0.65623   0.89915   0.00000  Uiso   1.00
C93    C     0.32375   0.85050   0.38618   0.00000  Uiso   1.00
C94    C     0.35739   0.93445   0.35671   0.00000  Uiso   1.00
C95    C     0.34583   0.96778   0.28625   0.00000  Uiso   1.00
C96    C     0.38162   0.04542   0.27000   0.00000  Uiso   1.00
C97    C     0.42692   0.16921   0.21627   0.00000  Uiso   1.00
C98    C     0.35829   0.73821   0.42514   0.00000  Uiso   1.00
C99    C     0.34746   0.60655   0.41223   0.00000  Uiso   1.00
C100   C     0.38401   0.51899   0.45359   0.00000  Uiso   1.00
C101   C     0.43067   0.33812   0.50614   0.00000  Uiso   1.00
C102   C     0.31325   0.93269   0.44277   0.00000  Uiso   1.00
C103   C     0.26455   0.96454   0.44469   0.00000  Uiso   1.00
C104   C     0.26318   0.04070   0.50091   0.00000  Uiso   1.00
C105   C     0.23991   0.16180   0.58083   0.00000  Uiso   1.00
C106   C     0.40790   0.92909   0.48261   0.00000  Uiso   1.00
C107   C     0.40310   0.97713   0.40909   0.00000  Uiso   1.00
C108   C     0.43893   0.05474   0.39294   0.00000  Uiso   1.00
C109   C     0.42741   0.08819   0.32248   0.00000  Uiso   1.00
C110   C     0.40399   0.78089   0.47752   0.00000  Uiso   1.00
C111   C     0.44056   0.69350   0.51892   0.00000  Uiso   1.00
C112   C     0.42980   0.56175   0.50607   0.00000  Uiso   1.00
C113   C     0.35895   0.97538   0.49515   0.00000  Uiso   1.00
C114   C     0.35766   0.05150   0.55138   0.00000  Uiso   1.00
C115   C     0.30897   0.08346   0.55339   0.00000  Uiso   1.00
H116   H     0.28817   0.81726   0.34540   0.00000  Uiso   1.00
H117   H     0.31045   0.93472   0.24573   0.00000  Uiso   1.00
H118   H     0.31208   0.57355   0.37170   0.00000  Uiso   1.00
H119   H     0.22919   0.93149   0.40415   0.00000  Uiso   1.00
H120   H     0.35532   0.08373   0.15833   0.00000  Uiso   1.00
H121   H     0.35876   0.32218   0.42394   0.00000  Uiso   1.00
H122   H     0.18395   0.07696   0.49238   0.00000  Uiso   1.00
H123   H     0.44349   0.96232   0.52339   0.00000  Uiso   1.00
H124   H     0.47430   0.08775   0.43349   0.00000  Uiso   1.00
H125   H     0.47593   0.72657   0.55945   0.00000  Uiso   1.00
H126   H     0.39304   0.08451   0.59190   0.00000  Uiso   1.00
H127   H     0.48831   0.20793   0.31071   0.00000  Uiso   1.00
H128   H     0.49174   0.44638   0.57633   0.00000  Uiso   1.00
H129   H     0.31694   0.20116   0.64477   0.00000  Uiso   1.00
O130   O     0.43928   0.22569   0.17216   0.00000  Uiso   1.00
O131   O     0.44379   0.22657   0.52064   0.00000  Uiso   1.00
O132   O     0.21445   0.21682   0.61044   0.00000  Uiso   1.00
N133   N     0.38239   0.09577   0.20653   0.00000  Uiso   1.00
N134   N     0.38560   0.38376   0.45485   0.00000  Uiso   1.00
N135   N     0.22218   0.08939   0.51885   0.00000  Uiso   1.00
N136   N     0.45394   0.16261   0.28853   0.00000  Uiso   1.00
N137   N     0.45716   0.45060   0.53685   0.00000  Uiso   1.00
N138   N     0.29373   0.15623   0.60085   0.00000  Uiso   1.00
C139   C     0.82375   0.35050   0.38618   0.00000  Uiso   1.00
C140   C     0.85739   0.43445   0.35671   0.00000  Uiso   1.00
C141   C     0.84583   0.46778   0.28625   0.00000  Uiso   1.00
C142   C     0.88162   0.54542   0.27000   0.00000  Uiso   1.00
C143   C     0.92692   0.66921   0.21627   0.00000  Uiso   1.00
C144   C     0.85829   0.23821   0.42514   0.00000  Uiso   1.00
C145   C     0.84746   0.10655   0.41223   0.00000  Uiso   1.00
C146   C     0.88401   0.01899   0.45359   0.00000  Uiso   1.00
C147   C     0.93067   0.83812   0.50614   0.00000  Uiso   1.00
C148   C     0.81325   0.43269   0.44277   0.00000  Uiso   1.00
C149   C     0.76455   0.46454   0.44469   0.00000  Uiso   1.00
C150   C     0.76318   0.54070   0.50091   0.00000  Uiso   1.00
C151   C     0.73991   0.66180   0.58083   0.00000  Uiso   1.00
C152   C     0.90790   0.42909   0.48261   0.00000  Uiso   1.00
C153   C     0.90310   0.47713   0.40909   0.00000  Uiso   1.00
C154   C     0.93893   0.55474   0.39294   0.00000  Uiso   1.00
C155   C     0.92741   0.58819   0.32248   0.00000  Uiso   1.00
C156   C     0.90399   0.28089   0.47752   0.00000  Uiso   1.00
C157   C     0.94056   0.19350   0.51892   0.00000  Uiso   1.00
C158   C     0.92980   0.06175   0.50607   0.00000  Uiso   1.00
C159   C     0.85895   0.47538   0.49515   0.00000  Uiso   1.00
C160   C     0.85766   0.55150   0.55138   0.00000  Uiso   1.00
C161   C     0.80897   0.58346   0.55339   0.00000  Uiso   1.00
H162   H     0.78817   0.31726   0.34540   0.00000  Uiso   1.00
H163   H     0.81045   0.43472   0.24573   0.00000  Uiso   1.00
H164   H     0.81208   0.07355   0.37170   0.00000  Uiso   1.00
H165   H     0.72919   0.43149   0.40415   0.00000  Uiso   1.00
H166   H     0.85532   0.58373   0.15833   0.00000  Uiso   1.00
H167   H     0.85876   0.82218   0.42394   0.00000  Uiso   1.00
H168   H     0.68395   0.57696   0.49238   0.00000  Uiso   1.00
H169   H     0.94349   0.46232   0.52339   0.00000  Uiso   1.00
H170   H     0.97430   0.58775   0.43349   0.00000  Uiso   1.00
H171   H     0.97593   0.22657   0.55945   0.00000  Uiso   1.00
H172   H     0.89304   0.58451   0.59190   0.00000  Uiso   1.00
H173   H     0.98831   0.70793   0.31071   0.00000  Uiso   1.00
H174   H     0.99174   0.94638   0.57633   0.00000  Uiso   1.00
H175   H     0.81694   0.70116   0.64477   0.00000  Uiso   1.00
O176   O     0.93928   0.72569   0.17216   0.00000  Uiso   1.00
O177   O     0.94379   0.72657   0.52064   0.00000  Uiso   1.00
O178   O     0.71445   0.71682   0.61044   0.00000  Uiso   1.00
N179   N     0.88239   0.59577   0.20653   0.00000  Uiso   1.00
N180   N     0.88560   0.88376   0.45485   0.00000  Uiso   1.00
N181   N     0.72218   0.58939   0.51885   0.00000  Uiso   1.00
N182   N     0.95394   0.66261   0.28853   0.00000  Uiso   1.00
N183   N     0.95716   0.95060   0.53685   0.00000  Uiso   1.00
N184   N     0.79373   0.65623   0.60085   0.00000  Uiso   1.00
C185   C     0.32375   0.14950   0.88618   0.00000  Uiso   1.00
C186   C     0.35739   0.06555   0.85671   0.00000  Uiso   1.00
C187   C     0.34583   0.03222   0.78625   0.00000  Uiso   1.00
C188   C     0.38162   0.95458   0.77000   0.00000  Uiso   1.00
C189   C     0.42692   0.83079   0.71627   0.00000  Uiso   1.00
C190   C     0.35829   0.26179   0.92514   0.00000  Uiso   1.00
C191   C     0.34746   0.39345   0.91223   0.00000  Uiso   1.00
C192   C     0.38401   0.48101   0.95359   0.00000  Uiso   1.00
C193   C     0.43067   0.66188   0.00614   0.00000  Uiso   1.00
C194   C     0.31325   0.06731   0.94277   0.00000  Uiso   1.00
C195   C     0.26455   0.03546   0.94469   0.00000  Uiso   1.00
C196   C     0.26318   0.95930   0.00091   0.00000  Uiso   1.00
C197   C     0.23991   0.83820   0.08083   0.00000  Uiso   1.00
C198   C     0.40790   0.07091   0.98261   0.00000  Uiso   1.00
C199   C     0.40310   0.02287   0.90909   0.00000  Uiso   1.00
C200   C     0.43893   0.94526   0.89294   0.00000  Uiso   1.00
C201   C     0.42741   0.91181   0.82248   0.00000  Uiso   1.00
C202   C     0.40399   0.21911   0.97752   0.00000  Uiso   1.00
C203   C     0.44056   0.30650   0.01892   0.00000  Uiso   1.00
C204   C     0.42980   0.43825   0.00607   0.00000  Uiso   1.00
C205   C     0.35895   0.02462   0.99515   0.00000  Uiso   1.00
C206   C     0.35766   0.94850   0.05138   0.00000  Uiso   1.00
C207   C     0.30897   0.91654   0.05339   0.00000  Uiso   1.00
H208   H     0.28817   0.18274   0.84540   0.00000  Uiso   1.00
H209   H     0.31045   0.06528   0.74573   0.00000  Uiso   1.00
H210   H     0.31208   0.42645   0.87170   0.00000  Uiso   1.00
H211   H     0.22919   0.06851   0.90415   0.00000  Uiso   1.00
H212   H     0.35532   0.91627   0.65833   0.00000  Uiso   1.00
H213   H     0.35876   0.67782   0.92394   0.00000  Uiso   1.00
H214   H     0.18395   0.92304   0.99238   0.00000  Uiso   1.00
H215   H     0.44349   0.03768   0.02339   0.00000  Uiso   1.00
H216   H     0.47430   0.91225   0.93349   0.00000  Uiso   1.00
H217   H     0.47593   0.27343   0.05945   0.00000  Uiso   1.00
H218   H     0.39304   0.91549   0.09190   0.00000  Uiso   1.00
H219   H     0.48831   0.79207   0.81071   0.00000  Uiso   1.00
H220   H     0.49174   0.55362   0.07633   0.00000  Uiso   1.00
H221   H     0.31694   0.79884   0.14477   0.00000  Uiso   1.00
O222   O     0.43928   0.77431   0.67216   0.00000  Uiso   1.00
O223   O     0.44379   0.77343   0.02064   0.00000  Uiso   1.00
O224   O     0.21445   0.78318   0.11044   0.00000  Uiso   1.00
N225   N     0.38239   0.90423   0.70653   0.00000  Uiso   1.00
N226   N     0.38560   0.61624   0.95485   0.00000  Uiso   1.00
N227   N     0.22218   0.91061   0.01885   0.00000  Uiso   1.00
N228   N     0.45394   0.83739   0.78853   0.00000  Uiso   1.00
N229   N     0.45716   0.54940   0.03685   0.00000  Uiso   1.00
N230   N     0.29373   0.84377   0.10085   0.00000  Uiso   1.00
C231   C     0.82375   0.64950   0.88618   0.00000  Uiso   1.00
C232   C     0.85739   0.56555   0.85671   0.00000  Uiso   1.00
C233   C     0.84583   0.53222   0.78625   0.00000  Uiso   1.00
C234   C     0.88162   0.45458   0.77000   0.00000  Uiso   1.00
C235   C     0.92692   0.33079   0.71627   0.00000  Uiso   1.00
C236   C     0.85829   0.76179   0.92514   0.00000  Uiso   1.00
C237   C     0.84746   0.89345   0.91223   0.00000  Uiso   1.00
C238   C     0.88401   0.98101   0.95359   0.00000  Uiso   1.00
C239   C     0.93067   0.16188   0.00614   0.00000  Uiso   1.00
C240   C     0.81325   0.56731   0.94277   0.00000  Uiso   1.00
C241   C     0.76455   0.53546   0.94469   0.00000  Uiso   1.00
C242   C     0.76318   0.45930   0.00091   0.00000  Uiso   1.00
C243   C     0.73991   0.33820   0.08083   0.00000  Uiso   1.00
C244   C     0.90790   0.57091   0.98261   0.00000  Uiso   1.00
C245   C     0.90310   0.52287   0.90909   0.00000  Uiso   1.00
C246   C     0.93893   0.44526   0.89294   0.00000  Uiso   1.00
C247   C     0.92741   0.41181   0.82248   0.00000  Uiso   1.00
C248   C     0.90399   0.71911   0.97752   0.00000  Uiso   1.00
C249   C     0.94056   0.80650   0.01892   0.00000  Uiso   1.00
C250   C     0.92980   0.93825   0.00607   0.00000  Uiso   1.00
C251   C     0.85895   0.52462   0.99515   0.00000  Uiso   1.00
C252   C     0.85766   0.44850   0.05138   0.00000  Uiso   1.00
C253   C     0.80897   0.41654   0.05339   0.00000  Uiso   1.00
H254   H     0.78817   0.68274   0.84540   0.00000  Uiso   1.00
H255   H     0.81045   0.56528   0.74573   0.00000  Uiso   1.00
H256   H     0.81208   0.92645   0.87170   0.00000  Uiso   1.00
H257   H     0.72919   0.56851   0.90415   0.00000  Uiso   1.00
H258   H     0.85532   0.41627   0.65833   0.00000  Uiso   1.00
H259   H     0.85876   0.17782   0.92394   0.00000  Uiso   1.00
H260   H     0.68395   0.42304   0.99238   0.00000  Uiso   1.00
H261   H     0.94349   0.53768   0.02339   0.00000  Uiso   1.00
H262   H     0.97430   0.41225   0.93349   0.00000  Uiso   1.00
H263   H     0.97593   0.77343   0.05945   0.00000  Uiso   1.00
H264   H     0.89304   0.41549   0.09190   0.00000  Uiso   1.00
H265   H     0.98831   0.29207   0.81071   0.00000  Uiso   1.00
H266   H     0.99174   0.05362   0.07633   0.00000  Uiso   1.00
H267   H     0.81694   0.29884   0.14477   0.00000  Uiso   1.00
O268   O     0.93928   0.27431   0.67216   0.00000  Uiso   1.00
O269   O     0.94379   0.27343   0.02064   0.00000  Uiso   1.00
O270   O     0.71445   0.28318   0.11044   0.00000  Uiso   1.00
N271   N     0.88239   0.40423   0.70653   0.00000  Uiso   1.00
N272   N     0.88560   0.11624   0.95485   0.00000  Uiso   1.00
N273   N     0.72218   0.41061   0.01885   0.00000  Uiso   1.00
N274   N     0.95394   0.33739   0.78853   0.00000  Uiso   1.00
N275   N     0.95716   0.04940   0.03685   0.00000  Uiso   1.00
N276   N     0.79373   0.34377   0.10085   0.00000  Uiso   1.00
C277   C     0.67625   0.14950   0.61382   0.00000  Uiso   1.00
C278   C     0.64261   0.06555   0.64329   0.00000  Uiso   1.00
C279   C     0.65417   0.03222   0.71375   0.00000  Uiso   1.00
C280   C     0.61838   0.95458   0.73000   0.00000  Uiso   1.00
C281   C     0.57308   0.83079   0.78373   0.00000  Uiso   1.00
C282   C     0.64171   0.26179   0.57486   0.00000  Uiso   1.00
C283   C     0.65254   0.39345   0.58777   0.00000  Uiso   1.00
C284   C     0.61599   0.48101   0.54641   0.00000  Uiso   1.00
C285   C     0.56933   0.66188   0.49386   0.00000  Uiso   1.00
C286   C     0.68675   0.06731   0.55723   0.00000  Uiso   1.00
C287   C     0.73545   0.03546   0.55531   0.00000  Uiso   1.00
C288   C     0.73682   0.95930   0.49909   0.00000  Uiso   1.00
C289   C     0.76009   0.83820   0.41917   0.00000  Uiso   1.00
C290   C     0.59210   0.07091   0.51739   0.00000  Uiso   1.00
C291   C     0.59690   0.02287   0.59091   0.00000  Uiso   1.00
C292   C     0.56107   0.94526   0.60706   0.00000  Uiso   1.00
C293   C     0.57259   0.91181   0.67752   0.00000  Uiso   1.00
C294   C     0.59601   0.21911   0.52248   0.00000  Uiso   1.00
C295   C     0.55944   0.30650   0.48108   0.00000  Uiso   1.00
C296   C     0.57020   0.43825   0.49393   0.00000  Uiso   1.00
C297   C     0.64105   0.02462   0.50485   0.00000  Uiso   1.00
C298   C     0.64234   0.94850   0.44862   0.00000  Uiso   1.00
C299   C     0.69103   0.91654   0.44661   0.00000  Uiso   1.00
H300   H     0.71183   0.18274   0.65460   0.00000  Uiso   1.00
H301   H     0.68955   0.06528   0.75427   0.00000  Uiso   1.00
H302   H     0.68792   0.42645   0.62830   0.00000  Uiso   1.00
H303   H     0.77081   0.06851   0.59585   0.00000  Uiso   1.00
H304   H     0.64468   0.91627   0.84167   0.00000  Uiso   1.00
H305   H     0.64124   0.67782   0.57606   0.00000  Uiso   1.00
H306   H     0.81605   0.92304   0.50762   0.00000  Uiso   1.00
H307   H     0.55651   0.03768   0.47661   0.00000  Uiso   1.00
H308   H     0.52570   0.91225   0.56651   0.00000  Uiso   1.00
H309   H     0.52407   0.27343   0.44055   0.00000  Uiso   1.00
H310   H     0.60696   0.91549   0.40810   0.00000  Uiso   1.00
H311   H     0.51169   0.79207   0.68929   0.00000  Uiso   1.00
H312   H     0.50826   0.55362   0.42367   0.00000  Uiso   1.00
H313   H     0.68306   0.79884   0.35523   0.00000  Uiso   1.00
O314   O     0.56072   0.77431   0.82784   0.00000  Uiso   1.00
O315   O     0.55621   0.77343   0.47936   0.00000  Uiso   1.00
O316   O     0.78555   0.78318   0.38956   0.00000  Uiso   1.00
N317   N     0.61761   0.90423   0.79347   0.00000  Uiso   1.00
N318   N     0.61440   0.61624   0.54515   0.00000  Uiso   1.00
N319   N     0.77782   0.91061   0.48115   0.00000  Uiso   1.00
N320   N     0.54606   0.83739   0.71147   0.00000  Uiso   1.00
N321   N     0.54284   0.54940   0.46315   0.00000  Uiso   1.00
N322   N     0.70627   0.84377   0.39915   0.00000  Uiso   1.00
C323   C     0.17625   0.64950   0.61382   0.00000  Uiso   1.00
C324   C     0.14261   0.56555   0.64329   0.00000  Uiso   1.00
C325   C     0.15417   0.53222   0.71375   0.00000  Uiso   1.00
C326   C     0.11838   0.45458   0.73000   0.00000  Uiso   1.00
C327   C     0.07308   0.33079   0.78373   0.00000  Uiso   1.00
C328   C     0.14171   0.76179   0.57486   0.00000  Uiso   1.00
C329   C     0.15254   0.89345   0.58777   0.00000  Uiso   1.00
C330   C     0.11599   0.98101   0.54641   0.00000  Uiso   1.00
C331   C     0.06933   0.16188   0.49386   0.00000  Uiso   1.00
C332   C     0.18675   0.56731   0.55723   0.00000  Uiso   1.00
C333   C     0.23545   0.53546   0.55531   0.00000  Uiso   1.00
C334   C     0.23682   0.45930   0.49909   0.00000  Uiso   1.00
C335   C     0.26009   0.33820   0.41917   0.00000  Uiso   1.00
C336   C     0.09210   0.57091   0.51739   0.00000  Uiso   1.00
C337   C     0.09690   0.52287   0.59091   0.00000  Uiso   1.00
C338   C     0.06107   0.44526   0.60706   0.00000  Uiso   1.00
C339   C     0.07259   0.41181   0.67752   0.00000  Uiso   1.00
C340   C     0.09601   0.71911   0.52248   0.00000  Uiso   1.00
C341   C     0.05944   0.80650   0.48108   0.00000  Uiso   1.00
C342   C     0.07020   0.93825   0.49393   0.00000  Uiso   1.00
C343   C     0.14105   0.52462   0.50485   0.00000  Uiso   1.00
C344   C     0.14234   0.44850   0.44862   0.00000  Uiso   1.00
C345   C     0.19103   0.41654   0.44661   0.00000  Uiso   1.00
H346   H     0.21183   0.68274   0.65460   0.00000  Uiso   1.00
H347   H     0.18955   0.56528   0.75427   0.00000  Uiso   1.00
H348   H     0.18792   0.92645   0.62830   0.00000  Uiso   1.00
H349   H     0.27081   0.56851   0.59585   0.00000  Uiso   1.00
H350   H     0.14468   0.41627   0.84167   0.00000  Uiso   1.00
H351   H     0.14124   0.17782   0.57606   0.00000  Uiso   1.00
H352   H     0.31605   0.42304   0.50762   0.00000  Uiso   1.00
H353   H     0.05651   0.53768   0.47661   0.00000  Uiso   1.00
H354   H     0.02570   0.41225   0.56651   0.00000  Uiso   1.00
H355   H     0.02407   0.77343   0.44055   0.00000  Uiso   1.00
H356   H     0.10696   0.41549   0.40810   0.00000  Uiso   1.00
H357   H     0.01169   0.29207   0.68929   0.00000  Uiso   1.00
H358   H     0.00826   0.05362   0.42367   0.00000  Uiso   1.00
H359   H     0.18306   0.29884   0.35523   0.00000  Uiso   1.00
O360   O     0.06072   0.27431   0.82784   0.00000  Uiso   1.00
O361   O     0.05621   0.27343   0.47936   0.00000  Uiso   1.00
O362   O     0.28555   0.28318   0.38956   0.00000  Uiso   1.00
N363   N     0.11761   0.40423   0.79347   0.00000  Uiso   1.00
N364   N     0.11440   0.11624   0.54515   0.00000  Uiso   1.00
N365   N     0.27782   0.41061   0.48115   0.00000  Uiso   1.00
N366   N     0.04606   0.33739   0.71147   0.00000  Uiso   1.00
N367   N     0.04284   0.04940   0.46315   0.00000  Uiso   1.00
N368   N     0.20627   0.34377   0.39915   0.00000  Uiso   1.00
