data_job_03046
_audit_creation_date              2018-12-19
_audit_creation_method            'Materials Studio'
_symmetry_space_group_name_H-M    'P1'
_symmetry_Int_Tables_number       1
_symmetry_cell_setting            triclinic
loop_
_symmetry_equiv_pos_as_xyz
  x,y,z
_cell_length_a                    15.4876
_cell_length_b                    12.7158
_cell_length_c                    15.4882
_cell_angle_alpha                 85.9180
_cell_angle_beta                  102.3290
_cell_angle_gamma                 85.9135
loop_
_atom_site_label
_atom_site_type_symbol
_atom_site_fract_x
_atom_site_fract_y
_atom_site_fract_z
_atom_site_U_iso_or_equiv
_atom_site_adp_type
_atom_site_occupancy
C1     C     0.66454   0.68129   0.44381   0.00000  Uiso   1.00
C2     C     0.70587   0.78397   0.42684   0.00000  Uiso   1.00
C3     C     0.79193   0.80521   0.46390   0.00000  Uiso   1.00
C4     C     0.81710   0.90386   0.44001   0.00000  Uiso   1.00
C5     C     0.89021   0.05196   0.42265   0.00000  Uiso   1.00
C6     C     0.58149   0.71270   0.47736   0.00000  Uiso   1.00
C7     C     0.56299   0.67399   0.55689   0.00000  Uiso   1.00
C8     C     0.48345   0.71264   0.57551   0.00000  Uiso   1.00
C9     C     0.36344   0.75002   0.63655   0.00000  Uiso   1.00
C10    C     0.63200   0.64140   0.35299   0.00000  Uiso   1.00
C11    C     0.65594   0.54274   0.32795   0.00000  Uiso   1.00
C12    C     0.61890   0.52134   0.24187   0.00000  Uiso   1.00
C13    C     0.57731   0.44803   0.10981   0.00000  Uiso   1.00
C14    C     0.55618   0.81872   0.33547   0.00000  Uiso   1.00
C15    C     0.64701   0.85862   0.36800   0.00000  Uiso   1.00
C16    C     0.67205   0.95726   0.34404   0.00000  Uiso   1.00
C17    C     0.75814   0.97864   0.38106   0.00000  Uiso   1.00
C18    C     0.52264   0.78734   0.41852   0.00000  Uiso   1.00
C19    C     0.44311   0.82604   0.43702   0.00000  Uiso   1.00
C20    C     0.42449   0.78742   0.51656   0.00000  Uiso   1.00
C21    C     0.57315   0.71604   0.29414   0.00000  Uiso   1.00
C22    C     0.53606   0.69479   0.20808   0.00000  Uiso   1.00
C23    C     0.55994   0.59612   0.18292   0.00000  Uiso   1.00
H24    H     0.71035   0.62318   0.48963   0.00000  Uiso   1.00
H25    H     0.83746   0.74742   0.50945   0.00000  Uiso   1.00
H26    H     0.60854   0.61622   0.60241   0.00000  Uiso   1.00
H27    H     0.70148   0.48499   0.37351   0.00000  Uiso   1.00
H28    H     0.95241   0.91811   0.50550   0.00000  Uiso   1.00
H29    H     0.46971   0.64143   0.70150   0.00000  Uiso   1.00
H30    H     0.66570   0.36471   0.21882   0.00000  Uiso   1.00
H31    H     0.51036   0.87684   0.28965   0.00000  Uiso   1.00
H32    H     0.62650   0.01501   0.29850   0.00000  Uiso   1.00
H33    H     0.39758   0.88380   0.39146   0.00000  Uiso   1.00
H34    H     0.49052   0.75258   0.16256   0.00000  Uiso   1.00
H35    H     0.78118   0.13529   0.33429   0.00000  Uiso   1.00
H36    H     0.29848   0.85861   0.53029   0.00000  Uiso   1.00
H37    H     0.49447   0.58189   0.04761   0.00000  Uiso   1.00
O38    O     0.94679   0.11303   0.42935   0.00000  Uiso   1.00
O39    O     0.31351   0.75002   0.68648   0.00000  Uiso   1.00
O40    O     0.57064   0.38697   0.05322   0.00000  Uiso   1.00
N41    N     0.89618   0.95025   0.46398   0.00000  Uiso   1.00
N42    N     0.44489   0.69159   0.64723   0.00000  Uiso   1.00
N43    N     0.62810   0.43286   0.19597   0.00000  Uiso   1.00
N44    N     0.80405   0.06712   0.37185   0.00000  Uiso   1.00
N45    N     0.35276   0.80845   0.55510   0.00000  Uiso   1.00
N46    N     0.53597   0.54973   0.10385   0.00000  Uiso   1.00
C47    C     0.33546   0.31871   0.55619   0.00000  Uiso   1.00
C48    C     0.29413   0.21603   0.57316   0.00000  Uiso   1.00
C49    C     0.20807   0.19479   0.53610   0.00000  Uiso   1.00
C50    C     0.18290   0.09614   0.55999   0.00000  Uiso   1.00
C51    C     0.10979   0.94804   0.57735   0.00000  Uiso   1.00
C52    C     0.41851   0.28730   0.52264   0.00000  Uiso   1.00
C53    C     0.43701   0.32601   0.44311   0.00000  Uiso   1.00
C54    C     0.51655   0.28736   0.42449   0.00000  Uiso   1.00
C55    C     0.63656   0.24998   0.36345   0.00000  Uiso   1.00
C56    C     0.36800   0.35860   0.64701   0.00000  Uiso   1.00
C57    C     0.34406   0.45726   0.67205   0.00000  Uiso   1.00
C58    C     0.38110   0.47866   0.75813   0.00000  Uiso   1.00
C59    C     0.42269   0.55197   0.89019   0.00000  Uiso   1.00
C60    C     0.44382   0.18128   0.66453   0.00000  Uiso   1.00
C61    C     0.35299   0.14138   0.63200   0.00000  Uiso   1.00
C62    C     0.32795   0.04274   0.65596   0.00000  Uiso   1.00
C63    C     0.24186   0.02136   0.61894   0.00000  Uiso   1.00
C64    C     0.47736   0.21266   0.58148   0.00000  Uiso   1.00
C65    C     0.55689   0.17396   0.56298   0.00000  Uiso   1.00
C66    C     0.57551   0.21258   0.48344   0.00000  Uiso   1.00
C67    C     0.42685   0.28396   0.70586   0.00000  Uiso   1.00
C68    C     0.46394   0.30521   0.79192   0.00000  Uiso   1.00
C69    C     0.44006   0.40388   0.81708   0.00000  Uiso   1.00
H70    H     0.28965   0.37682   0.51037   0.00000  Uiso   1.00
H71    H     0.16254   0.25258   0.49055   0.00000  Uiso   1.00
H72    H     0.39146   0.38378   0.39759   0.00000  Uiso   1.00
H73    H     0.29852   0.51501   0.62649   0.00000  Uiso   1.00
H74    H     0.04759   0.08189   0.49450   0.00000  Uiso   1.00
H75    H     0.53029   0.35857   0.29850   0.00000  Uiso   1.00
H76    H     0.33430   0.63529   0.78118   0.00000  Uiso   1.00
H77    H     0.48964   0.12316   0.71035   0.00000  Uiso   1.00
H78    H     0.37350   0.98499   0.70150   0.00000  Uiso   1.00
H79    H     0.60242   0.11620   0.60854   0.00000  Uiso   1.00
H80    H     0.50948   0.24742   0.83744   0.00000  Uiso   1.00
H81    H     0.21882   0.86471   0.66571   0.00000  Uiso   1.00
H82    H     0.70152   0.14139   0.46971   0.00000  Uiso   1.00
H83    H     0.50553   0.41811   0.95239   0.00000  Uiso   1.00
O84    O     0.05321   0.88697   0.57065   0.00000  Uiso   1.00
O85    O     0.68649   0.24998   0.31352   0.00000  Uiso   1.00
O86    O     0.42936   0.61303   0.94678   0.00000  Uiso   1.00
N87    N     0.10382   0.04975   0.53602   0.00000  Uiso   1.00
N88    N     0.55511   0.30841   0.35277   0.00000  Uiso   1.00
N89    N     0.37190   0.56714   0.80403   0.00000  Uiso   1.00
N90    N     0.19595   0.93288   0.62815   0.00000  Uiso   1.00
N91    N     0.64724   0.19155   0.44490   0.00000  Uiso   1.00
N92    N     0.46403   0.45027   0.89615   0.00000  Uiso   1.00
