data_job_00248
_audit_creation_date              2018-12-19
_audit_creation_method            'Materials Studio'
_symmetry_space_group_name_H-M    'P1'
_symmetry_Int_Tables_number       1
_symmetry_cell_setting            triclinic
loop_
_symmetry_equiv_pos_as_xyz
  x,y,z
_cell_length_a                    12.9408
_cell_length_b                    12.8230
_cell_length_c                    14.9023
_cell_angle_alpha                 90.0000
_cell_angle_beta                  109.2000
_cell_angle_gamma                 90.0000
loop_
_atom_site_label
_atom_site_type_symbol
_atom_site_fract_x
_atom_site_fract_y
_atom_site_fract_z
_atom_site_U_iso_or_equiv
_atom_site_adp_type
_atom_site_occupancy
C1     C     0.66556   0.70736   0.92174   0.00000  Uiso   1.00
C2     C     0.57620   0.67848   0.82926   0.00000  Uiso   1.00
C3     C     0.46786   0.71057   0.80219   0.00000  Uiso   1.00
C4     C     0.39885   0.67567   0.71484   0.00000  Uiso   1.00
C5     C     0.25430   0.64062   0.58011   0.00000  Uiso   1.00
C6     C     0.71166   0.60446   0.96958   0.00000  Uiso   1.00
C7     C     0.71722   0.57433   0.06050   0.00000  Uiso   1.00
C8     C     0.76226   0.47713   0.09128   0.00000  Uiso   1.00
C9     C     0.82808   0.32720   0.17442   0.00000  Uiso   1.00
C10    C     0.75686   0.75755   0.89306   0.00000  Uiso   1.00
C11    C     0.80046   0.85613   0.91965   0.00000  Uiso   1.00
C12    C     0.88357   0.88781   0.88602   0.00000  Uiso   1.00
C13    C     0.01958   0.97558   0.85034   0.00000  Uiso   1.00
C14    C     0.73568   0.58832   0.81474   0.00000  Uiso   1.00
C15    C     0.61429   0.61382   0.77115   0.00000  Uiso   1.00
C16    C     0.54544   0.57887   0.68381   0.00000  Uiso   1.00
C17    C     0.43701   0.61090   0.65662   0.00000  Uiso   1.00
C18    C     0.74975   0.53981   0.91147   0.00000  Uiso   1.00
C19    C     0.79480   0.44263   0.94212   0.00000  Uiso   1.00
C20    C     0.80042   0.41236   0.03306   0.00000  Uiso   1.00
C21    C     0.79495   0.69290   0.83494   0.00000  Uiso   1.00
C22    C     0.87803   0.72443   0.80126   0.00000  Uiso   1.00
C23    C     0.92173   0.82304   0.82779   0.00000  Uiso   1.00
H24    H     0.63591   0.75769   0.96699   0.00000  Uiso   1.00
H25    H     0.43841   0.76060   0.84720   0.00000  Uiso   1.00
H26    H     0.68775   0.62439   0.10546   0.00000  Uiso   1.00
H27    H     0.77096   0.90614   0.96463   0.00000  Uiso   1.00
H28    H     0.23623   0.73528   0.68876   0.00000  Uiso   1.00
H29    H     0.76201   0.44808   0.23335   0.00000  Uiso   1.00
H30    H     0.93748   0.04222   0.93638   0.00000  Uiso   1.00
H31    H     0.76534   0.53798   0.76949   0.00000  Uiso   1.00
H32    H     0.57493   0.52883   0.63885   0.00000  Uiso   1.00
H33    H     0.82427   0.39262   0.89712   0.00000  Uiso   1.00
H34    H     0.90748   0.67438   0.75629   0.00000  Uiso   1.00
H35    H     0.34704   0.54716   0.51966   0.00000  Uiso   1.00
H36    H     0.87282   0.25997   0.06426   0.00000  Uiso   1.00
H37    H     0.04829   0.85411   0.76728   0.00000  Uiso   1.00
O38    O     0.16404   0.63914   0.52185   0.00000  Uiso   1.00
O39    O     0.85385   0.26236   0.23634   0.00000  Uiso   1.00
O40    O     0.08406   0.04185   0.84671   0.00000  Uiso   1.00
N41    N     0.28845   0.69228   0.66688   0.00000  Uiso   1.00
N42    N     0.78000   0.42376   0.17604   0.00000  Uiso   1.00
N43    N     0.94407   0.97922   0.89841   0.00000  Uiso   1.00
N44    N     0.34807   0.59106   0.57589   0.00000  Uiso   1.00
N45    N     0.83962   0.32254   0.08505   0.00000  Uiso   1.00
N46    N     0.00369   0.87800   0.80742   0.00000  Uiso   1.00
C47    C     0.33444   0.20736   0.57826   0.00000  Uiso   1.00
C48    C     0.42380   0.17848   0.67074   0.00000  Uiso   1.00
C49    C     0.53214   0.21057   0.69781   0.00000  Uiso   1.00
C50    C     0.60115   0.17567   0.78516   0.00000  Uiso   1.00
C51    C     0.74570   0.14062   0.91989   0.00000  Uiso   1.00
C52    C     0.28834   0.10446   0.53042   0.00000  Uiso   1.00
C53    C     0.28278   0.07433   0.43950   0.00000  Uiso   1.00
C54    C     0.23774   0.97713   0.40872   0.00000  Uiso   1.00
C55    C     0.17192   0.82720   0.32558   0.00000  Uiso   1.00
C56    C     0.24314   0.25755   0.60694   0.00000  Uiso   1.00
C57    C     0.19954   0.35613   0.58035   0.00000  Uiso   1.00
C58    C     0.11643   0.38781   0.61398   0.00000  Uiso   1.00
C59    C     0.98042   0.47558   0.64966   0.00000  Uiso   1.00
C60    C     0.26432   0.08832   0.68526   0.00000  Uiso   1.00
C61    C     0.38571   0.11382   0.72885   0.00000  Uiso   1.00
C62    C     0.45456   0.07887   0.81619   0.00000  Uiso   1.00
C63    C     0.56299   0.11090   0.84338   0.00000  Uiso   1.00
C64    C     0.25025   0.03981   0.58853   0.00000  Uiso   1.00
C65    C     0.20520   0.94263   0.55788   0.00000  Uiso   1.00
C66    C     0.19958   0.91236   0.46694   0.00000  Uiso   1.00
C67    C     0.20505   0.19290   0.66506   0.00000  Uiso   1.00
C68    C     0.12197   0.22443   0.69874   0.00000  Uiso   1.00
C69    C     0.07827   0.32304   0.67221   0.00000  Uiso   1.00
H70    H     0.36409   0.25769   0.53301   0.00000  Uiso   1.00
H71    H     0.56159   0.26060   0.65280   0.00000  Uiso   1.00
H72    H     0.31225   0.12439   0.39454   0.00000  Uiso   1.00
H73    H     0.22904   0.40614   0.53537   0.00000  Uiso   1.00
H74    H     0.76377   0.23528   0.81124   0.00000  Uiso   1.00
H75    H     0.23799   0.94808   0.26665   0.00000  Uiso   1.00
H76    H     0.06252   0.54222   0.56362   0.00000  Uiso   1.00
H77    H     0.23466   0.03798   0.73051   0.00000  Uiso   1.00
H78    H     0.42507   0.02883   0.86115   0.00000  Uiso   1.00
H79    H     0.17573   0.89262   0.60288   0.00000  Uiso   1.00
H80    H     0.09252   0.17438   0.74371   0.00000  Uiso   1.00
H81    H     0.65296   0.04716   0.98034   0.00000  Uiso   1.00
H82    H     0.12718   0.75997   0.43574   0.00000  Uiso   1.00
H83    H     0.95171   0.35411   0.73272   0.00000  Uiso   1.00
O84    O     0.83596   0.13914   0.97815   0.00000  Uiso   1.00
O85    O     0.14615   0.76236   0.26366   0.00000  Uiso   1.00
O86    O     0.91594   0.54185   0.65329   0.00000  Uiso   1.00
N87    N     0.71155   0.19228   0.83312   0.00000  Uiso   1.00
N88    N     0.22000   0.92376   0.32396   0.00000  Uiso   1.00
N89    N     0.05593   0.47922   0.60159   0.00000  Uiso   1.00
N90    N     0.65193   0.09106   0.92411   0.00000  Uiso   1.00
N91    N     0.16038   0.82254   0.41495   0.00000  Uiso   1.00
N92    N     0.99631   0.37800   0.69258   0.00000  Uiso   1.00
C93    C     0.33444   0.29264   0.07826   0.00000  Uiso   1.00
C94    C     0.42380   0.32152   0.17074   0.00000  Uiso   1.00
C95    C     0.53214   0.28943   0.19781   0.00000  Uiso   1.00
C96    C     0.60115   0.32433   0.28516   0.00000  Uiso   1.00
C97    C     0.74570   0.35938   0.41989   0.00000  Uiso   1.00
C98    C     0.28834   0.39554   0.03042   0.00000  Uiso   1.00
C99    C     0.28278   0.42567   0.93950   0.00000  Uiso   1.00
C100   C     0.23774   0.52287   0.90872   0.00000  Uiso   1.00
C101   C     0.17192   0.67280   0.82558   0.00000  Uiso   1.00
C102   C     0.24314   0.24245   0.10694   0.00000  Uiso   1.00
C103   C     0.19954   0.14387   0.08035   0.00000  Uiso   1.00
C104   C     0.11643   0.11219   0.11398   0.00000  Uiso   1.00
C105   C     0.98042   0.02442   0.14966   0.00000  Uiso   1.00
C106   C     0.26432   0.41168   0.18526   0.00000  Uiso   1.00
C107   C     0.38571   0.38618   0.22885   0.00000  Uiso   1.00
C108   C     0.45456   0.42113   0.31619   0.00000  Uiso   1.00
C109   C     0.56299   0.38910   0.34338   0.00000  Uiso   1.00
C110   C     0.25025   0.46019   0.08853   0.00000  Uiso   1.00
C111   C     0.20520   0.55737   0.05788   0.00000  Uiso   1.00
C112   C     0.19958   0.58764   0.96694   0.00000  Uiso   1.00
C113   C     0.20505   0.30710   0.16506   0.00000  Uiso   1.00
C114   C     0.12197   0.27557   0.19874   0.00000  Uiso   1.00
C115   C     0.07827   0.17696   0.17221   0.00000  Uiso   1.00
H116   H     0.36409   0.24231   0.03301   0.00000  Uiso   1.00
H117   H     0.56159   0.23940   0.15280   0.00000  Uiso   1.00
H118   H     0.31225   0.37561   0.89454   0.00000  Uiso   1.00
H119   H     0.22904   0.09386   0.03537   0.00000  Uiso   1.00
H120   H     0.76377   0.26472   0.31124   0.00000  Uiso   1.00
H121   H     0.23799   0.55192   0.76665   0.00000  Uiso   1.00
H122   H     0.06252   0.95778   0.06362   0.00000  Uiso   1.00
H123   H     0.23466   0.46202   0.23051   0.00000  Uiso   1.00
H124   H     0.42507   0.47117   0.36115   0.00000  Uiso   1.00
H125   H     0.17573   0.60738   0.10288   0.00000  Uiso   1.00
H126   H     0.09252   0.32562   0.24371   0.00000  Uiso   1.00
H127   H     0.65296   0.45284   0.48034   0.00000  Uiso   1.00
H128   H     0.12718   0.74003   0.93574   0.00000  Uiso   1.00
H129   H     0.95171   0.14589   0.23272   0.00000  Uiso   1.00
O130   O     0.83596   0.36086   0.47815   0.00000  Uiso   1.00
O131   O     0.14615   0.73764   0.76366   0.00000  Uiso   1.00
O132   O     0.91594   0.95815   0.15329   0.00000  Uiso   1.00
N133   N     0.71155   0.30772   0.33312   0.00000  Uiso   1.00
N134   N     0.22000   0.57624   0.82396   0.00000  Uiso   1.00
N135   N     0.05593   0.02078   0.10159   0.00000  Uiso   1.00
N136   N     0.65193   0.40894   0.42411   0.00000  Uiso   1.00
N137   N     0.16038   0.67746   0.91495   0.00000  Uiso   1.00
N138   N     0.99631   0.12200   0.19258   0.00000  Uiso   1.00
C139   C     0.66556   0.79264   0.42174   0.00000  Uiso   1.00
C140   C     0.57620   0.82152   0.32926   0.00000  Uiso   1.00
C141   C     0.46786   0.78943   0.30219   0.00000  Uiso   1.00
C142   C     0.39885   0.82433   0.21484   0.00000  Uiso   1.00
C143   C     0.25430   0.85938   0.08011   0.00000  Uiso   1.00
C144   C     0.71166   0.89554   0.46958   0.00000  Uiso   1.00
C145   C     0.71722   0.92567   0.56050   0.00000  Uiso   1.00
C146   C     0.76226   0.02287   0.59128   0.00000  Uiso   1.00
C147   C     0.82808   0.17280   0.67442   0.00000  Uiso   1.00
C148   C     0.75686   0.74245   0.39306   0.00000  Uiso   1.00
C149   C     0.80046   0.64387   0.41965   0.00000  Uiso   1.00
C150   C     0.88357   0.61219   0.38602   0.00000  Uiso   1.00
C151   C     0.01958   0.52442   0.35034   0.00000  Uiso   1.00
C152   C     0.73568   0.91168   0.31474   0.00000  Uiso   1.00
C153   C     0.61429   0.88618   0.27115   0.00000  Uiso   1.00
C154   C     0.54544   0.92113   0.18381   0.00000  Uiso   1.00
C155   C     0.43701   0.88910   0.15662   0.00000  Uiso   1.00
C156   C     0.74975   0.96019   0.41147   0.00000  Uiso   1.00
C157   C     0.79480   0.05737   0.44212   0.00000  Uiso   1.00
C158   C     0.80042   0.08764   0.53306   0.00000  Uiso   1.00
C159   C     0.79495   0.80710   0.33494   0.00000  Uiso   1.00
C160   C     0.87803   0.77557   0.30126   0.00000  Uiso   1.00
C161   C     0.92173   0.67696   0.32779   0.00000  Uiso   1.00
H162   H     0.63591   0.74231   0.46699   0.00000  Uiso   1.00
H163   H     0.43841   0.73940   0.34720   0.00000  Uiso   1.00
H164   H     0.68775   0.87561   0.60546   0.00000  Uiso   1.00
H165   H     0.77096   0.59386   0.46463   0.00000  Uiso   1.00
H166   H     0.23623   0.76472   0.18876   0.00000  Uiso   1.00
H167   H     0.76201   0.05192   0.73335   0.00000  Uiso   1.00
H168   H     0.93748   0.45778   0.43638   0.00000  Uiso   1.00
H169   H     0.76534   0.96202   0.26949   0.00000  Uiso   1.00
H170   H     0.57493   0.97117   0.13885   0.00000  Uiso   1.00
H171   H     0.82427   0.10738   0.39712   0.00000  Uiso   1.00
H172   H     0.90748   0.82562   0.25629   0.00000  Uiso   1.00
H173   H     0.34704   0.95284   0.01966   0.00000  Uiso   1.00
H174   H     0.87282   0.24003   0.56426   0.00000  Uiso   1.00
H175   H     0.04829   0.64589   0.26728   0.00000  Uiso   1.00
O176   O     0.16404   0.86086   0.02185   0.00000  Uiso   1.00
O177   O     0.85385   0.23764   0.73634   0.00000  Uiso   1.00
O178   O     0.08406   0.45815   0.34671   0.00000  Uiso   1.00
N179   N     0.28845   0.80772   0.16688   0.00000  Uiso   1.00
N180   N     0.78000   0.07624   0.67604   0.00000  Uiso   1.00
N181   N     0.94407   0.52078   0.39841   0.00000  Uiso   1.00
N182   N     0.34807   0.90894   0.07589   0.00000  Uiso   1.00
N183   N     0.83962   0.17746   0.58505   0.00000  Uiso   1.00
N184   N     0.00369   0.62200   0.30742   0.00000  Uiso   1.00
