data_job_04613
_audit_creation_date              2018-12-19
_audit_creation_method            'Materials Studio'
_symmetry_space_group_name_H-M    'P1'
_symmetry_Int_Tables_number       1
_symmetry_cell_setting            triclinic
loop_
_symmetry_equiv_pos_as_xyz
  x,y,z
_cell_length_a                    13.3121
_cell_length_b                    33.2316
_cell_length_c                    17.0430
_cell_angle_alpha                 90.0000
_cell_angle_beta                  131.5625
_cell_angle_gamma                 90.0000
loop_
_atom_site_label
_atom_site_type_symbol
_atom_site_fract_x
_atom_site_fract_y
_atom_site_fract_z
_atom_site_U_iso_or_equiv
_atom_site_adp_type
_atom_site_occupancy
C1     C     0.10800   0.18649   0.83714   0.00000  Uiso   1.00
C2     C     0.96928   0.17306   0.79259   0.00000  Uiso   1.00
C3     C     0.84854   0.18223   0.69353   0.00000  Uiso   1.00
C4     C     0.73252   0.16709   0.66757   0.00000  Uiso   1.00
C5     C     0.51640   0.14982   0.58765   0.00000  Uiso   1.00
C6     C     0.17064   0.20870   0.93882   0.00000  Uiso   1.00
C7     C     0.21923   0.24784   0.96271   0.00000  Uiso   1.00
C8     C     0.27274   0.26270   0.05985   0.00000  Uiso   1.00
C9     C     0.36934   0.30076   0.20699   0.00000  Uiso   1.00
C10    C     0.19000   0.14812   0.86916   0.00000  Uiso   1.00
C11    C     0.25490   0.13632   0.83451   0.00000  Uiso   1.00
C12    C     0.32474   0.10018   0.87303   0.00000  Uiso   1.00
C13    C     0.45139   0.04417   0.91202   0.00000  Uiso   1.00
C14    C     0.11665   0.14330   0.96720   0.00000  Uiso   1.00
C15    C     0.97398   0.14960   0.86323   0.00000  Uiso   1.00
C16    C     0.85811   0.13444   0.83741   0.00000  Uiso   1.00
C17    C     0.73722   0.14359   0.73833   0.00000  Uiso   1.00
C18    C     0.17534   0.18525   0.00946   0.00000  Uiso   1.00
C19    C     0.22880   0.20005   0.10659   0.00000  Uiso   1.00
C20    C     0.27745   0.23920   0.13062   0.00000  Uiso   1.00
C21    C     0.19470   0.12466   0.93980   0.00000  Uiso   1.00
C22    C     0.26446   0.08853   0.97839   0.00000  Uiso   1.00
C23    C     0.32944   0.07668   0.94380   0.00000  Uiso   1.00
H24    H     0.10435   0.20476   0.78215   0.00000  Uiso   1.00
H25    H     0.84495   0.20039   0.63888   0.00000  Uiso   1.00
H26    H     0.21560   0.26599   0.90803   0.00000  Uiso   1.00
H27    H     0.25124   0.15448   0.77984   0.00000  Uiso   1.00
H28    H     0.55942   0.18521   0.51121   0.00000  Uiso   1.00
H29    H     0.34099   0.32352   0.07873   0.00000  Uiso   1.00
H30    H     0.41618   0.08839   0.80843   0.00000  Uiso   1.00
H31    H     0.12031   0.12504   0.02220   0.00000  Uiso   1.00
H32    H     0.86178   0.11629   0.89210   0.00000  Uiso   1.00
H33    H     0.23243   0.18189   0.16124   0.00000  Uiso   1.00
H34    H     0.26807   0.07038   0.03306   0.00000  Uiso   1.00
H35    H     0.57308   0.11696   0.71673   0.00000  Uiso   1.00
H36    H     0.35466   0.25527   0.28425   0.00000  Uiso   1.00
H37    H     0.42984   0.02013   0.01395   0.00000  Uiso   1.00
O38    O     0.39589   0.14678   0.52407   0.00000  Uiso   1.00
O39    O     0.42131   0.32823   0.26863   0.00000  Uiso   1.00
O40    O     0.51993   0.01975   0.91400   0.00000  Uiso   1.00
N41    N     0.59812   0.17034   0.57743   0.00000  Uiso   1.00
N42    N     0.32882   0.29965   0.10801   0.00000  Uiso   1.00
N43    N     0.39914   0.07983   0.85533   0.00000  Uiso   1.00
N44    N     0.60547   0.13361   0.68801   0.00000  Uiso   1.00
N45    N     0.33617   0.26293   0.21860   0.00000  Uiso   1.00
N46    N     0.40649   0.04310   0.96591   0.00000  Uiso   1.00
C47    C     0.21924   0.64076   0.10549   0.00000  Uiso   1.00
C48    C     0.09180   0.61961   0.06696   0.00000  Uiso   1.00
C49    C     0.96225   0.62841   0.97526   0.00000  Uiso   1.00
C50    C     0.85915   0.60563   0.95396   0.00000  Uiso   1.00
C51    C     0.65735   0.57744   0.88382   0.00000  Uiso   1.00
C52    C     0.28795   0.65637   0.21503   0.00000  Uiso   1.00
C53    C     0.32334   0.69608   0.24781   0.00000  Uiso   1.00
C54    C     0.38538   0.70424   0.35116   0.00000  Uiso   1.00
C55    C     0.48820   0.73311   0.51092   0.00000  Uiso   1.00
C56    C     0.31037   0.60785   0.12030   0.00000  Uiso   1.00
C57    C     0.36465   0.60676   0.07346   0.00000  Uiso   1.00
C58    C     0.44559   0.57407   0.09707   0.00000  Uiso   1.00
C59    C     0.58322   0.52761   0.10975   0.00000  Uiso   1.00
C60    C     0.26651   0.58465   0.23073   0.00000  Uiso   1.00
C61    C     0.11747   0.58913   0.13500   0.00000  Uiso   1.00
C62    C     0.01454   0.56633   0.11383   0.00000  Uiso   1.00
C63    C     0.88487   0.57509   0.02210   0.00000  Uiso   1.00
C64    C     0.31362   0.62589   0.28306   0.00000  Uiso   1.00
C65    C     0.37563   0.63399   0.38638   0.00000  Uiso   1.00
C66    C     0.41110   0.67370   0.41931   0.00000  Uiso   1.00
C67    C     0.33604   0.57737   0.18833   0.00000  Uiso   1.00
C68    C     0.41693   0.54467   0.21203   0.00000  Uiso   1.00
C69    C     0.47131   0.54354   0.16523   0.00000  Uiso   1.00
H70    H     0.19926   0.66449   0.05253   0.00000  Uiso   1.00
H71    H     0.94243   0.65200   0.92264   0.00000  Uiso   1.00
H72    H     0.30347   0.71966   0.19515   0.00000  Uiso   1.00
H73    H     0.34476   0.63035   0.02082   0.00000  Uiso   1.00
H74    H     0.66899   0.62473   0.80865   0.00000  Uiso   1.00
H75    H     0.43032   0.76738   0.38327   0.00000  Uiso   1.00
H76    H     0.51739   0.57906   0.01566   0.00000  Uiso   1.00
H77    H     0.28650   0.56092   0.28370   0.00000  Uiso   1.00
H78    H     0.03444   0.54274   0.16649   0.00000  Uiso   1.00
H79    H     0.39549   0.61040   0.43901   0.00000  Uiso   1.00
H80    H     0.43678   0.52109   0.26467   0.00000  Uiso   1.00
H81    H     0.74367   0.53605   0.00657   0.00000  Uiso   1.00
H82    H     0.50501   0.67870   0.58120   0.00000  Uiso   1.00
H83    H     0.59207   0.49038   0.21358   0.00000  Uiso   1.00
O84    O     0.53895   0.57031   0.82635   0.00000  Uiso   1.00
O85    O     0.53781   0.75746   0.58024   0.00000  Uiso   1.00
O86    O     0.65203   0.51039   0.09794   0.00000  Uiso   1.00
N87    N     0.72116   0.60635   0.87130   0.00000  Uiso   1.00
N88    N     0.43294   0.73972   0.40854   0.00000  Uiso   1.00
N89    N     0.51437   0.56366   0.06488   0.00000  Uiso   1.00
N90    N     0.76135   0.55863   0.97780   0.00000  Uiso   1.00
N91    N     0.47313   0.69200   0.51504   0.00000  Uiso   1.00
N92    N     0.55456   0.51594   0.17138   0.00000  Uiso   1.00
C93    C     0.89200   0.68649   0.66286   0.00000  Uiso   1.00
C94    C     0.03072   0.67306   0.70741   0.00000  Uiso   1.00
C95    C     0.15146   0.68223   0.80647   0.00000  Uiso   1.00
C96    C     0.26748   0.66709   0.83243   0.00000  Uiso   1.00
C97    C     0.48360   0.64982   0.91235   0.00000  Uiso   1.00
C98    C     0.82936   0.70870   0.56118   0.00000  Uiso   1.00
C99    C     0.78077   0.74784   0.53729   0.00000  Uiso   1.00
C100   C     0.72726   0.76270   0.44015   0.00000  Uiso   1.00
C101   C     0.63066   0.80076   0.29301   0.00000  Uiso   1.00
C102   C     0.81000   0.64812   0.63084   0.00000  Uiso   1.00
C103   C     0.74510   0.63632   0.66549   0.00000  Uiso   1.00
C104   C     0.67526   0.60018   0.62697   0.00000  Uiso   1.00
C105   C     0.54861   0.54417   0.58798   0.00000  Uiso   1.00
C106   C     0.88335   0.64330   0.53280   0.00000  Uiso   1.00
C107   C     0.02602   0.64960   0.63677   0.00000  Uiso   1.00
C108   C     0.14189   0.63444   0.66259   0.00000  Uiso   1.00
C109   C     0.26278   0.64359   0.76167   0.00000  Uiso   1.00
C110   C     0.82466   0.68525   0.49054   0.00000  Uiso   1.00
C111   C     0.77120   0.70005   0.39341   0.00000  Uiso   1.00
C112   C     0.72255   0.73920   0.36938   0.00000  Uiso   1.00
C113   C     0.80530   0.62466   0.56020   0.00000  Uiso   1.00
C114   C     0.73554   0.58853   0.52161   0.00000  Uiso   1.00
C115   C     0.67056   0.57668   0.55620   0.00000  Uiso   1.00
H116   H     0.89565   0.70476   0.71785   0.00000  Uiso   1.00
H117   H     0.15505   0.70039   0.86112   0.00000  Uiso   1.00
H118   H     0.78440   0.76599   0.59197   0.00000  Uiso   1.00
H119   H     0.74876   0.65448   0.72016   0.00000  Uiso   1.00
H120   H     0.44058   0.68521   0.98879   0.00000  Uiso   1.00
H121   H     0.65901   0.82352   0.42127   0.00000  Uiso   1.00
H122   H     0.58382   0.58839   0.69157   0.00000  Uiso   1.00
H123   H     0.87969   0.62504   0.47780   0.00000  Uiso   1.00
H124   H     0.13822   0.61629   0.60790   0.00000  Uiso   1.00
H125   H     0.76757   0.68189   0.33876   0.00000  Uiso   1.00
H126   H     0.73193   0.57038   0.46694   0.00000  Uiso   1.00
H127   H     0.42692   0.61696   0.78327   0.00000  Uiso   1.00
H128   H     0.64534   0.75527   0.21575   0.00000  Uiso   1.00
H129   H     0.57016   0.52013   0.48605   0.00000  Uiso   1.00
O130   O     0.60411   0.64678   0.97593   0.00000  Uiso   1.00
O131   O     0.57869   0.82823   0.23137   0.00000  Uiso   1.00
O132   O     0.48007   0.51975   0.58600   0.00000  Uiso   1.00
N133   N     0.40188   0.67034   0.92257   0.00000  Uiso   1.00
N134   N     0.67118   0.79965   0.39199   0.00000  Uiso   1.00
N135   N     0.60086   0.57983   0.64467   0.00000  Uiso   1.00
N136   N     0.39453   0.63361   0.81199   0.00000  Uiso   1.00
N137   N     0.66383   0.76293   0.28140   0.00000  Uiso   1.00
N138   N     0.59351   0.54310   0.53409   0.00000  Uiso   1.00
C139   C     0.78076   0.14076   0.39451   0.00000  Uiso   1.00
C140   C     0.90820   0.11961   0.43304   0.00000  Uiso   1.00
C141   C     0.03775   0.12841   0.52474   0.00000  Uiso   1.00
C142   C     0.14085   0.10563   0.54604   0.00000  Uiso   1.00
C143   C     0.34265   0.07744   0.61618   0.00000  Uiso   1.00
C144   C     0.71205   0.15637   0.28497   0.00000  Uiso   1.00
C145   C     0.67666   0.19608   0.25219   0.00000  Uiso   1.00
C146   C     0.61462   0.20424   0.14884   0.00000  Uiso   1.00
C147   C     0.51180   0.23311   0.98908   0.00000  Uiso   1.00
C148   C     0.68963   0.10785   0.37970   0.00000  Uiso   1.00
C149   C     0.63535   0.10676   0.42654   0.00000  Uiso   1.00
C150   C     0.55441   0.07407   0.40293   0.00000  Uiso   1.00
C151   C     0.41678   0.02761   0.39025   0.00000  Uiso   1.00
C152   C     0.73349   0.08465   0.26927   0.00000  Uiso   1.00
C153   C     0.88253   0.08913   0.36500   0.00000  Uiso   1.00
C154   C     0.98546   0.06633   0.38617   0.00000  Uiso   1.00
C155   C     0.11513   0.07509   0.47790   0.00000  Uiso   1.00
C156   C     0.68638   0.12589   0.21694   0.00000  Uiso   1.00
C157   C     0.62437   0.13399   0.11362   0.00000  Uiso   1.00
C158   C     0.58890   0.17370   0.08069   0.00000  Uiso   1.00
C159   C     0.66396   0.07737   0.31167   0.00000  Uiso   1.00
C160   C     0.58307   0.04467   0.28797   0.00000  Uiso   1.00
C161   C     0.52869   0.04354   0.33477   0.00000  Uiso   1.00
H162   H     0.80074   0.16449   0.44747   0.00000  Uiso   1.00
H163   H     0.05757   0.15200   0.57736   0.00000  Uiso   1.00
H164   H     0.69653   0.21966   0.30485   0.00000  Uiso   1.00
H165   H     0.65524   0.13035   0.47918   0.00000  Uiso   1.00
H166   H     0.33101   0.12473   0.69135   0.00000  Uiso   1.00
H167   H     0.56968   0.26738   0.11673   0.00000  Uiso   1.00
H168   H     0.48261   0.07906   0.48434   0.00000  Uiso   1.00
H169   H     0.71350   0.06092   0.21630   0.00000  Uiso   1.00
H170   H     0.96556   0.04274   0.33351   0.00000  Uiso   1.00
H171   H     0.60451   0.11040   0.06099   0.00000  Uiso   1.00
H172   H     0.56322   0.02109   0.23533   0.00000  Uiso   1.00
H173   H     0.25633   0.03605   0.49343   0.00000  Uiso   1.00
H174   H     0.49499   0.17870   0.91880   0.00000  Uiso   1.00
H175   H     0.40793   0.99038   0.28642   0.00000  Uiso   1.00
O176   O     0.46105   0.07031   0.67365   0.00000  Uiso   1.00
O177   O     0.46219   0.25746   0.91976   0.00000  Uiso   1.00
O178   O     0.34797   0.01039   0.40206   0.00000  Uiso   1.00
N179   N     0.27884   0.10635   0.62870   0.00000  Uiso   1.00
N180   N     0.56706   0.23972   0.09146   0.00000  Uiso   1.00
N181   N     0.48563   0.06366   0.43512   0.00000  Uiso   1.00
N182   N     0.23865   0.05863   0.52220   0.00000  Uiso   1.00
N183   N     0.52687   0.19200   0.98496   0.00000  Uiso   1.00
N184   N     0.44544   0.01594   0.32862   0.00000  Uiso   1.00
C185   C     0.89200   0.81351   0.16286   0.00000  Uiso   1.00
C186   C     0.03072   0.82694   0.20741   0.00000  Uiso   1.00
C187   C     0.15146   0.81777   0.30647   0.00000  Uiso   1.00
C188   C     0.26748   0.83291   0.33243   0.00000  Uiso   1.00
C189   C     0.48360   0.85018   0.41235   0.00000  Uiso   1.00
C190   C     0.82936   0.79130   0.06118   0.00000  Uiso   1.00
C191   C     0.78077   0.75216   0.03729   0.00000  Uiso   1.00
C192   C     0.72726   0.73730   0.94015   0.00000  Uiso   1.00
C193   C     0.63066   0.69924   0.79301   0.00000  Uiso   1.00
C194   C     0.81000   0.85188   0.13084   0.00000  Uiso   1.00
C195   C     0.74510   0.86368   0.16549   0.00000  Uiso   1.00
C196   C     0.67526   0.89982   0.12697   0.00000  Uiso   1.00
C197   C     0.54861   0.95583   0.08798   0.00000  Uiso   1.00
C198   C     0.88335   0.85670   0.03280   0.00000  Uiso   1.00
C199   C     0.02602   0.85040   0.13677   0.00000  Uiso   1.00
C200   C     0.14189   0.86556   0.16259   0.00000  Uiso   1.00
C201   C     0.26278   0.85641   0.26167   0.00000  Uiso   1.00
C202   C     0.82466   0.81475   0.99054   0.00000  Uiso   1.00
C203   C     0.77120   0.79995   0.89341   0.00000  Uiso   1.00
C204   C     0.72255   0.76080   0.86938   0.00000  Uiso   1.00
C205   C     0.80530   0.87534   0.06020   0.00000  Uiso   1.00
C206   C     0.73554   0.91147   0.02161   0.00000  Uiso   1.00
C207   C     0.67056   0.92332   0.05620   0.00000  Uiso   1.00
H208   H     0.89565   0.79524   0.21785   0.00000  Uiso   1.00
H209   H     0.15505   0.79961   0.36112   0.00000  Uiso   1.00
H210   H     0.78440   0.73401   0.09197   0.00000  Uiso   1.00
H211   H     0.74876   0.84552   0.22016   0.00000  Uiso   1.00
H212   H     0.44058   0.81479   0.48879   0.00000  Uiso   1.00
H213   H     0.65901   0.67648   0.92127   0.00000  Uiso   1.00
H214   H     0.58382   0.91161   0.19157   0.00000  Uiso   1.00
H215   H     0.87969   0.87496   0.97780   0.00000  Uiso   1.00
H216   H     0.13822   0.88371   0.10790   0.00000  Uiso   1.00
H217   H     0.76757   0.81811   0.83876   0.00000  Uiso   1.00
H218   H     0.73193   0.92962   0.96694   0.00000  Uiso   1.00
H219   H     0.42692   0.88304   0.28327   0.00000  Uiso   1.00
H220   H     0.64534   0.74473   0.71575   0.00000  Uiso   1.00
H221   H     0.57016   0.97987   0.98605   0.00000  Uiso   1.00
O222   O     0.60411   0.85322   0.47593   0.00000  Uiso   1.00
O223   O     0.57869   0.67177   0.73137   0.00000  Uiso   1.00
O224   O     0.48007   0.98025   0.08600   0.00000  Uiso   1.00
N225   N     0.40188   0.82966   0.42257   0.00000  Uiso   1.00
N226   N     0.67118   0.70035   0.89199   0.00000  Uiso   1.00
N227   N     0.60086   0.92017   0.14467   0.00000  Uiso   1.00
N228   N     0.39453   0.86639   0.31199   0.00000  Uiso   1.00
N229   N     0.66383   0.73707   0.78140   0.00000  Uiso   1.00
N230   N     0.59351   0.95690   0.03409   0.00000  Uiso   1.00
C231   C     0.78076   0.35924   0.89451   0.00000  Uiso   1.00
C232   C     0.90820   0.38039   0.93304   0.00000  Uiso   1.00
C233   C     0.03775   0.37159   0.02474   0.00000  Uiso   1.00
C234   C     0.14085   0.39437   0.04604   0.00000  Uiso   1.00
C235   C     0.34265   0.42256   0.11618   0.00000  Uiso   1.00
C236   C     0.71205   0.34363   0.78497   0.00000  Uiso   1.00
C237   C     0.67666   0.30392   0.75219   0.00000  Uiso   1.00
C238   C     0.61462   0.29576   0.64884   0.00000  Uiso   1.00
C239   C     0.51180   0.26689   0.48908   0.00000  Uiso   1.00
C240   C     0.68963   0.39215   0.87970   0.00000  Uiso   1.00
C241   C     0.63535   0.39324   0.92654   0.00000  Uiso   1.00
C242   C     0.55441   0.42593   0.90293   0.00000  Uiso   1.00
C243   C     0.41678   0.47239   0.89025   0.00000  Uiso   1.00
C244   C     0.73349   0.41535   0.76927   0.00000  Uiso   1.00
C245   C     0.88253   0.41087   0.86500   0.00000  Uiso   1.00
C246   C     0.98546   0.43367   0.88617   0.00000  Uiso   1.00
C247   C     0.11513   0.42491   0.97790   0.00000  Uiso   1.00
C248   C     0.68638   0.37411   0.71694   0.00000  Uiso   1.00
C249   C     0.62437   0.36601   0.61362   0.00000  Uiso   1.00
C250   C     0.58890   0.32630   0.58069   0.00000  Uiso   1.00
C251   C     0.66396   0.42263   0.81167   0.00000  Uiso   1.00
C252   C     0.58307   0.45533   0.78797   0.00000  Uiso   1.00
C253   C     0.52869   0.45646   0.83477   0.00000  Uiso   1.00
H254   H     0.80074   0.33551   0.94747   0.00000  Uiso   1.00
H255   H     0.05757   0.34800   0.07736   0.00000  Uiso   1.00
H256   H     0.69653   0.28034   0.80485   0.00000  Uiso   1.00
H257   H     0.65524   0.36965   0.97918   0.00000  Uiso   1.00
H258   H     0.33101   0.37527   0.19135   0.00000  Uiso   1.00
H259   H     0.56968   0.23262   0.61673   0.00000  Uiso   1.00
H260   H     0.48261   0.42094   0.98434   0.00000  Uiso   1.00
H261   H     0.71350   0.43908   0.71630   0.00000  Uiso   1.00
H262   H     0.96556   0.45726   0.83351   0.00000  Uiso   1.00
H263   H     0.60451   0.38960   0.56099   0.00000  Uiso   1.00
H264   H     0.56322   0.47891   0.73533   0.00000  Uiso   1.00
H265   H     0.25633   0.46395   0.99343   0.00000  Uiso   1.00
H266   H     0.49499   0.32130   0.41880   0.00000  Uiso   1.00
H267   H     0.40793   0.50962   0.78642   0.00000  Uiso   1.00
O268   O     0.46105   0.42969   0.17365   0.00000  Uiso   1.00
O269   O     0.46219   0.24254   0.41976   0.00000  Uiso   1.00
O270   O     0.34797   0.48961   0.90206   0.00000  Uiso   1.00
N271   N     0.27884   0.39365   0.12870   0.00000  Uiso   1.00
N272   N     0.56706   0.26028   0.59146   0.00000  Uiso   1.00
N273   N     0.48563   0.43634   0.93512   0.00000  Uiso   1.00
N274   N     0.23865   0.44137   0.02220   0.00000  Uiso   1.00
N275   N     0.52687   0.30800   0.48496   0.00000  Uiso   1.00
N276   N     0.44544   0.48406   0.82862   0.00000  Uiso   1.00
C277   C     0.10800   0.31351   0.33714   0.00000  Uiso   1.00
C278   C     0.96928   0.32694   0.29259   0.00000  Uiso   1.00
C279   C     0.84854   0.31777   0.19353   0.00000  Uiso   1.00
C280   C     0.73252   0.33291   0.16757   0.00000  Uiso   1.00
C281   C     0.51640   0.35018   0.08765   0.00000  Uiso   1.00
C282   C     0.17064   0.29130   0.43882   0.00000  Uiso   1.00
C283   C     0.21923   0.25216   0.46271   0.00000  Uiso   1.00
C284   C     0.27274   0.23730   0.55985   0.00000  Uiso   1.00
C285   C     0.36934   0.19924   0.70699   0.00000  Uiso   1.00
C286   C     0.19000   0.35188   0.36916   0.00000  Uiso   1.00
C287   C     0.25490   0.36368   0.33451   0.00000  Uiso   1.00
C288   C     0.32474   0.39982   0.37303   0.00000  Uiso   1.00
C289   C     0.45139   0.45583   0.41202   0.00000  Uiso   1.00
C290   C     0.11665   0.35670   0.46720   0.00000  Uiso   1.00
C291   C     0.97398   0.35040   0.36323   0.00000  Uiso   1.00
C292   C     0.85811   0.36556   0.33741   0.00000  Uiso   1.00
C293   C     0.73722   0.35641   0.23833   0.00000  Uiso   1.00
C294   C     0.17534   0.31475   0.50946   0.00000  Uiso   1.00
C295   C     0.22880   0.29995   0.60659   0.00000  Uiso   1.00
C296   C     0.27745   0.26080   0.63062   0.00000  Uiso   1.00
C297   C     0.19470   0.37534   0.43980   0.00000  Uiso   1.00
C298   C     0.26446   0.41147   0.47839   0.00000  Uiso   1.00
C299   C     0.32944   0.42332   0.44380   0.00000  Uiso   1.00
H300   H     0.10435   0.29524   0.28215   0.00000  Uiso   1.00
H301   H     0.84495   0.29961   0.13888   0.00000  Uiso   1.00
H302   H     0.21560   0.23401   0.40803   0.00000  Uiso   1.00
H303   H     0.25124   0.34552   0.27984   0.00000  Uiso   1.00
H304   H     0.55942   0.31479   0.01121   0.00000  Uiso   1.00
H305   H     0.34099   0.17648   0.57873   0.00000  Uiso   1.00
H306   H     0.41618   0.41161   0.30843   0.00000  Uiso   1.00
H307   H     0.12031   0.37496   0.52220   0.00000  Uiso   1.00
H308   H     0.86178   0.38371   0.39210   0.00000  Uiso   1.00
H309   H     0.23243   0.31811   0.66124   0.00000  Uiso   1.00
H310   H     0.26807   0.42962   0.53306   0.00000  Uiso   1.00
H311   H     0.57308   0.38304   0.21673   0.00000  Uiso   1.00
H312   H     0.35466   0.24473   0.78425   0.00000  Uiso   1.00
H313   H     0.42984   0.47987   0.51395   0.00000  Uiso   1.00
O314   O     0.39589   0.35322   0.02407   0.00000  Uiso   1.00
O315   O     0.42131   0.17177   0.76863   0.00000  Uiso   1.00
O316   O     0.51993   0.48025   0.41400   0.00000  Uiso   1.00
N317   N     0.59812   0.32966   0.07743   0.00000  Uiso   1.00
N318   N     0.32882   0.20035   0.60801   0.00000  Uiso   1.00
N319   N     0.39914   0.42017   0.35533   0.00000  Uiso   1.00
N320   N     0.60547   0.36639   0.18801   0.00000  Uiso   1.00
N321   N     0.33617   0.23707   0.71860   0.00000  Uiso   1.00
N322   N     0.40649   0.45690   0.46591   0.00000  Uiso   1.00
C323   C     0.21924   0.85924   0.60549   0.00000  Uiso   1.00
C324   C     0.09180   0.88039   0.56696   0.00000  Uiso   1.00
C325   C     0.96225   0.87159   0.47526   0.00000  Uiso   1.00
C326   C     0.85915   0.89437   0.45396   0.00000  Uiso   1.00
C327   C     0.65735   0.92256   0.38382   0.00000  Uiso   1.00
C328   C     0.28795   0.84363   0.71503   0.00000  Uiso   1.00
C329   C     0.32334   0.80392   0.74781   0.00000  Uiso   1.00
C330   C     0.38538   0.79576   0.85116   0.00000  Uiso   1.00
C331   C     0.48820   0.76689   0.01092   0.00000  Uiso   1.00
C332   C     0.31037   0.89215   0.62030   0.00000  Uiso   1.00
C333   C     0.36465   0.89324   0.57346   0.00000  Uiso   1.00
C334   C     0.44559   0.92593   0.59707   0.00000  Uiso   1.00
C335   C     0.58322   0.97239   0.60975   0.00000  Uiso   1.00
C336   C     0.26651   0.91535   0.73073   0.00000  Uiso   1.00
C337   C     0.11747   0.91087   0.63500   0.00000  Uiso   1.00
C338   C     0.01454   0.93367   0.61383   0.00000  Uiso   1.00
C339   C     0.88487   0.92491   0.52210   0.00000  Uiso   1.00
C340   C     0.31362   0.87411   0.78306   0.00000  Uiso   1.00
C341   C     0.37563   0.86601   0.88638   0.00000  Uiso   1.00
C342   C     0.41110   0.82630   0.91931   0.00000  Uiso   1.00
C343   C     0.33604   0.92263   0.68833   0.00000  Uiso   1.00
C344   C     0.41693   0.95533   0.71203   0.00000  Uiso   1.00
C345   C     0.47131   0.95646   0.66523   0.00000  Uiso   1.00
H346   H     0.19926   0.83551   0.55253   0.00000  Uiso   1.00
H347   H     0.94243   0.84800   0.42264   0.00000  Uiso   1.00
H348   H     0.30347   0.78034   0.69515   0.00000  Uiso   1.00
H349   H     0.34476   0.86965   0.52082   0.00000  Uiso   1.00
H350   H     0.66899   0.87527   0.30865   0.00000  Uiso   1.00
H351   H     0.43032   0.73262   0.88327   0.00000  Uiso   1.00
H352   H     0.51739   0.92094   0.51566   0.00000  Uiso   1.00
H353   H     0.28650   0.93908   0.78370   0.00000  Uiso   1.00
H354   H     0.03444   0.95726   0.66649   0.00000  Uiso   1.00
H355   H     0.39549   0.88960   0.93901   0.00000  Uiso   1.00
H356   H     0.43678   0.97891   0.76467   0.00000  Uiso   1.00
H357   H     0.74367   0.96395   0.50657   0.00000  Uiso   1.00
H358   H     0.50501   0.82130   0.08120   0.00000  Uiso   1.00
H359   H     0.59207   0.00962   0.71358   0.00000  Uiso   1.00
O360   O     0.53895   0.92969   0.32635   0.00000  Uiso   1.00
O361   O     0.53781   0.74254   0.08024   0.00000  Uiso   1.00
O362   O     0.65203   0.98961   0.59794   0.00000  Uiso   1.00
N363   N     0.72116   0.89365   0.37130   0.00000  Uiso   1.00
N364   N     0.43294   0.76028   0.90854   0.00000  Uiso   1.00
N365   N     0.51437   0.93634   0.56488   0.00000  Uiso   1.00
N366   N     0.76135   0.94137   0.47780   0.00000  Uiso   1.00
N367   N     0.47313   0.80800   0.01504   0.00000  Uiso   1.00
N368   N     0.55456   0.98406   0.67138   0.00000  Uiso   1.00
