data_job_03024
_audit_creation_date              2018-12-19
_audit_creation_method            'Materials Studio'
_symmetry_space_group_name_H-M    'P1'
_symmetry_Int_Tables_number       1
_symmetry_cell_setting            triclinic
loop_
_symmetry_equiv_pos_as_xyz
  x,y,z
_cell_length_a                    15.0993
_cell_length_b                    17.7677
_cell_length_c                    17.5711
_cell_angle_alpha                 90.0000
_cell_angle_beta                  90.0000
_cell_angle_gamma                 90.0000
loop_
_atom_site_label
_atom_site_type_symbol
_atom_site_fract_x
_atom_site_fract_y
_atom_site_fract_z
_atom_site_U_iso_or_equiv
_atom_site_adp_type
_atom_site_occupancy
C1     C     0.83351   0.28953   0.70709   0.00000  Uiso   1.00
C2     C     0.78373   0.31332   0.77867   0.00000  Uiso   1.00
C3     C     0.81414   0.36367   0.83310   0.00000  Uiso   1.00
C4     C     0.75869   0.37800   0.89445   0.00000  Uiso   1.00
C5     C     0.69401   0.42020   0.00460   0.00000  Uiso   1.00
C6     C     0.84000   0.20395   0.71044   0.00000  Uiso   1.00
C7     C     0.91771   0.16234   0.70750   0.00000  Uiso   1.00
C8     C     0.90962   0.08459   0.71140   0.00000  Uiso   1.00
C9     C     0.93229   0.95699   0.71557   0.00000  Uiso   1.00
C10    C     0.77228   0.30740   0.64049   0.00000  Uiso   1.00
C11    C     0.79306   0.35277   0.57872   0.00000  Uiso   1.00
C12    C     0.72796   0.36211   0.52372   0.00000  Uiso   1.00
C13    C     0.64548   0.39514   0.41929   0.00000  Uiso   1.00
C14    C     0.68097   0.22545   0.71923   0.00000  Uiso   1.00
C15    C     0.70087   0.27851   0.78526   0.00000  Uiso   1.00
C16    C     0.64536   0.29277   0.84654   0.00000  Uiso   1.00
C17    C     0.67568   0.34313   0.90105   0.00000  Uiso   1.00
C18    C     0.75714   0.16914   0.71704   0.00000  Uiso   1.00
C19    C     0.74893   0.09143   0.72093   0.00000  Uiso   1.00
C20    C     0.82661   0.04972   0.71800   0.00000  Uiso   1.00
C21    C     0.68942   0.27260   0.64709   0.00000  Uiso   1.00
C22    C     0.62428   0.28187   0.59216   0.00000  Uiso   1.00
C23    C     0.64495   0.32724   0.53033   0.00000  Uiso   1.00
H24    H     0.89802   0.31663   0.70196   0.00000  Uiso   1.00
H25    H     0.87827   0.39059   0.82798   0.00000  Uiso   1.00
H26    H     0.98182   0.18929   0.70239   0.00000  Uiso   1.00
H27    H     0.85718   0.37970   0.57364   0.00000  Uiso   1.00
H28    H     0.81984   0.45722   0.97063   0.00000  Uiso   1.00
H29    H     0.03818   0.03277   0.70578   0.00000  Uiso   1.00
H30    H     0.77536   0.43427   0.43428   0.00000  Uiso   1.00
H31    H     0.61645   0.19834   0.72437   0.00000  Uiso   1.00
H32    H     0.58124   0.26582   0.85163   0.00000  Uiso   1.00
H33    H     0.68480   0.06452   0.72603   0.00000  Uiso   1.00
H34    H     0.56016   0.25492   0.59728   0.00000  Uiso   1.00
H35    H     0.57877   0.35595   0.98982   0.00000  Uiso   1.00
H36    H     0.79711   0.93149   0.72497   0.00000  Uiso   1.00
H37    H     0.53429   0.33300   0.45348   0.00000  Uiso   1.00
O38    O     0.68123   0.45309   0.06355   0.00000  Uiso   1.00
O39    O     0.96769   0.89623   0.71606   0.00000  Uiso   1.00
O40    O     0.62288   0.42298   0.35987   0.00000  Uiso   1.00
N41    N     0.76793   0.42414   0.95767   0.00000  Uiso   1.00
N42    N     0.97207   0.02730   0.71007   0.00000  Uiso   1.00
N43    N     0.72636   0.40265   0.45623   0.00000  Uiso   1.00
N44    N     0.63821   0.36964   0.96800   0.00000  Uiso   1.00
N45    N     0.84235   0.97281   0.72040   0.00000  Uiso   1.00
N46    N     0.59664   0.34816   0.46656   0.00000  Uiso   1.00
C47    C     0.66649   0.71047   0.20709   0.00000  Uiso   1.00
C48    C     0.71627   0.68668   0.27867   0.00000  Uiso   1.00
C49    C     0.68586   0.63633   0.33310   0.00000  Uiso   1.00
C50    C     0.74131   0.62200   0.39445   0.00000  Uiso   1.00
C51    C     0.80599   0.57980   0.50460   0.00000  Uiso   1.00
C52    C     0.66000   0.79605   0.21044   0.00000  Uiso   1.00
C53    C     0.58229   0.83766   0.20750   0.00000  Uiso   1.00
C54    C     0.59038   0.91541   0.21140   0.00000  Uiso   1.00
C55    C     0.56771   0.04301   0.21557   0.00000  Uiso   1.00
C56    C     0.72772   0.69260   0.14049   0.00000  Uiso   1.00
C57    C     0.70694   0.64723   0.07872   0.00000  Uiso   1.00
C58    C     0.77204   0.63789   0.02372   0.00000  Uiso   1.00
C59    C     0.85452   0.60486   0.91929   0.00000  Uiso   1.00
C60    C     0.81903   0.77455   0.21923   0.00000  Uiso   1.00
C61    C     0.79913   0.72149   0.28526   0.00000  Uiso   1.00
C62    C     0.85464   0.70723   0.34654   0.00000  Uiso   1.00
C63    C     0.82432   0.65687   0.40105   0.00000  Uiso   1.00
C64    C     0.74286   0.83086   0.21704   0.00000  Uiso   1.00
C65    C     0.75107   0.90857   0.22093   0.00000  Uiso   1.00
C66    C     0.67339   0.95028   0.21800   0.00000  Uiso   1.00
C67    C     0.81058   0.72740   0.14709   0.00000  Uiso   1.00
C68    C     0.87572   0.71813   0.09216   0.00000  Uiso   1.00
C69    C     0.85505   0.67276   0.03033   0.00000  Uiso   1.00
H70    H     0.60198   0.68337   0.20196   0.00000  Uiso   1.00
H71    H     0.62173   0.60941   0.32798   0.00000  Uiso   1.00
H72    H     0.51818   0.81071   0.20239   0.00000  Uiso   1.00
H73    H     0.64282   0.62030   0.07364   0.00000  Uiso   1.00
H74    H     0.68016   0.54278   0.47063   0.00000  Uiso   1.00
H75    H     0.46182   0.96723   0.20578   0.00000  Uiso   1.00
H76    H     0.72464   0.56573   0.93428   0.00000  Uiso   1.00
H77    H     0.88355   0.80166   0.22437   0.00000  Uiso   1.00
H78    H     0.91876   0.73418   0.35163   0.00000  Uiso   1.00
H79    H     0.81520   0.93548   0.22603   0.00000  Uiso   1.00
H80    H     0.93984   0.74508   0.09728   0.00000  Uiso   1.00
H81    H     0.92123   0.64405   0.48982   0.00000  Uiso   1.00
H82    H     0.70289   0.06851   0.22497   0.00000  Uiso   1.00
H83    H     0.96571   0.66700   0.95348   0.00000  Uiso   1.00
O84    O     0.81877   0.54691   0.56355   0.00000  Uiso   1.00
O85    O     0.53231   0.10377   0.21606   0.00000  Uiso   1.00
O86    O     0.87712   0.57702   0.85987   0.00000  Uiso   1.00
N87    N     0.73207   0.57586   0.45767   0.00000  Uiso   1.00
N88    N     0.52793   0.97270   0.21007   0.00000  Uiso   1.00
N89    N     0.77364   0.59735   0.95623   0.00000  Uiso   1.00
N90    N     0.86179   0.63036   0.46800   0.00000  Uiso   1.00
N91    N     0.65765   0.02719   0.22040   0.00000  Uiso   1.00
N92    N     0.90336   0.65184   0.96656   0.00000  Uiso   1.00
C93    C     0.16649   0.78953   0.79291   0.00000  Uiso   1.00
C94    C     0.21627   0.81332   0.72133   0.00000  Uiso   1.00
C95    C     0.18586   0.86367   0.66690   0.00000  Uiso   1.00
C96    C     0.24131   0.87800   0.60555   0.00000  Uiso   1.00
C97    C     0.30599   0.92020   0.49540   0.00000  Uiso   1.00
C98    C     0.16000   0.70395   0.78956   0.00000  Uiso   1.00
C99    C     0.08229   0.66234   0.79250   0.00000  Uiso   1.00
C100   C     0.09038   0.58459   0.78860   0.00000  Uiso   1.00
C101   C     0.06771   0.45699   0.78443   0.00000  Uiso   1.00
C102   C     0.22772   0.80740   0.85951   0.00000  Uiso   1.00
C103   C     0.20694   0.85277   0.92128   0.00000  Uiso   1.00
C104   C     0.27204   0.86211   0.97628   0.00000  Uiso   1.00
C105   C     0.35452   0.89514   0.08071   0.00000  Uiso   1.00
C106   C     0.31903   0.72545   0.78077   0.00000  Uiso   1.00
C107   C     0.29913   0.77851   0.71474   0.00000  Uiso   1.00
C108   C     0.35464   0.79277   0.65346   0.00000  Uiso   1.00
C109   C     0.32432   0.84313   0.59895   0.00000  Uiso   1.00
C110   C     0.24286   0.66914   0.78296   0.00000  Uiso   1.00
C111   C     0.25107   0.59143   0.77907   0.00000  Uiso   1.00
C112   C     0.17339   0.54972   0.78200   0.00000  Uiso   1.00
C113   C     0.31058   0.77260   0.85291   0.00000  Uiso   1.00
C114   C     0.37572   0.78187   0.90784   0.00000  Uiso   1.00
C115   C     0.35505   0.82724   0.96967   0.00000  Uiso   1.00
H116   H     0.10198   0.81663   0.79804   0.00000  Uiso   1.00
H117   H     0.12173   0.89059   0.67202   0.00000  Uiso   1.00
H118   H     0.01818   0.68929   0.79761   0.00000  Uiso   1.00
H119   H     0.14282   0.87970   0.92636   0.00000  Uiso   1.00
H120   H     0.18016   0.95722   0.52937   0.00000  Uiso   1.00
H121   H     0.96182   0.53277   0.79422   0.00000  Uiso   1.00
H122   H     0.22464   0.93427   0.06572   0.00000  Uiso   1.00
H123   H     0.38355   0.69834   0.77563   0.00000  Uiso   1.00
H124   H     0.41876   0.76582   0.64837   0.00000  Uiso   1.00
H125   H     0.31520   0.56452   0.77397   0.00000  Uiso   1.00
H126   H     0.43984   0.75492   0.90272   0.00000  Uiso   1.00
H127   H     0.42123   0.85595   0.51018   0.00000  Uiso   1.00
H128   H     0.20289   0.43149   0.77503   0.00000  Uiso   1.00
H129   H     0.46571   0.83300   0.04652   0.00000  Uiso   1.00
O130   O     0.31877   0.95309   0.43645   0.00000  Uiso   1.00
O131   O     0.03231   0.39623   0.78394   0.00000  Uiso   1.00
O132   O     0.37712   0.92298   0.14013   0.00000  Uiso   1.00
N133   N     0.23207   0.92414   0.54233   0.00000  Uiso   1.00
N134   N     0.02793   0.52730   0.78993   0.00000  Uiso   1.00
N135   N     0.27364   0.90265   0.04377   0.00000  Uiso   1.00
N136   N     0.36179   0.86964   0.53200   0.00000  Uiso   1.00
N137   N     0.15765   0.47281   0.77960   0.00000  Uiso   1.00
N138   N     0.40336   0.84816   0.03344   0.00000  Uiso   1.00
C139   C     0.33351   0.21047   0.29291   0.00000  Uiso   1.00
C140   C     0.28373   0.18668   0.22133   0.00000  Uiso   1.00
C141   C     0.31414   0.13633   0.16690   0.00000  Uiso   1.00
C142   C     0.25869   0.12200   0.10555   0.00000  Uiso   1.00
C143   C     0.19401   0.07980   0.99540   0.00000  Uiso   1.00
C144   C     0.34000   0.29605   0.28956   0.00000  Uiso   1.00
C145   C     0.41771   0.33766   0.29250   0.00000  Uiso   1.00
C146   C     0.40962   0.41541   0.28860   0.00000  Uiso   1.00
C147   C     0.43229   0.54301   0.28443   0.00000  Uiso   1.00
C148   C     0.27228   0.19260   0.35951   0.00000  Uiso   1.00
C149   C     0.29306   0.14723   0.42128   0.00000  Uiso   1.00
C150   C     0.22796   0.13789   0.47628   0.00000  Uiso   1.00
C151   C     0.14548   0.10486   0.58071   0.00000  Uiso   1.00
C152   C     0.18097   0.27455   0.28077   0.00000  Uiso   1.00
C153   C     0.20087   0.22149   0.21474   0.00000  Uiso   1.00
C154   C     0.14536   0.20723   0.15346   0.00000  Uiso   1.00
C155   C     0.17568   0.15687   0.09895   0.00000  Uiso   1.00
C156   C     0.25714   0.33086   0.28296   0.00000  Uiso   1.00
C157   C     0.24893   0.40857   0.27907   0.00000  Uiso   1.00
C158   C     0.32661   0.45028   0.28200   0.00000  Uiso   1.00
C159   C     0.18942   0.22740   0.35291   0.00000  Uiso   1.00
C160   C     0.12428   0.21813   0.40784   0.00000  Uiso   1.00
C161   C     0.14495   0.17276   0.46967   0.00000  Uiso   1.00
H162   H     0.39802   0.18337   0.29804   0.00000  Uiso   1.00
H163   H     0.37827   0.10941   0.17202   0.00000  Uiso   1.00
H164   H     0.48182   0.31071   0.29761   0.00000  Uiso   1.00
H165   H     0.35718   0.12030   0.42636   0.00000  Uiso   1.00
H166   H     0.31984   0.04278   0.02937   0.00000  Uiso   1.00
H167   H     0.53818   0.46723   0.29422   0.00000  Uiso   1.00
H168   H     0.27536   0.06573   0.56572   0.00000  Uiso   1.00
H169   H     0.11645   0.30166   0.27563   0.00000  Uiso   1.00
H170   H     0.08124   0.23418   0.14837   0.00000  Uiso   1.00
H171   H     0.18480   0.43548   0.27397   0.00000  Uiso   1.00
H172   H     0.06016   0.24508   0.40272   0.00000  Uiso   1.00
H173   H     0.07877   0.14405   0.01018   0.00000  Uiso   1.00
H174   H     0.29711   0.56851   0.27503   0.00000  Uiso   1.00
H175   H     0.03429   0.16700   0.54652   0.00000  Uiso   1.00
O176   O     0.18123   0.04691   0.93645   0.00000  Uiso   1.00
O177   O     0.46769   0.60377   0.28394   0.00000  Uiso   1.00
O178   O     0.12288   0.07702   0.64013   0.00000  Uiso   1.00
N179   N     0.26793   0.07586   0.04233   0.00000  Uiso   1.00
N180   N     0.47207   0.47270   0.28993   0.00000  Uiso   1.00
N181   N     0.22636   0.09735   0.54377   0.00000  Uiso   1.00
N182   N     0.13821   0.13036   0.03200   0.00000  Uiso   1.00
N183   N     0.34235   0.52719   0.27960   0.00000  Uiso   1.00
N184   N     0.09664   0.15184   0.53344   0.00000  Uiso   1.00
C185   C     0.16649   0.71047   0.29291   0.00000  Uiso   1.00
C186   C     0.21627   0.68668   0.22133   0.00000  Uiso   1.00
C187   C     0.18586   0.63633   0.16690   0.00000  Uiso   1.00
C188   C     0.24131   0.62200   0.10555   0.00000  Uiso   1.00
C189   C     0.30599   0.57980   0.99540   0.00000  Uiso   1.00
C190   C     0.16000   0.79605   0.28956   0.00000  Uiso   1.00
C191   C     0.08229   0.83766   0.29250   0.00000  Uiso   1.00
C192   C     0.09038   0.91541   0.28860   0.00000  Uiso   1.00
C193   C     0.06771   0.04301   0.28443   0.00000  Uiso   1.00
C194   C     0.22772   0.69260   0.35951   0.00000  Uiso   1.00
C195   C     0.20694   0.64723   0.42128   0.00000  Uiso   1.00
C196   C     0.27204   0.63789   0.47628   0.00000  Uiso   1.00
C197   C     0.35452   0.60486   0.58071   0.00000  Uiso   1.00
C198   C     0.31903   0.77455   0.28077   0.00000  Uiso   1.00
C199   C     0.29913   0.72149   0.21474   0.00000  Uiso   1.00
C200   C     0.35464   0.70723   0.15346   0.00000  Uiso   1.00
C201   C     0.32432   0.65687   0.09895   0.00000  Uiso   1.00
C202   C     0.24286   0.83086   0.28296   0.00000  Uiso   1.00
C203   C     0.25107   0.90857   0.27907   0.00000  Uiso   1.00
C204   C     0.17339   0.95028   0.28200   0.00000  Uiso   1.00
C205   C     0.31058   0.72740   0.35291   0.00000  Uiso   1.00
C206   C     0.37572   0.71813   0.40784   0.00000  Uiso   1.00
C207   C     0.35505   0.67276   0.46967   0.00000  Uiso   1.00
H208   H     0.10198   0.68337   0.29804   0.00000  Uiso   1.00
H209   H     0.12173   0.60941   0.17202   0.00000  Uiso   1.00
H210   H     0.01818   0.81071   0.29761   0.00000  Uiso   1.00
H211   H     0.14282   0.62030   0.42636   0.00000  Uiso   1.00
H212   H     0.18016   0.54278   0.02937   0.00000  Uiso   1.00
H213   H     0.96182   0.96723   0.29422   0.00000  Uiso   1.00
H214   H     0.22464   0.56573   0.56572   0.00000  Uiso   1.00
H215   H     0.38355   0.80166   0.27563   0.00000  Uiso   1.00
H216   H     0.41876   0.73418   0.14837   0.00000  Uiso   1.00
H217   H     0.31520   0.93548   0.27397   0.00000  Uiso   1.00
H218   H     0.43984   0.74508   0.40272   0.00000  Uiso   1.00
H219   H     0.42123   0.64405   0.01018   0.00000  Uiso   1.00
H220   H     0.20289   0.06851   0.27503   0.00000  Uiso   1.00
H221   H     0.46571   0.66700   0.54652   0.00000  Uiso   1.00
O222   O     0.31877   0.54691   0.93645   0.00000  Uiso   1.00
O223   O     0.03231   0.10377   0.28394   0.00000  Uiso   1.00
O224   O     0.37712   0.57702   0.64013   0.00000  Uiso   1.00
N225   N     0.23207   0.57586   0.04233   0.00000  Uiso   1.00
N226   N     0.02793   0.97270   0.28993   0.00000  Uiso   1.00
N227   N     0.27364   0.59735   0.54377   0.00000  Uiso   1.00
N228   N     0.36179   0.63036   0.03200   0.00000  Uiso   1.00
N229   N     0.15765   0.02719   0.27960   0.00000  Uiso   1.00
N230   N     0.40336   0.65184   0.53344   0.00000  Uiso   1.00
C231   C     0.33351   0.28953   0.79291   0.00000  Uiso   1.00
C232   C     0.28373   0.31332   0.72133   0.00000  Uiso   1.00
C233   C     0.31414   0.36367   0.66690   0.00000  Uiso   1.00
C234   C     0.25869   0.37800   0.60555   0.00000  Uiso   1.00
C235   C     0.19401   0.42020   0.49540   0.00000  Uiso   1.00
C236   C     0.34000   0.20395   0.78956   0.00000  Uiso   1.00
C237   C     0.41771   0.16234   0.79250   0.00000  Uiso   1.00
C238   C     0.40962   0.08459   0.78860   0.00000  Uiso   1.00
C239   C     0.43229   0.95699   0.78443   0.00000  Uiso   1.00
C240   C     0.27228   0.30740   0.85951   0.00000  Uiso   1.00
C241   C     0.29306   0.35277   0.92128   0.00000  Uiso   1.00
C242   C     0.22796   0.36211   0.97628   0.00000  Uiso   1.00
C243   C     0.14548   0.39514   0.08071   0.00000  Uiso   1.00
C244   C     0.18097   0.22545   0.78077   0.00000  Uiso   1.00
C245   C     0.20087   0.27851   0.71474   0.00000  Uiso   1.00
C246   C     0.14536   0.29277   0.65346   0.00000  Uiso   1.00
C247   C     0.17568   0.34313   0.59895   0.00000  Uiso   1.00
C248   C     0.25714   0.16914   0.78296   0.00000  Uiso   1.00
C249   C     0.24893   0.09143   0.77907   0.00000  Uiso   1.00
C250   C     0.32661   0.04972   0.78200   0.00000  Uiso   1.00
C251   C     0.18942   0.27260   0.85291   0.00000  Uiso   1.00
C252   C     0.12428   0.28187   0.90784   0.00000  Uiso   1.00
C253   C     0.14495   0.32724   0.96967   0.00000  Uiso   1.00
H254   H     0.39802   0.31663   0.79804   0.00000  Uiso   1.00
H255   H     0.37827   0.39059   0.67202   0.00000  Uiso   1.00
H256   H     0.48182   0.18929   0.79761   0.00000  Uiso   1.00
H257   H     0.35718   0.37970   0.92636   0.00000  Uiso   1.00
H258   H     0.31984   0.45722   0.52937   0.00000  Uiso   1.00
H259   H     0.53818   0.03277   0.79422   0.00000  Uiso   1.00
H260   H     0.27536   0.43427   0.06572   0.00000  Uiso   1.00
H261   H     0.11645   0.19834   0.77563   0.00000  Uiso   1.00
H262   H     0.08124   0.26582   0.64837   0.00000  Uiso   1.00
H263   H     0.18480   0.06452   0.77397   0.00000  Uiso   1.00
H264   H     0.06016   0.25492   0.90272   0.00000  Uiso   1.00
H265   H     0.07877   0.35595   0.51018   0.00000  Uiso   1.00
H266   H     0.29711   0.93149   0.77503   0.00000  Uiso   1.00
H267   H     0.03429   0.33300   0.04652   0.00000  Uiso   1.00
O268   O     0.18123   0.45309   0.43645   0.00000  Uiso   1.00
O269   O     0.46769   0.89623   0.78394   0.00000  Uiso   1.00
O270   O     0.12288   0.42298   0.14013   0.00000  Uiso   1.00
N271   N     0.26793   0.42414   0.54233   0.00000  Uiso   1.00
N272   N     0.47207   0.02730   0.78993   0.00000  Uiso   1.00
N273   N     0.22636   0.40265   0.04377   0.00000  Uiso   1.00
N274   N     0.13821   0.36964   0.53200   0.00000  Uiso   1.00
N275   N     0.34235   0.97281   0.77960   0.00000  Uiso   1.00
N276   N     0.09664   0.34816   0.03344   0.00000  Uiso   1.00
C277   C     0.83351   0.21047   0.20709   0.00000  Uiso   1.00
C278   C     0.78373   0.18668   0.27867   0.00000  Uiso   1.00
C279   C     0.81414   0.13633   0.33310   0.00000  Uiso   1.00
C280   C     0.75869   0.12200   0.39445   0.00000  Uiso   1.00
C281   C     0.69401   0.07980   0.50460   0.00000  Uiso   1.00
C282   C     0.84000   0.29605   0.21044   0.00000  Uiso   1.00
C283   C     0.91771   0.33766   0.20750   0.00000  Uiso   1.00
C284   C     0.90962   0.41541   0.21140   0.00000  Uiso   1.00
C285   C     0.93229   0.54301   0.21557   0.00000  Uiso   1.00
C286   C     0.77228   0.19260   0.14049   0.00000  Uiso   1.00
C287   C     0.79306   0.14723   0.07872   0.00000  Uiso   1.00
C288   C     0.72796   0.13789   0.02372   0.00000  Uiso   1.00
C289   C     0.64548   0.10486   0.91929   0.00000  Uiso   1.00
C290   C     0.68097   0.27455   0.21923   0.00000  Uiso   1.00
C291   C     0.70087   0.22149   0.28526   0.00000  Uiso   1.00
C292   C     0.64536   0.20723   0.34654   0.00000  Uiso   1.00
C293   C     0.67568   0.15687   0.40105   0.00000  Uiso   1.00
C294   C     0.75714   0.33086   0.21704   0.00000  Uiso   1.00
C295   C     0.74893   0.40857   0.22093   0.00000  Uiso   1.00
C296   C     0.82661   0.45028   0.21800   0.00000  Uiso   1.00
C297   C     0.68942   0.22740   0.14709   0.00000  Uiso   1.00
C298   C     0.62428   0.21813   0.09216   0.00000  Uiso   1.00
C299   C     0.64495   0.17276   0.03033   0.00000  Uiso   1.00
H300   H     0.89802   0.18337   0.20196   0.00000  Uiso   1.00
H301   H     0.87827   0.10941   0.32798   0.00000  Uiso   1.00
H302   H     0.98182   0.31071   0.20239   0.00000  Uiso   1.00
H303   H     0.85718   0.12030   0.07364   0.00000  Uiso   1.00
H304   H     0.81984   0.04278   0.47063   0.00000  Uiso   1.00
H305   H     0.03818   0.46723   0.20578   0.00000  Uiso   1.00
H306   H     0.77536   0.06573   0.93428   0.00000  Uiso   1.00
H307   H     0.61645   0.30166   0.22437   0.00000  Uiso   1.00
H308   H     0.58124   0.23418   0.35163   0.00000  Uiso   1.00
H309   H     0.68480   0.43548   0.22603   0.00000  Uiso   1.00
H310   H     0.56016   0.24508   0.09728   0.00000  Uiso   1.00
H311   H     0.57877   0.14405   0.48982   0.00000  Uiso   1.00
H312   H     0.79711   0.56851   0.22497   0.00000  Uiso   1.00
H313   H     0.53429   0.16700   0.95348   0.00000  Uiso   1.00
O314   O     0.68123   0.04691   0.56355   0.00000  Uiso   1.00
O315   O     0.96769   0.60377   0.21606   0.00000  Uiso   1.00
O316   O     0.62288   0.07702   0.85987   0.00000  Uiso   1.00
N317   N     0.76793   0.07586   0.45767   0.00000  Uiso   1.00
N318   N     0.97207   0.47270   0.21007   0.00000  Uiso   1.00
N319   N     0.72636   0.09735   0.95623   0.00000  Uiso   1.00
N320   N     0.63821   0.13036   0.46800   0.00000  Uiso   1.00
N321   N     0.84235   0.52719   0.22040   0.00000  Uiso   1.00
N322   N     0.59664   0.15184   0.96656   0.00000  Uiso   1.00
C323   C     0.66649   0.78953   0.70709   0.00000  Uiso   1.00
C324   C     0.71627   0.81332   0.77867   0.00000  Uiso   1.00
C325   C     0.68586   0.86367   0.83310   0.00000  Uiso   1.00
C326   C     0.74131   0.87800   0.89445   0.00000  Uiso   1.00
C327   C     0.80599   0.92020   0.00460   0.00000  Uiso   1.00
C328   C     0.66000   0.70395   0.71044   0.00000  Uiso   1.00
C329   C     0.58229   0.66234   0.70750   0.00000  Uiso   1.00
C330   C     0.59038   0.58459   0.71140   0.00000  Uiso   1.00
C331   C     0.56771   0.45699   0.71557   0.00000  Uiso   1.00
C332   C     0.72772   0.80740   0.64049   0.00000  Uiso   1.00
C333   C     0.70694   0.85277   0.57872   0.00000  Uiso   1.00
C334   C     0.77204   0.86211   0.52372   0.00000  Uiso   1.00
C335   C     0.85452   0.89514   0.41929   0.00000  Uiso   1.00
C336   C     0.81903   0.72545   0.71923   0.00000  Uiso   1.00
C337   C     0.79913   0.77851   0.78526   0.00000  Uiso   1.00
C338   C     0.85464   0.79277   0.84654   0.00000  Uiso   1.00
C339   C     0.82432   0.84313   0.90105   0.00000  Uiso   1.00
C340   C     0.74286   0.66914   0.71704   0.00000  Uiso   1.00
C341   C     0.75107   0.59143   0.72093   0.00000  Uiso   1.00
C342   C     0.67339   0.54972   0.71800   0.00000  Uiso   1.00
C343   C     0.81058   0.77260   0.64709   0.00000  Uiso   1.00
C344   C     0.87572   0.78187   0.59216   0.00000  Uiso   1.00
C345   C     0.85505   0.82724   0.53033   0.00000  Uiso   1.00
H346   H     0.60198   0.81663   0.70196   0.00000  Uiso   1.00
H347   H     0.62173   0.89059   0.82798   0.00000  Uiso   1.00
H348   H     0.51818   0.68929   0.70239   0.00000  Uiso   1.00
H349   H     0.64282   0.87970   0.57364   0.00000  Uiso   1.00
H350   H     0.68016   0.95722   0.97063   0.00000  Uiso   1.00
H351   H     0.46182   0.53277   0.70578   0.00000  Uiso   1.00
H352   H     0.72464   0.93427   0.43428   0.00000  Uiso   1.00
H353   H     0.88355   0.69834   0.72437   0.00000  Uiso   1.00
H354   H     0.91876   0.76582   0.85163   0.00000  Uiso   1.00
H355   H     0.81520   0.56452   0.72603   0.00000  Uiso   1.00
H356   H     0.93984   0.75492   0.59728   0.00000  Uiso   1.00
H357   H     0.92123   0.85595   0.98982   0.00000  Uiso   1.00
H358   H     0.70289   0.43149   0.72497   0.00000  Uiso   1.00
H359   H     0.96571   0.83300   0.45348   0.00000  Uiso   1.00
O360   O     0.81877   0.95309   0.06355   0.00000  Uiso   1.00
O361   O     0.53231   0.39623   0.71606   0.00000  Uiso   1.00
O362   O     0.87712   0.92298   0.35987   0.00000  Uiso   1.00
N363   N     0.73207   0.92414   0.95767   0.00000  Uiso   1.00
N364   N     0.52793   0.52730   0.71007   0.00000  Uiso   1.00
N365   N     0.77364   0.90265   0.45623   0.00000  Uiso   1.00
N366   N     0.86179   0.86964   0.96800   0.00000  Uiso   1.00
N367   N     0.65765   0.47281   0.72040   0.00000  Uiso   1.00
N368   N     0.90336   0.84816   0.46656   0.00000  Uiso   1.00
