data_job_01945
_audit_creation_date              2018-12-19
_audit_creation_method            'Materials Studio'
_symmetry_space_group_name_H-M    'P1'
_symmetry_Int_Tables_number       1
_symmetry_cell_setting            triclinic
loop_
_symmetry_equiv_pos_as_xyz
  x,y,z
_cell_length_a                    22.0003
_cell_length_b                    11.5417
_cell_length_c                    31.9849
_cell_angle_alpha                 90.0000
_cell_angle_beta                  116.3141
_cell_angle_gamma                 90.0000
loop_
_atom_site_label
_atom_site_type_symbol
_atom_site_fract_x
_atom_site_fract_y
_atom_site_fract_z
_atom_site_U_iso_or_equiv
_atom_site_adp_type
_atom_site_occupancy
C1     C     0.07587   0.28175   0.05469   0.00000  Uiso   1.00
C2     C     0.11065   0.17906   0.04431   0.00000  Uiso   1.00
C3     C     0.09069   0.12731   0.00105   0.00000  Uiso   1.00
C4     C     0.12918   0.03435   0.99879   0.00000  Uiso   1.00
C5     C     0.17458   0.88090   0.97665   0.00000  Uiso   1.00
C6     C     0.05779   0.24172   0.09322   0.00000  Uiso   1.00
C7     C     0.99339   0.24268   0.09108   0.00000  Uiso   1.00
C8     C     0.98739   0.20248   0.12999   0.00000  Uiso   1.00
C9     C     0.95073   0.14639   0.18381   0.00000  Uiso   1.00
C10    C     0.13035   0.37440   0.07651   0.00000  Uiso   1.00
C11    C     0.12695   0.48693   0.06032   0.00000  Uiso   1.00
C12    C     0.18203   0.55845   0.08518   0.00000  Uiso   1.00
C13    C     0.25802   0.70836   0.11305   0.00000  Uiso   1.00
C14    C     0.17973   0.20869   0.12762   0.00000  Uiso   1.00
C15    C     0.16706   0.13937   0.08393   0.00000  Uiso   1.00
C16    C     0.20559   0.04647   0.08173   0.00000  Uiso   1.00
C17    C     0.18569   0.99460   0.03847   0.00000  Uiso   1.00
C18    C     0.11420   0.20204   0.13283   0.00000  Uiso   1.00
C19    C     0.10829   0.16184   0.17176   0.00000  Uiso   1.00
C20    C     0.04390   0.16273   0.16968   0.00000  Uiso   1.00
C21    C     0.18676   0.33471   0.11612   0.00000  Uiso   1.00
C22    C     0.24185   0.40608   0.14101   0.00000  Uiso   1.00
C23    C     0.23854   0.51869   0.12486   0.00000  Uiso   1.00
H24    H     0.03195   0.31265   0.02385   0.00000  Uiso   1.00
H25    H     0.04703   0.15804   0.97040   0.00000  Uiso   1.00
H26    H     0.94975   0.27340   0.06042   0.00000  Uiso   1.00
H27    H     0.08329   0.51761   0.02967   0.00000  Uiso   1.00
H28    H     0.08860   0.96910   0.92861   0.00000  Uiso   1.00
H29    H     0.88348   0.21239   0.11843   0.00000  Uiso   1.00
H30    H     0.16507   0.72734   0.05359   0.00000  Uiso   1.00
H31    H     0.22365   0.17779   0.15846   0.00000  Uiso   1.00
H32    H     0.24924   0.01578   0.11239   0.00000  Uiso   1.00
H33    H     0.15196   0.13114   0.20241   0.00000  Uiso   1.00
H34    H     0.28550   0.37534   0.17166   0.00000  Uiso   1.00
H35    H     0.25272   0.85364   0.04386   0.00000  Uiso   1.00
H36    H     0.04760   0.09692   0.23368   0.00000  Uiso   1.00
H37    H     0.32920   0.61187   0.16884   0.00000  Uiso   1.00
O38    O     0.18403   0.80720   0.95351   0.00000  Uiso   1.00
O39    O     0.91492   0.12641   0.20254   0.00000  Uiso   1.00
O40    O     0.28436   0.80201   0.11747   0.00000  Uiso   1.00
N41    N     0.12372   0.96418   0.96205   0.00000  Uiso   1.00
N42    N     0.93195   0.19161   0.13952   0.00000  Uiso   1.00
N43    N     0.19520   0.67306   0.07891   0.00000  Uiso   1.00
N44    N     0.21204   0.90205   0.02407   0.00000  Uiso   1.00
N45    N     0.02026   0.12948   0.20153   0.00000  Uiso   1.00
N46    N     0.28352   0.61093   0.14092   0.00000  Uiso   1.00
C47    C     0.57587   0.78175   0.05469   0.00000  Uiso   1.00
C48    C     0.61065   0.67906   0.04431   0.00000  Uiso   1.00
C49    C     0.59069   0.62731   0.00105   0.00000  Uiso   1.00
C50    C     0.62918   0.53435   0.99879   0.00000  Uiso   1.00
C51    C     0.67458   0.38090   0.97665   0.00000  Uiso   1.00
C52    C     0.55779   0.74172   0.09322   0.00000  Uiso   1.00
C53    C     0.49339   0.74268   0.09108   0.00000  Uiso   1.00
C54    C     0.48739   0.70248   0.12999   0.00000  Uiso   1.00
C55    C     0.45073   0.64639   0.18381   0.00000  Uiso   1.00
C56    C     0.63035   0.87440   0.07651   0.00000  Uiso   1.00
C57    C     0.62695   0.98693   0.06032   0.00000  Uiso   1.00
C58    C     0.68203   0.05845   0.08518   0.00000  Uiso   1.00
C59    C     0.75802   0.20836   0.11305   0.00000  Uiso   1.00
C60    C     0.67973   0.70869   0.12762   0.00000  Uiso   1.00
C61    C     0.66706   0.63937   0.08393   0.00000  Uiso   1.00
C62    C     0.70559   0.54647   0.08173   0.00000  Uiso   1.00
C63    C     0.68569   0.49460   0.03847   0.00000  Uiso   1.00
C64    C     0.61420   0.70204   0.13283   0.00000  Uiso   1.00
C65    C     0.60829   0.66184   0.17176   0.00000  Uiso   1.00
C66    C     0.54390   0.66273   0.16968   0.00000  Uiso   1.00
C67    C     0.68676   0.83471   0.11612   0.00000  Uiso   1.00
C68    C     0.74185   0.90608   0.14101   0.00000  Uiso   1.00
C69    C     0.73854   0.01869   0.12486   0.00000  Uiso   1.00
H70    H     0.53195   0.81265   0.02385   0.00000  Uiso   1.00
H71    H     0.54703   0.65804   0.97040   0.00000  Uiso   1.00
H72    H     0.44975   0.77340   0.06042   0.00000  Uiso   1.00
H73    H     0.58329   0.01761   0.02967   0.00000  Uiso   1.00
H74    H     0.58860   0.46910   0.92861   0.00000  Uiso   1.00
H75    H     0.38348   0.71239   0.11843   0.00000  Uiso   1.00
H76    H     0.66507   0.22734   0.05359   0.00000  Uiso   1.00
H77    H     0.72365   0.67779   0.15846   0.00000  Uiso   1.00
H78    H     0.74924   0.51578   0.11239   0.00000  Uiso   1.00
H79    H     0.65196   0.63114   0.20241   0.00000  Uiso   1.00
H80    H     0.78550   0.87534   0.17166   0.00000  Uiso   1.00
H81    H     0.75272   0.35364   0.04386   0.00000  Uiso   1.00
H82    H     0.54760   0.59692   0.23368   0.00000  Uiso   1.00
H83    H     0.82920   0.11187   0.16884   0.00000  Uiso   1.00
O84    O     0.68403   0.30720   0.95351   0.00000  Uiso   1.00
O85    O     0.41492   0.62641   0.20254   0.00000  Uiso   1.00
O86    O     0.78436   0.30201   0.11747   0.00000  Uiso   1.00
N87    N     0.62372   0.46418   0.96205   0.00000  Uiso   1.00
N88    N     0.43195   0.69161   0.13952   0.00000  Uiso   1.00
N89    N     0.69520   0.17306   0.07891   0.00000  Uiso   1.00
N90    N     0.71204   0.40205   0.02407   0.00000  Uiso   1.00
N91    N     0.52026   0.62948   0.20153   0.00000  Uiso   1.00
N92    N     0.78352   0.11093   0.14092   0.00000  Uiso   1.00
C93    C     0.92413   0.28175   0.44531   0.00000  Uiso   1.00
C94    C     0.88935   0.17906   0.45569   0.00000  Uiso   1.00
C95    C     0.90931   0.12731   0.49895   0.00000  Uiso   1.00
C96    C     0.87082   0.03435   0.50121   0.00000  Uiso   1.00
C97    C     0.82542   0.88090   0.52335   0.00000  Uiso   1.00
C98    C     0.94221   0.24172   0.40678   0.00000  Uiso   1.00
C99    C     0.00661   0.24268   0.40892   0.00000  Uiso   1.00
C100   C     0.01261   0.20248   0.37001   0.00000  Uiso   1.00
C101   C     0.04927   0.14639   0.31619   0.00000  Uiso   1.00
C102   C     0.86965   0.37440   0.42349   0.00000  Uiso   1.00
C103   C     0.87305   0.48693   0.43968   0.00000  Uiso   1.00
C104   C     0.81797   0.55845   0.41482   0.00000  Uiso   1.00
C105   C     0.74198   0.70836   0.38695   0.00000  Uiso   1.00
C106   C     0.82027   0.20869   0.37238   0.00000  Uiso   1.00
C107   C     0.83294   0.13937   0.41607   0.00000  Uiso   1.00
C108   C     0.79441   0.04647   0.41827   0.00000  Uiso   1.00
C109   C     0.81431   0.99460   0.46153   0.00000  Uiso   1.00
C110   C     0.88580   0.20204   0.36717   0.00000  Uiso   1.00
C111   C     0.89171   0.16184   0.32824   0.00000  Uiso   1.00
C112   C     0.95610   0.16273   0.33032   0.00000  Uiso   1.00
C113   C     0.81324   0.33471   0.38388   0.00000  Uiso   1.00
C114   C     0.75815   0.40608   0.35899   0.00000  Uiso   1.00
C115   C     0.76146   0.51869   0.37514   0.00000  Uiso   1.00
H116   H     0.96805   0.31265   0.47615   0.00000  Uiso   1.00
H117   H     0.95297   0.15804   0.52960   0.00000  Uiso   1.00
H118   H     0.05025   0.27340   0.43958   0.00000  Uiso   1.00
H119   H     0.91671   0.51761   0.47033   0.00000  Uiso   1.00
H120   H     0.91140   0.96910   0.57139   0.00000  Uiso   1.00
H121   H     0.11652   0.21239   0.38157   0.00000  Uiso   1.00
H122   H     0.83493   0.72734   0.44641   0.00000  Uiso   1.00
H123   H     0.77635   0.17779   0.34154   0.00000  Uiso   1.00
H124   H     0.75076   0.01578   0.38761   0.00000  Uiso   1.00
H125   H     0.84804   0.13114   0.29759   0.00000  Uiso   1.00
H126   H     0.71450   0.37534   0.32834   0.00000  Uiso   1.00
H127   H     0.74728   0.85364   0.45614   0.00000  Uiso   1.00
H128   H     0.95240   0.09692   0.26632   0.00000  Uiso   1.00
H129   H     0.67080   0.61187   0.33116   0.00000  Uiso   1.00
O130   O     0.81597   0.80720   0.54649   0.00000  Uiso   1.00
O131   O     0.08508   0.12641   0.29746   0.00000  Uiso   1.00
O132   O     0.71564   0.80201   0.38253   0.00000  Uiso   1.00
N133   N     0.87628   0.96418   0.53795   0.00000  Uiso   1.00
N134   N     0.06805   0.19161   0.36048   0.00000  Uiso   1.00
N135   N     0.80480   0.67306   0.42109   0.00000  Uiso   1.00
N136   N     0.78796   0.90205   0.47593   0.00000  Uiso   1.00
N137   N     0.97974   0.12948   0.29847   0.00000  Uiso   1.00
N138   N     0.71648   0.61093   0.35908   0.00000  Uiso   1.00
C139   C     0.42413   0.78175   0.44531   0.00000  Uiso   1.00
C140   C     0.38935   0.67906   0.45569   0.00000  Uiso   1.00
C141   C     0.40931   0.62731   0.49895   0.00000  Uiso   1.00
C142   C     0.37082   0.53435   0.50121   0.00000  Uiso   1.00
C143   C     0.32542   0.38090   0.52335   0.00000  Uiso   1.00
C144   C     0.44221   0.74172   0.40678   0.00000  Uiso   1.00
C145   C     0.50661   0.74268   0.40892   0.00000  Uiso   1.00
C146   C     0.51261   0.70248   0.37001   0.00000  Uiso   1.00
C147   C     0.54927   0.64639   0.31619   0.00000  Uiso   1.00
C148   C     0.36965   0.87440   0.42349   0.00000  Uiso   1.00
C149   C     0.37305   0.98693   0.43968   0.00000  Uiso   1.00
C150   C     0.31797   0.05845   0.41482   0.00000  Uiso   1.00
C151   C     0.24198   0.20836   0.38695   0.00000  Uiso   1.00
C152   C     0.32027   0.70869   0.37238   0.00000  Uiso   1.00
C153   C     0.33294   0.63937   0.41607   0.00000  Uiso   1.00
C154   C     0.29441   0.54647   0.41827   0.00000  Uiso   1.00
C155   C     0.31431   0.49460   0.46153   0.00000  Uiso   1.00
C156   C     0.38580   0.70204   0.36717   0.00000  Uiso   1.00
C157   C     0.39171   0.66184   0.32824   0.00000  Uiso   1.00
C158   C     0.45610   0.66273   0.33032   0.00000  Uiso   1.00
C159   C     0.31324   0.83471   0.38388   0.00000  Uiso   1.00
C160   C     0.25815   0.90608   0.35899   0.00000  Uiso   1.00
C161   C     0.26146   0.01869   0.37514   0.00000  Uiso   1.00
H162   H     0.46805   0.81265   0.47615   0.00000  Uiso   1.00
H163   H     0.45297   0.65804   0.52960   0.00000  Uiso   1.00
H164   H     0.55025   0.77340   0.43958   0.00000  Uiso   1.00
H165   H     0.41671   0.01761   0.47033   0.00000  Uiso   1.00
H166   H     0.41140   0.46910   0.57139   0.00000  Uiso   1.00
H167   H     0.61652   0.71239   0.38157   0.00000  Uiso   1.00
H168   H     0.33493   0.22734   0.44641   0.00000  Uiso   1.00
H169   H     0.27635   0.67779   0.34154   0.00000  Uiso   1.00
H170   H     0.25076   0.51578   0.38761   0.00000  Uiso   1.00
H171   H     0.34804   0.63114   0.29759   0.00000  Uiso   1.00
H172   H     0.21450   0.87534   0.32834   0.00000  Uiso   1.00
H173   H     0.24728   0.35364   0.45614   0.00000  Uiso   1.00
H174   H     0.45240   0.59692   0.26632   0.00000  Uiso   1.00
H175   H     0.17080   0.11187   0.33116   0.00000  Uiso   1.00
O176   O     0.31597   0.30720   0.54649   0.00000  Uiso   1.00
O177   O     0.58508   0.62641   0.29746   0.00000  Uiso   1.00
O178   O     0.21564   0.30201   0.38253   0.00000  Uiso   1.00
N179   N     0.37628   0.46418   0.53795   0.00000  Uiso   1.00
N180   N     0.56805   0.69161   0.36048   0.00000  Uiso   1.00
N181   N     0.30480   0.17306   0.42109   0.00000  Uiso   1.00
N182   N     0.28796   0.40205   0.47593   0.00000  Uiso   1.00
N183   N     0.47974   0.62948   0.29847   0.00000  Uiso   1.00
N184   N     0.21648   0.11093   0.35908   0.00000  Uiso   1.00
C185   C     0.92413   0.71825   0.94531   0.00000  Uiso   1.00
C186   C     0.88935   0.82094   0.95569   0.00000  Uiso   1.00
C187   C     0.90931   0.87269   0.99895   0.00000  Uiso   1.00
C188   C     0.87082   0.96565   0.00121   0.00000  Uiso   1.00
C189   C     0.82542   0.11910   0.02335   0.00000  Uiso   1.00
C190   C     0.94221   0.75828   0.90678   0.00000  Uiso   1.00
C191   C     0.00661   0.75732   0.90892   0.00000  Uiso   1.00
C192   C     0.01261   0.79752   0.87001   0.00000  Uiso   1.00
C193   C     0.04927   0.85361   0.81619   0.00000  Uiso   1.00
C194   C     0.86965   0.62560   0.92349   0.00000  Uiso   1.00
C195   C     0.87305   0.51307   0.93968   0.00000  Uiso   1.00
C196   C     0.81797   0.44155   0.91482   0.00000  Uiso   1.00
C197   C     0.74198   0.29164   0.88695   0.00000  Uiso   1.00
C198   C     0.82027   0.79131   0.87238   0.00000  Uiso   1.00
C199   C     0.83294   0.86063   0.91607   0.00000  Uiso   1.00
C200   C     0.79441   0.95353   0.91827   0.00000  Uiso   1.00
C201   C     0.81431   0.00540   0.96153   0.00000  Uiso   1.00
C202   C     0.88580   0.79796   0.86717   0.00000  Uiso   1.00
C203   C     0.89171   0.83816   0.82824   0.00000  Uiso   1.00
C204   C     0.95610   0.83727   0.83032   0.00000  Uiso   1.00
C205   C     0.81324   0.66529   0.88388   0.00000  Uiso   1.00
C206   C     0.75815   0.59392   0.85899   0.00000  Uiso   1.00
C207   C     0.76146   0.48131   0.87514   0.00000  Uiso   1.00
H208   H     0.96805   0.68735   0.97615   0.00000  Uiso   1.00
H209   H     0.95297   0.84196   0.02960   0.00000  Uiso   1.00
H210   H     0.05025   0.72660   0.93958   0.00000  Uiso   1.00
H211   H     0.91671   0.48239   0.97033   0.00000  Uiso   1.00
H212   H     0.91140   0.03090   0.07139   0.00000  Uiso   1.00
H213   H     0.11652   0.78761   0.88157   0.00000  Uiso   1.00
H214   H     0.83493   0.27266   0.94641   0.00000  Uiso   1.00
H215   H     0.77635   0.82221   0.84154   0.00000  Uiso   1.00
H216   H     0.75076   0.98422   0.88761   0.00000  Uiso   1.00
H217   H     0.84804   0.86886   0.79759   0.00000  Uiso   1.00
H218   H     0.71450   0.62466   0.82834   0.00000  Uiso   1.00
H219   H     0.74728   0.14636   0.95614   0.00000  Uiso   1.00
H220   H     0.95240   0.90308   0.76632   0.00000  Uiso   1.00
H221   H     0.67080   0.38813   0.83116   0.00000  Uiso   1.00
O222   O     0.81597   0.19280   0.04649   0.00000  Uiso   1.00
O223   O     0.08508   0.87359   0.79746   0.00000  Uiso   1.00
O224   O     0.71564   0.19799   0.88253   0.00000  Uiso   1.00
N225   N     0.87628   0.03582   0.03795   0.00000  Uiso   1.00
N226   N     0.06805   0.80839   0.86048   0.00000  Uiso   1.00
N227   N     0.80480   0.32694   0.92109   0.00000  Uiso   1.00
N228   N     0.78796   0.09795   0.97593   0.00000  Uiso   1.00
N229   N     0.97974   0.87052   0.79847   0.00000  Uiso   1.00
N230   N     0.71648   0.38907   0.85908   0.00000  Uiso   1.00
C231   C     0.42413   0.21825   0.94531   0.00000  Uiso   1.00
C232   C     0.38935   0.32094   0.95569   0.00000  Uiso   1.00
C233   C     0.40931   0.37269   0.99895   0.00000  Uiso   1.00
C234   C     0.37082   0.46565   0.00121   0.00000  Uiso   1.00
C235   C     0.32542   0.61910   0.02335   0.00000  Uiso   1.00
C236   C     0.44221   0.25828   0.90678   0.00000  Uiso   1.00
C237   C     0.50661   0.25732   0.90892   0.00000  Uiso   1.00
C238   C     0.51261   0.29752   0.87001   0.00000  Uiso   1.00
C239   C     0.54927   0.35361   0.81619   0.00000  Uiso   1.00
C240   C     0.36965   0.12560   0.92349   0.00000  Uiso   1.00
C241   C     0.37305   0.01307   0.93968   0.00000  Uiso   1.00
C242   C     0.31797   0.94155   0.91482   0.00000  Uiso   1.00
C243   C     0.24198   0.79164   0.88695   0.00000  Uiso   1.00
C244   C     0.32027   0.29131   0.87238   0.00000  Uiso   1.00
C245   C     0.33294   0.36063   0.91607   0.00000  Uiso   1.00
C246   C     0.29441   0.45353   0.91827   0.00000  Uiso   1.00
C247   C     0.31431   0.50540   0.96153   0.00000  Uiso   1.00
C248   C     0.38580   0.29796   0.86717   0.00000  Uiso   1.00
C249   C     0.39171   0.33816   0.82824   0.00000  Uiso   1.00
C250   C     0.45610   0.33727   0.83032   0.00000  Uiso   1.00
C251   C     0.31324   0.16529   0.88388   0.00000  Uiso   1.00
C252   C     0.25815   0.09392   0.85899   0.00000  Uiso   1.00
C253   C     0.26146   0.98131   0.87514   0.00000  Uiso   1.00
H254   H     0.46805   0.18735   0.97615   0.00000  Uiso   1.00
H255   H     0.45297   0.34196   0.02960   0.00000  Uiso   1.00
H256   H     0.55025   0.22660   0.93958   0.00000  Uiso   1.00
H257   H     0.41671   0.98239   0.97033   0.00000  Uiso   1.00
H258   H     0.41140   0.53090   0.07139   0.00000  Uiso   1.00
H259   H     0.61652   0.28761   0.88157   0.00000  Uiso   1.00
H260   H     0.33493   0.77266   0.94641   0.00000  Uiso   1.00
H261   H     0.27635   0.32221   0.84154   0.00000  Uiso   1.00
H262   H     0.25076   0.48422   0.88761   0.00000  Uiso   1.00
H263   H     0.34804   0.36886   0.79759   0.00000  Uiso   1.00
H264   H     0.21450   0.12466   0.82834   0.00000  Uiso   1.00
H265   H     0.24728   0.64636   0.95614   0.00000  Uiso   1.00
H266   H     0.45240   0.40308   0.76632   0.00000  Uiso   1.00
H267   H     0.17080   0.88813   0.83116   0.00000  Uiso   1.00
O268   O     0.31597   0.69280   0.04649   0.00000  Uiso   1.00
O269   O     0.58508   0.37359   0.79746   0.00000  Uiso   1.00
O270   O     0.21564   0.69799   0.88253   0.00000  Uiso   1.00
N271   N     0.37628   0.53582   0.03795   0.00000  Uiso   1.00
N272   N     0.56805   0.30839   0.86048   0.00000  Uiso   1.00
N273   N     0.30480   0.82694   0.92109   0.00000  Uiso   1.00
N274   N     0.28796   0.59795   0.97593   0.00000  Uiso   1.00
N275   N     0.47974   0.37052   0.79847   0.00000  Uiso   1.00
N276   N     0.21648   0.88907   0.85908   0.00000  Uiso   1.00
C277   C     0.07587   0.71825   0.55469   0.00000  Uiso   1.00
C278   C     0.11065   0.82094   0.54431   0.00000  Uiso   1.00
C279   C     0.09069   0.87269   0.50105   0.00000  Uiso   1.00
C280   C     0.12918   0.96565   0.49879   0.00000  Uiso   1.00
C281   C     0.17458   0.11910   0.47665   0.00000  Uiso   1.00
C282   C     0.05779   0.75828   0.59322   0.00000  Uiso   1.00
C283   C     0.99339   0.75732   0.59108   0.00000  Uiso   1.00
C284   C     0.98739   0.79752   0.62999   0.00000  Uiso   1.00
C285   C     0.95073   0.85361   0.68381   0.00000  Uiso   1.00
C286   C     0.13035   0.62560   0.57651   0.00000  Uiso   1.00
C287   C     0.12695   0.51307   0.56032   0.00000  Uiso   1.00
C288   C     0.18203   0.44155   0.58518   0.00000  Uiso   1.00
C289   C     0.25802   0.29164   0.61305   0.00000  Uiso   1.00
C290   C     0.17973   0.79131   0.62762   0.00000  Uiso   1.00
C291   C     0.16706   0.86063   0.58393   0.00000  Uiso   1.00
C292   C     0.20559   0.95353   0.58173   0.00000  Uiso   1.00
C293   C     0.18569   0.00540   0.53847   0.00000  Uiso   1.00
C294   C     0.11420   0.79796   0.63283   0.00000  Uiso   1.00
C295   C     0.10829   0.83816   0.67176   0.00000  Uiso   1.00
C296   C     0.04390   0.83727   0.66968   0.00000  Uiso   1.00
C297   C     0.18676   0.66529   0.61612   0.00000  Uiso   1.00
C298   C     0.24185   0.59392   0.64101   0.00000  Uiso   1.00
C299   C     0.23854   0.48131   0.62486   0.00000  Uiso   1.00
H300   H     0.03195   0.68735   0.52385   0.00000  Uiso   1.00
H301   H     0.04703   0.84196   0.47040   0.00000  Uiso   1.00
H302   H     0.94975   0.72660   0.56042   0.00000  Uiso   1.00
H303   H     0.08329   0.48239   0.52967   0.00000  Uiso   1.00
H304   H     0.08860   0.03090   0.42861   0.00000  Uiso   1.00
H305   H     0.88348   0.78761   0.61843   0.00000  Uiso   1.00
H306   H     0.16507   0.27266   0.55359   0.00000  Uiso   1.00
H307   H     0.22365   0.82221   0.65846   0.00000  Uiso   1.00
H308   H     0.24924   0.98422   0.61239   0.00000  Uiso   1.00
H309   H     0.15196   0.86886   0.70241   0.00000  Uiso   1.00
H310   H     0.28550   0.62466   0.67166   0.00000  Uiso   1.00
H311   H     0.25272   0.14636   0.54386   0.00000  Uiso   1.00
H312   H     0.04760   0.90308   0.73368   0.00000  Uiso   1.00
H313   H     0.32920   0.38813   0.66884   0.00000  Uiso   1.00
O314   O     0.18403   0.19280   0.45351   0.00000  Uiso   1.00
O315   O     0.91492   0.87359   0.70254   0.00000  Uiso   1.00
O316   O     0.28436   0.19799   0.61747   0.00000  Uiso   1.00
N317   N     0.12372   0.03582   0.46205   0.00000  Uiso   1.00
N318   N     0.93195   0.80839   0.63952   0.00000  Uiso   1.00
N319   N     0.19520   0.32694   0.57891   0.00000  Uiso   1.00
N320   N     0.21204   0.09795   0.52407   0.00000  Uiso   1.00
N321   N     0.02026   0.87052   0.70153   0.00000  Uiso   1.00
N322   N     0.28352   0.38907   0.64092   0.00000  Uiso   1.00
C323   C     0.57587   0.21825   0.55469   0.00000  Uiso   1.00
C324   C     0.61065   0.32094   0.54431   0.00000  Uiso   1.00
C325   C     0.59069   0.37269   0.50105   0.00000  Uiso   1.00
C326   C     0.62918   0.46565   0.49879   0.00000  Uiso   1.00
C327   C     0.67458   0.61910   0.47665   0.00000  Uiso   1.00
C328   C     0.55779   0.25828   0.59322   0.00000  Uiso   1.00
C329   C     0.49339   0.25732   0.59108   0.00000  Uiso   1.00
C330   C     0.48739   0.29752   0.62999   0.00000  Uiso   1.00
C331   C     0.45073   0.35361   0.68381   0.00000  Uiso   1.00
C332   C     0.63035   0.12560   0.57651   0.00000  Uiso   1.00
C333   C     0.62695   0.01307   0.56032   0.00000  Uiso   1.00
C334   C     0.68203   0.94155   0.58518   0.00000  Uiso   1.00
C335   C     0.75802   0.79164   0.61305   0.00000  Uiso   1.00
C336   C     0.67973   0.29131   0.62762   0.00000  Uiso   1.00
C337   C     0.66706   0.36063   0.58393   0.00000  Uiso   1.00
C338   C     0.70559   0.45353   0.58173   0.00000  Uiso   1.00
C339   C     0.68569   0.50540   0.53847   0.00000  Uiso   1.00
C340   C     0.61420   0.29796   0.63283   0.00000  Uiso   1.00
C341   C     0.60829   0.33816   0.67176   0.00000  Uiso   1.00
C342   C     0.54390   0.33727   0.66968   0.00000  Uiso   1.00
C343   C     0.68676   0.16529   0.61612   0.00000  Uiso   1.00
C344   C     0.74185   0.09392   0.64101   0.00000  Uiso   1.00
C345   C     0.73854   0.98131   0.62486   0.00000  Uiso   1.00
H346   H     0.53195   0.18735   0.52385   0.00000  Uiso   1.00
H347   H     0.54703   0.34196   0.47040   0.00000  Uiso   1.00
H348   H     0.44975   0.22660   0.56042   0.00000  Uiso   1.00
H349   H     0.58329   0.98239   0.52967   0.00000  Uiso   1.00
H350   H     0.58860   0.53090   0.42861   0.00000  Uiso   1.00
H351   H     0.38348   0.28761   0.61843   0.00000  Uiso   1.00
H352   H     0.66507   0.77266   0.55359   0.00000  Uiso   1.00
H353   H     0.72365   0.32221   0.65846   0.00000  Uiso   1.00
H354   H     0.74924   0.48422   0.61239   0.00000  Uiso   1.00
H355   H     0.65196   0.36886   0.70241   0.00000  Uiso   1.00
H356   H     0.78550   0.12466   0.67166   0.00000  Uiso   1.00
H357   H     0.75272   0.64636   0.54386   0.00000  Uiso   1.00
H358   H     0.54760   0.40308   0.73368   0.00000  Uiso   1.00
H359   H     0.82920   0.88813   0.66884   0.00000  Uiso   1.00
O360   O     0.68403   0.69280   0.45351   0.00000  Uiso   1.00
O361   O     0.41492   0.37359   0.70254   0.00000  Uiso   1.00
O362   O     0.78436   0.69799   0.61747   0.00000  Uiso   1.00
N363   N     0.62372   0.53582   0.46205   0.00000  Uiso   1.00
N364   N     0.43195   0.30839   0.63952   0.00000  Uiso   1.00
N365   N     0.69520   0.82694   0.57891   0.00000  Uiso   1.00
N366   N     0.71204   0.59795   0.52407   0.00000  Uiso   1.00
N367   N     0.52026   0.37052   0.70153   0.00000  Uiso   1.00
N368   N     0.78352   0.88907   0.64092   0.00000  Uiso   1.00
