data_job_01913
_audit_creation_date              2018-12-19
_audit_creation_method            'Materials Studio'
_symmetry_space_group_name_H-M    'P1'
_symmetry_Int_Tables_number       1
_symmetry_cell_setting            triclinic
loop_
_symmetry_equiv_pos_as_xyz
  x,y,z
_cell_length_a                    21.8241
_cell_length_b                    7.7514
_cell_length_c                    25.0596
_cell_angle_alpha                 90.0000
_cell_angle_beta                  135.7790
_cell_angle_gamma                 90.0000
loop_
_atom_site_label
_atom_site_type_symbol
_atom_site_fract_x
_atom_site_fract_y
_atom_site_fract_z
_atom_site_U_iso_or_equiv
_atom_site_adp_type
_atom_site_occupancy
C1     C     0.30676   0.25207   0.01319   0.00000  Uiso   1.00
C2     C     0.26138   0.38361   0.02076   0.00000  Uiso   1.00
C3     C     0.18916   0.35174   0.00802   0.00000  Uiso   1.00
C4     C     0.15734   0.48919   0.01796   0.00000  Uiso   1.00
C5     C     0.08091   0.66860   0.02634   0.00000  Uiso   1.00
C6     C     0.30523   0.32861   0.95619   0.00000  Uiso   1.00
C7     C     0.26989   0.25047   0.88916   0.00000  Uiso   1.00
C8     C     0.27499   0.34163   0.84475   0.00000  Uiso   1.00
C9     C     0.26671   0.43559   0.75292   0.00000  Uiso   1.00
C10    C     0.40294   0.25014   0.09025   0.00000  Uiso   1.00
C11    C     0.44975   0.10601   0.13593   0.00000  Uiso   1.00
C12    C     0.53712   0.13109   0.20438   0.00000  Uiso   1.00
C13    C     0.68053   0.10322   0.32068   0.00000  Uiso   1.00
C14    C     0.37867   0.55287   0.05351   0.00000  Uiso   1.00
C15    C     0.30045   0.54699   0.04266   0.00000  Uiso   1.00
C16    C     0.26873   0.68453   0.05262   0.00000  Uiso   1.00
C17    C     0.19647   0.65286   0.03990   0.00000  Uiso   1.00
C18    C     0.34429   0.49199   0.97809   0.00000  Uiso   1.00
C19    C     0.34946   0.58327   0.93377   0.00000  Uiso   1.00
C20    C     0.31413   0.50530   0.86669   0.00000  Uiso   1.00
C21    C     0.44200   0.41352   0.11215   0.00000  Uiso   1.00
C22    C     0.52931   0.43882   0.18053   0.00000  Uiso   1.00
C23    C     0.57625   0.29477   0.22631   0.00000  Uiso   1.00
H24    H     0.27635   0.12488   0.99614   0.00000  Uiso   1.00
H25    H     0.15895   0.22528   0.99106   0.00000  Uiso   1.00
H26    H     0.23968   0.12403   0.87224   0.00000  Uiso   1.00
H27    H     0.41951   0.97961   0.11896   0.00000  Uiso   1.00
H28    H     0.04599   0.40867   0.99507   0.00000  Uiso   1.00
H29    H     0.21624   0.19515   0.74452   0.00000  Uiso   1.00
H30    H     0.59544   0.89059   0.26480   0.00000  Uiso   1.00
H31    H     0.40908   0.68008   0.07056   0.00000  Uiso   1.00
H32    H     0.29897   0.81095   0.06957   0.00000  Uiso   1.00
H33    H     0.37969   0.70970   0.95073   0.00000  Uiso   1.00
H34    H     0.55952   0.56527   0.19746   0.00000  Uiso   1.00
H35    H     0.15963   0.88402   0.05878   0.00000  Uiso   1.00
H36    H     0.32988   0.67049   0.80823   0.00000  Uiso   1.00
H37    H     0.70908   0.36594   0.32851   0.00000  Uiso   1.00
O38    O     0.02796   0.72244   0.02490   0.00000  Uiso   1.00
O39    O     0.25133   0.44229   0.69621   0.00000  Uiso   1.00
O40    O     0.74883   0.04272   0.37879   0.00000  Uiso   1.00
N41    N     0.08786   0.50257   0.01021   0.00000  Uiso   1.00
N42    N     0.24702   0.30296   0.77596   0.00000  Uiso   1.00
N43    N     0.60155   0.01821   0.26236   0.00000  Uiso   1.00
N44    N     0.14901   0.75836   0.04450   0.00000  Uiso   1.00
N45    N     0.30817   0.55874   0.81025   0.00000  Uiso   1.00
N46    N     0.66270   0.27399   0.29665   0.00000  Uiso   1.00
C47    C     0.69324   0.25207   0.48681   0.00000  Uiso   1.00
C48    C     0.73862   0.38361   0.47924   0.00000  Uiso   1.00
C49    C     0.81084   0.35174   0.49198   0.00000  Uiso   1.00
C50    C     0.84266   0.48919   0.48204   0.00000  Uiso   1.00
C51    C     0.91909   0.66860   0.47366   0.00000  Uiso   1.00
C52    C     0.69477   0.32861   0.54381   0.00000  Uiso   1.00
C53    C     0.73011   0.25047   0.61084   0.00000  Uiso   1.00
C54    C     0.72501   0.34163   0.65525   0.00000  Uiso   1.00
C55    C     0.73329   0.43559   0.74708   0.00000  Uiso   1.00
C56    C     0.59706   0.25014   0.40975   0.00000  Uiso   1.00
C57    C     0.55025   0.10601   0.36407   0.00000  Uiso   1.00
C58    C     0.46288   0.13109   0.29562   0.00000  Uiso   1.00
C59    C     0.31947   0.10322   0.17932   0.00000  Uiso   1.00
C60    C     0.62133   0.55287   0.44649   0.00000  Uiso   1.00
C61    C     0.69955   0.54699   0.45734   0.00000  Uiso   1.00
C62    C     0.73127   0.68453   0.44738   0.00000  Uiso   1.00
C63    C     0.80353   0.65286   0.46010   0.00000  Uiso   1.00
C64    C     0.65571   0.49199   0.52191   0.00000  Uiso   1.00
C65    C     0.65054   0.58327   0.56623   0.00000  Uiso   1.00
C66    C     0.68587   0.50530   0.63331   0.00000  Uiso   1.00
C67    C     0.55800   0.41352   0.38785   0.00000  Uiso   1.00
C68    C     0.47069   0.43882   0.31947   0.00000  Uiso   1.00
C69    C     0.42375   0.29477   0.27369   0.00000  Uiso   1.00
H70    H     0.72365   0.12488   0.50386   0.00000  Uiso   1.00
H71    H     0.84105   0.22528   0.50894   0.00000  Uiso   1.00
H72    H     0.76032   0.12403   0.62776   0.00000  Uiso   1.00
H73    H     0.58049   0.97961   0.38104   0.00000  Uiso   1.00
H74    H     0.95401   0.40867   0.50493   0.00000  Uiso   1.00
H75    H     0.78376   0.19515   0.75548   0.00000  Uiso   1.00
H76    H     0.40456   0.89059   0.23520   0.00000  Uiso   1.00
H77    H     0.59092   0.68008   0.42944   0.00000  Uiso   1.00
H78    H     0.70103   0.81095   0.43043   0.00000  Uiso   1.00
H79    H     0.62031   0.70970   0.54927   0.00000  Uiso   1.00
H80    H     0.44048   0.56527   0.30254   0.00000  Uiso   1.00
H81    H     0.84037   0.88402   0.44122   0.00000  Uiso   1.00
H82    H     0.67012   0.67049   0.69177   0.00000  Uiso   1.00
H83    H     0.29092   0.36594   0.17149   0.00000  Uiso   1.00
O84    O     0.97204   0.72244   0.47510   0.00000  Uiso   1.00
O85    O     0.74867   0.44229   0.80379   0.00000  Uiso   1.00
O86    O     0.25117   0.04272   0.12121   0.00000  Uiso   1.00
N87    N     0.91214   0.50257   0.48979   0.00000  Uiso   1.00
N88    N     0.75298   0.30296   0.72404   0.00000  Uiso   1.00
N89    N     0.39845   0.01821   0.23764   0.00000  Uiso   1.00
N90    N     0.85099   0.75836   0.45550   0.00000  Uiso   1.00
N91    N     0.69183   0.55874   0.68975   0.00000  Uiso   1.00
N92    N     0.33730   0.27399   0.20335   0.00000  Uiso   1.00
C93    C     0.69324   0.74793   0.98681   0.00000  Uiso   1.00
C94    C     0.73862   0.61639   0.97924   0.00000  Uiso   1.00
C95    C     0.81084   0.64826   0.99198   0.00000  Uiso   1.00
C96    C     0.84266   0.51081   0.98204   0.00000  Uiso   1.00
C97    C     0.91909   0.33140   0.97366   0.00000  Uiso   1.00
C98    C     0.69477   0.67139   0.04381   0.00000  Uiso   1.00
C99    C     0.73011   0.74953   0.11084   0.00000  Uiso   1.00
C100   C     0.72501   0.65837   0.15525   0.00000  Uiso   1.00
C101   C     0.73329   0.56441   0.24708   0.00000  Uiso   1.00
C102   C     0.59706   0.74986   0.90975   0.00000  Uiso   1.00
C103   C     0.55025   0.89399   0.86407   0.00000  Uiso   1.00
C104   C     0.46288   0.86891   0.79562   0.00000  Uiso   1.00
C105   C     0.31947   0.89678   0.67932   0.00000  Uiso   1.00
C106   C     0.62133   0.44713   0.94649   0.00000  Uiso   1.00
C107   C     0.69955   0.45301   0.95734   0.00000  Uiso   1.00
C108   C     0.73127   0.31547   0.94738   0.00000  Uiso   1.00
C109   C     0.80353   0.34714   0.96010   0.00000  Uiso   1.00
C110   C     0.65571   0.50801   0.02191   0.00000  Uiso   1.00
C111   C     0.65054   0.41673   0.06623   0.00000  Uiso   1.00
C112   C     0.68587   0.49470   0.13331   0.00000  Uiso   1.00
C113   C     0.55800   0.58648   0.88785   0.00000  Uiso   1.00
C114   C     0.47069   0.56118   0.81947   0.00000  Uiso   1.00
C115   C     0.42375   0.70523   0.77369   0.00000  Uiso   1.00
H116   H     0.72365   0.87512   0.00386   0.00000  Uiso   1.00
H117   H     0.84105   0.77472   0.00894   0.00000  Uiso   1.00
H118   H     0.76032   0.87597   0.12776   0.00000  Uiso   1.00
H119   H     0.58049   0.02039   0.88104   0.00000  Uiso   1.00
H120   H     0.95401   0.59133   0.00493   0.00000  Uiso   1.00
H121   H     0.78376   0.80485   0.25548   0.00000  Uiso   1.00
H122   H     0.40456   0.10941   0.73520   0.00000  Uiso   1.00
H123   H     0.59092   0.31992   0.92944   0.00000  Uiso   1.00
H124   H     0.70103   0.18905   0.93043   0.00000  Uiso   1.00
H125   H     0.62031   0.29030   0.04927   0.00000  Uiso   1.00
H126   H     0.44048   0.43473   0.80254   0.00000  Uiso   1.00
H127   H     0.84037   0.11598   0.94122   0.00000  Uiso   1.00
H128   H     0.67012   0.32951   0.19177   0.00000  Uiso   1.00
H129   H     0.29092   0.63406   0.67149   0.00000  Uiso   1.00
O130   O     0.97204   0.27756   0.97510   0.00000  Uiso   1.00
O131   O     0.74867   0.55771   0.30379   0.00000  Uiso   1.00
O132   O     0.25117   0.95728   0.62121   0.00000  Uiso   1.00
N133   N     0.91214   0.49743   0.98979   0.00000  Uiso   1.00
N134   N     0.75298   0.69704   0.22404   0.00000  Uiso   1.00
N135   N     0.39845   0.98179   0.73764   0.00000  Uiso   1.00
N136   N     0.85099   0.24164   0.95550   0.00000  Uiso   1.00
N137   N     0.69183   0.44126   0.18975   0.00000  Uiso   1.00
N138   N     0.33730   0.72601   0.70335   0.00000  Uiso   1.00
C139   C     0.30676   0.74793   0.51319   0.00000  Uiso   1.00
C140   C     0.26138   0.61639   0.52076   0.00000  Uiso   1.00
C141   C     0.18916   0.64826   0.50802   0.00000  Uiso   1.00
C142   C     0.15734   0.51081   0.51796   0.00000  Uiso   1.00
C143   C     0.08091   0.33140   0.52634   0.00000  Uiso   1.00
C144   C     0.30523   0.67139   0.45619   0.00000  Uiso   1.00
C145   C     0.26989   0.74953   0.38916   0.00000  Uiso   1.00
C146   C     0.27499   0.65837   0.34475   0.00000  Uiso   1.00
C147   C     0.26671   0.56441   0.25292   0.00000  Uiso   1.00
C148   C     0.40294   0.74986   0.59025   0.00000  Uiso   1.00
C149   C     0.44975   0.89399   0.63593   0.00000  Uiso   1.00
C150   C     0.53712   0.86891   0.70438   0.00000  Uiso   1.00
C151   C     0.68053   0.89678   0.82068   0.00000  Uiso   1.00
C152   C     0.37867   0.44713   0.55351   0.00000  Uiso   1.00
C153   C     0.30045   0.45301   0.54266   0.00000  Uiso   1.00
C154   C     0.26873   0.31547   0.55262   0.00000  Uiso   1.00
C155   C     0.19647   0.34714   0.53990   0.00000  Uiso   1.00
C156   C     0.34429   0.50801   0.47809   0.00000  Uiso   1.00
C157   C     0.34946   0.41673   0.43377   0.00000  Uiso   1.00
C158   C     0.31413   0.49470   0.36669   0.00000  Uiso   1.00
C159   C     0.44200   0.58648   0.61215   0.00000  Uiso   1.00
C160   C     0.52931   0.56118   0.68053   0.00000  Uiso   1.00
C161   C     0.57625   0.70523   0.72631   0.00000  Uiso   1.00
H162   H     0.27635   0.87512   0.49614   0.00000  Uiso   1.00
H163   H     0.15895   0.77472   0.49106   0.00000  Uiso   1.00
H164   H     0.23968   0.87597   0.37224   0.00000  Uiso   1.00
H165   H     0.41951   0.02039   0.61896   0.00000  Uiso   1.00
H166   H     0.04599   0.59133   0.49507   0.00000  Uiso   1.00
H167   H     0.21624   0.80485   0.24452   0.00000  Uiso   1.00
H168   H     0.59544   0.10941   0.76480   0.00000  Uiso   1.00
H169   H     0.40908   0.31992   0.57056   0.00000  Uiso   1.00
H170   H     0.29897   0.18905   0.56957   0.00000  Uiso   1.00
H171   H     0.37969   0.29030   0.45073   0.00000  Uiso   1.00
H172   H     0.55952   0.43473   0.69746   0.00000  Uiso   1.00
H173   H     0.15963   0.11598   0.55878   0.00000  Uiso   1.00
H174   H     0.32988   0.32951   0.30823   0.00000  Uiso   1.00
H175   H     0.70908   0.63406   0.82851   0.00000  Uiso   1.00
O176   O     0.02796   0.27756   0.52490   0.00000  Uiso   1.00
O177   O     0.25133   0.55771   0.19621   0.00000  Uiso   1.00
O178   O     0.74883   0.95728   0.87879   0.00000  Uiso   1.00
N179   N     0.08786   0.49743   0.51021   0.00000  Uiso   1.00
N180   N     0.24702   0.69704   0.27596   0.00000  Uiso   1.00
N181   N     0.60155   0.98179   0.76236   0.00000  Uiso   1.00
N182   N     0.14901   0.24164   0.54450   0.00000  Uiso   1.00
N183   N     0.30817   0.44126   0.31025   0.00000  Uiso   1.00
N184   N     0.66270   0.72601   0.79665   0.00000  Uiso   1.00
