data_job_03676
_audit_creation_date              2018-12-19
_audit_creation_method            'Materials Studio'
_symmetry_space_group_name_H-M    'P1'
_symmetry_Int_Tables_number       1
_symmetry_cell_setting            triclinic
loop_
_symmetry_equiv_pos_as_xyz
  x,y,z
_cell_length_a                    23.9120
_cell_length_b                    11.7283
_cell_length_c                    12.4570
_cell_angle_alpha                 90.0000
_cell_angle_beta                  90.0000
_cell_angle_gamma                 90.0000
loop_
_atom_site_label
_atom_site_type_symbol
_atom_site_fract_x
_atom_site_fract_y
_atom_site_fract_z
_atom_site_U_iso_or_equiv
_atom_site_adp_type
_atom_site_occupancy
C1     C     0.37597   0.68217   0.34066   0.00000  Uiso   1.00
C2     C     0.39348   0.57475   0.28043   0.00000  Uiso   1.00
C3     C     0.39495   0.46534   0.32274   0.00000  Uiso   1.00
C4     C     0.41218   0.37849   0.25461   0.00000  Uiso   1.00
C5     C     0.43708   0.20837   0.17732   0.00000  Uiso   1.00
C6     C     0.42506   0.76462   0.33163   0.00000  Uiso   1.00
C7     C     0.45307   0.81484   0.41699   0.00000  Uiso   1.00
C8     C     0.49689   0.88783   0.39196   0.00000  Uiso   1.00
C9     C     0.57079   0.01254   0.39415   0.00000  Uiso   1.00
C10    C     0.32858   0.73479   0.27545   0.00000  Uiso   1.00
C11    C     0.27546   0.75998   0.31358   0.00000  Uiso   1.00
C12    C     0.23805   0.80788   0.24125   0.00000  Uiso   1.00
C13    C     0.16214   0.88629   0.15622   0.00000  Uiso   1.00
C14    C     0.40399   0.72251   0.14443   0.00000  Uiso   1.00
C15    C     0.40870   0.59667   0.17384   0.00000  Uiso   1.00
C16    C     0.42594   0.50996   0.10563   0.00000  Uiso   1.00
C17    C     0.42742   0.40043   0.14784   0.00000  Uiso   1.00
C18    C     0.44028   0.78653   0.22505   0.00000  Uiso   1.00
C19    C     0.48406   0.85946   0.19989   0.00000  Uiso   1.00
C20    C     0.51213   0.90978   0.28518   0.00000  Uiso   1.00
C21    C     0.34379   0.75670   0.16886   0.00000  Uiso   1.00
C22    C     0.30645   0.80459   0.09647   0.00000  Uiso   1.00
C23    C     0.25329   0.82983   0.13448   0.00000  Uiso   1.00
H24    H     0.36413   0.66512   0.42364   0.00000  Uiso   1.00
H25    H     0.38317   0.44842   0.40523   0.00000  Uiso   1.00
H26    H     0.44128   0.79787   0.49946   0.00000  Uiso   1.00
H27    H     0.26370   0.74301   0.39606   0.00000  Uiso   1.00
H28    H     0.41101   0.21783   0.33783   0.00000  Uiso   1.00
H29    H     0.53353   0.95471   0.53652   0.00000  Uiso   1.00
H30    H     0.15906   0.83902   0.31848   0.00000  Uiso   1.00
H31    H     0.41583   0.73957   0.06145   0.00000  Uiso   1.00
H32    H     0.43771   0.52694   0.02316   0.00000  Uiso   1.00
H33    H     0.49582   0.87640   0.11740   0.00000  Uiso   1.00
H34    H     0.31824   0.82154   0.01400   0.00000  Uiso   1.00
H35    H     0.45528   0.28156   0.02773   0.00000  Uiso   1.00
H36    H     0.57780   0.01845   0.22642   0.00000  Uiso   1.00
H37    H     0.20333   0.90275   0.00838   0.00000  Uiso   1.00
O38    O     0.44662   0.10849   0.16413   0.00000  Uiso   1.00
O39    O     0.60735   0.07526   0.42481   0.00000  Uiso   1.00
O40    O     0.11606   0.92347   0.13876   0.00000  Uiso   1.00
N41    N     0.41842   0.26200   0.27009   0.00000  Uiso   1.00
N42    N     0.53297   0.95093   0.45586   0.00000  Uiso   1.00
N43    N     0.18288   0.84280   0.25202   0.00000  Uiso   1.00
N44    N     0.44224   0.29630   0.10323   0.00000  Uiso   1.00
N45    N     0.55679   0.98522   0.28900   0.00000  Uiso   1.00
N46    N     0.20670   0.87709   0.08516   0.00000  Uiso   1.00
C47    C     0.62403   0.31783   0.84066   0.00000  Uiso   1.00
C48    C     0.60652   0.42525   0.78043   0.00000  Uiso   1.00
C49    C     0.60505   0.53466   0.82274   0.00000  Uiso   1.00
C50    C     0.58782   0.62151   0.75461   0.00000  Uiso   1.00
C51    C     0.56292   0.79163   0.67732   0.00000  Uiso   1.00
C52    C     0.57494   0.23538   0.83163   0.00000  Uiso   1.00
C53    C     0.54693   0.18516   0.91699   0.00000  Uiso   1.00
C54    C     0.50311   0.11217   0.89196   0.00000  Uiso   1.00
C55    C     0.42921   0.98746   0.89415   0.00000  Uiso   1.00
C56    C     0.67142   0.26521   0.77545   0.00000  Uiso   1.00
C57    C     0.72454   0.24002   0.81358   0.00000  Uiso   1.00
C58    C     0.76195   0.19212   0.74125   0.00000  Uiso   1.00
C59    C     0.83786   0.11371   0.65622   0.00000  Uiso   1.00
C60    C     0.59601   0.27749   0.64443   0.00000  Uiso   1.00
C61    C     0.59130   0.40333   0.67384   0.00000  Uiso   1.00
C62    C     0.57406   0.49004   0.60563   0.00000  Uiso   1.00
C63    C     0.57258   0.59957   0.64784   0.00000  Uiso   1.00
C64    C     0.55972   0.21347   0.72505   0.00000  Uiso   1.00
C65    C     0.51594   0.14054   0.69989   0.00000  Uiso   1.00
C66    C     0.48787   0.09022   0.78518   0.00000  Uiso   1.00
C67    C     0.65621   0.24330   0.66886   0.00000  Uiso   1.00
C68    C     0.69355   0.19541   0.59647   0.00000  Uiso   1.00
C69    C     0.74671   0.17017   0.63448   0.00000  Uiso   1.00
H70    H     0.63587   0.33488   0.92364   0.00000  Uiso   1.00
H71    H     0.61683   0.55158   0.90523   0.00000  Uiso   1.00
H72    H     0.55872   0.20213   0.99946   0.00000  Uiso   1.00
H73    H     0.73630   0.25699   0.89606   0.00000  Uiso   1.00
H74    H     0.58899   0.78217   0.83783   0.00000  Uiso   1.00
H75    H     0.46647   0.04529   0.03652   0.00000  Uiso   1.00
H76    H     0.84094   0.16098   0.81848   0.00000  Uiso   1.00
H77    H     0.58417   0.26043   0.56145   0.00000  Uiso   1.00
H78    H     0.56229   0.47306   0.52316   0.00000  Uiso   1.00
H79    H     0.50418   0.12360   0.61740   0.00000  Uiso   1.00
H80    H     0.68176   0.17846   0.51400   0.00000  Uiso   1.00
H81    H     0.54472   0.71844   0.52773   0.00000  Uiso   1.00
H82    H     0.42220   0.98155   0.72642   0.00000  Uiso   1.00
H83    H     0.79667   0.09725   0.50838   0.00000  Uiso   1.00
O84    O     0.55338   0.89151   0.66413   0.00000  Uiso   1.00
O85    O     0.39265   0.92474   0.92481   0.00000  Uiso   1.00
O86    O     0.88394   0.07653   0.63876   0.00000  Uiso   1.00
N87    N     0.58158   0.73800   0.77009   0.00000  Uiso   1.00
N88    N     0.46703   0.04907   0.95586   0.00000  Uiso   1.00
N89    N     0.81712   0.15720   0.75202   0.00000  Uiso   1.00
N90    N     0.55776   0.70370   0.60323   0.00000  Uiso   1.00
N91    N     0.44321   0.01478   0.78900   0.00000  Uiso   1.00
N92    N     0.79330   0.12291   0.58516   0.00000  Uiso   1.00
C93    C     0.87597   0.31783   0.34066   0.00000  Uiso   1.00
C94    C     0.89348   0.42525   0.28043   0.00000  Uiso   1.00
C95    C     0.89495   0.53466   0.32274   0.00000  Uiso   1.00
C96    C     0.91218   0.62151   0.25461   0.00000  Uiso   1.00
C97    C     0.93708   0.79163   0.17732   0.00000  Uiso   1.00
C98    C     0.92506   0.23538   0.33163   0.00000  Uiso   1.00
C99    C     0.95307   0.18516   0.41699   0.00000  Uiso   1.00
C100   C     0.99689   0.11217   0.39196   0.00000  Uiso   1.00
C101   C     0.07079   0.98746   0.39415   0.00000  Uiso   1.00
C102   C     0.82858   0.26521   0.27545   0.00000  Uiso   1.00
C103   C     0.77546   0.24002   0.31358   0.00000  Uiso   1.00
C104   C     0.73805   0.19212   0.24125   0.00000  Uiso   1.00
C105   C     0.66214   0.11371   0.15622   0.00000  Uiso   1.00
C106   C     0.90399   0.27749   0.14443   0.00000  Uiso   1.00
C107   C     0.90870   0.40333   0.17384   0.00000  Uiso   1.00
C108   C     0.92594   0.49004   0.10563   0.00000  Uiso   1.00
C109   C     0.92742   0.59957   0.14784   0.00000  Uiso   1.00
C110   C     0.94028   0.21347   0.22505   0.00000  Uiso   1.00
C111   C     0.98406   0.14054   0.19989   0.00000  Uiso   1.00
C112   C     0.01213   0.09022   0.28518   0.00000  Uiso   1.00
C113   C     0.84379   0.24330   0.16886   0.00000  Uiso   1.00
C114   C     0.80645   0.19541   0.09647   0.00000  Uiso   1.00
C115   C     0.75329   0.17017   0.13448   0.00000  Uiso   1.00
H116   H     0.86413   0.33488   0.42364   0.00000  Uiso   1.00
H117   H     0.88317   0.55158   0.40523   0.00000  Uiso   1.00
H118   H     0.94128   0.20213   0.49946   0.00000  Uiso   1.00
H119   H     0.76370   0.25699   0.39606   0.00000  Uiso   1.00
H120   H     0.91101   0.78217   0.33783   0.00000  Uiso   1.00
H121   H     0.03353   0.04529   0.53652   0.00000  Uiso   1.00
H122   H     0.65906   0.16098   0.31848   0.00000  Uiso   1.00
H123   H     0.91583   0.26043   0.06145   0.00000  Uiso   1.00
H124   H     0.93771   0.47306   0.02316   0.00000  Uiso   1.00
H125   H     0.99582   0.12360   0.11740   0.00000  Uiso   1.00
H126   H     0.81824   0.17846   0.01400   0.00000  Uiso   1.00
H127   H     0.95528   0.71844   0.02773   0.00000  Uiso   1.00
H128   H     0.07780   0.98155   0.22642   0.00000  Uiso   1.00
H129   H     0.70333   0.09725   0.00838   0.00000  Uiso   1.00
O130   O     0.94662   0.89151   0.16413   0.00000  Uiso   1.00
O131   O     0.10735   0.92474   0.42481   0.00000  Uiso   1.00
O132   O     0.61606   0.07653   0.13876   0.00000  Uiso   1.00
N133   N     0.91842   0.73800   0.27009   0.00000  Uiso   1.00
N134   N     0.03297   0.04907   0.45586   0.00000  Uiso   1.00
N135   N     0.68288   0.15720   0.25202   0.00000  Uiso   1.00
N136   N     0.94224   0.70370   0.10323   0.00000  Uiso   1.00
N137   N     0.05679   0.01478   0.28900   0.00000  Uiso   1.00
N138   N     0.70670   0.12291   0.08516   0.00000  Uiso   1.00
C139   C     0.12403   0.68217   0.84066   0.00000  Uiso   1.00
C140   C     0.10652   0.57475   0.78043   0.00000  Uiso   1.00
C141   C     0.10505   0.46534   0.82274   0.00000  Uiso   1.00
C142   C     0.08782   0.37849   0.75461   0.00000  Uiso   1.00
C143   C     0.06292   0.20837   0.67732   0.00000  Uiso   1.00
C144   C     0.07494   0.76462   0.83163   0.00000  Uiso   1.00
C145   C     0.04693   0.81484   0.91699   0.00000  Uiso   1.00
C146   C     0.00311   0.88783   0.89196   0.00000  Uiso   1.00
C147   C     0.92921   0.01254   0.89415   0.00000  Uiso   1.00
C148   C     0.17142   0.73479   0.77545   0.00000  Uiso   1.00
C149   C     0.22454   0.75998   0.81358   0.00000  Uiso   1.00
C150   C     0.26195   0.80788   0.74125   0.00000  Uiso   1.00
C151   C     0.33786   0.88629   0.65622   0.00000  Uiso   1.00
C152   C     0.09601   0.72251   0.64443   0.00000  Uiso   1.00
C153   C     0.09130   0.59667   0.67384   0.00000  Uiso   1.00
C154   C     0.07406   0.50996   0.60563   0.00000  Uiso   1.00
C155   C     0.07258   0.40043   0.64784   0.00000  Uiso   1.00
C156   C     0.05972   0.78653   0.72505   0.00000  Uiso   1.00
C157   C     0.01594   0.85946   0.69989   0.00000  Uiso   1.00
C158   C     0.98787   0.90978   0.78518   0.00000  Uiso   1.00
C159   C     0.15621   0.75670   0.66886   0.00000  Uiso   1.00
C160   C     0.19355   0.80459   0.59647   0.00000  Uiso   1.00
C161   C     0.24671   0.82983   0.63448   0.00000  Uiso   1.00
H162   H     0.13587   0.66512   0.92364   0.00000  Uiso   1.00
H163   H     0.11683   0.44842   0.90523   0.00000  Uiso   1.00
H164   H     0.05872   0.79787   0.99946   0.00000  Uiso   1.00
H165   H     0.23630   0.74301   0.89606   0.00000  Uiso   1.00
H166   H     0.08899   0.21783   0.83783   0.00000  Uiso   1.00
H167   H     0.96647   0.95471   0.03652   0.00000  Uiso   1.00
H168   H     0.34094   0.83902   0.81848   0.00000  Uiso   1.00
H169   H     0.08417   0.73957   0.56145   0.00000  Uiso   1.00
H170   H     0.06229   0.52694   0.52316   0.00000  Uiso   1.00
H171   H     0.00418   0.87640   0.61740   0.00000  Uiso   1.00
H172   H     0.18176   0.82154   0.51400   0.00000  Uiso   1.00
H173   H     0.04472   0.28156   0.52773   0.00000  Uiso   1.00
H174   H     0.92220   0.01845   0.72642   0.00000  Uiso   1.00
H175   H     0.29667   0.90275   0.50838   0.00000  Uiso   1.00
O176   O     0.05338   0.10849   0.66413   0.00000  Uiso   1.00
O177   O     0.89265   0.07526   0.92481   0.00000  Uiso   1.00
O178   O     0.38394   0.92347   0.63876   0.00000  Uiso   1.00
N179   N     0.08158   0.26200   0.77009   0.00000  Uiso   1.00
N180   N     0.96703   0.95093   0.95586   0.00000  Uiso   1.00
N181   N     0.31712   0.84280   0.75202   0.00000  Uiso   1.00
N182   N     0.05776   0.29630   0.60323   0.00000  Uiso   1.00
N183   N     0.94321   0.98522   0.78900   0.00000  Uiso   1.00
N184   N     0.29330   0.87709   0.58516   0.00000  Uiso   1.00
