data_job_06627
_audit_creation_date              2018-12-19
_audit_creation_method            'Materials Studio'
_symmetry_space_group_name_H-M    'P1'
_symmetry_Int_Tables_number       1
_symmetry_cell_setting            triclinic
loop_
_symmetry_equiv_pos_as_xyz
  x,y,z
_cell_length_a                    21.5790
_cell_length_b                    20.3868
_cell_length_c                    21.7972
_cell_angle_alpha                 65.6673
_cell_angle_beta                  65.9065
_cell_angle_gamma                 61.9195
loop_
_atom_site_label
_atom_site_type_symbol
_atom_site_fract_x
_atom_site_fract_y
_atom_site_fract_z
_atom_site_U_iso_or_equiv
_atom_site_adp_type
_atom_site_occupancy
C1     C     0.28894   0.07601   0.61407   0.00000  Uiso   1.00
C2     C     0.20932   0.09289   0.65595   0.00000  Uiso   1.00
C3     C     0.15927   0.07584   0.64643   0.00000  Uiso   1.00
C4     C     0.08906   0.09592   0.69006   0.00000  Uiso   1.00
C5     C     0.96837   0.11670   0.74727   0.00000  Uiso   1.00
C6     C     0.29945   0.15328   0.58364   0.00000  Uiso   1.00
C7     C     0.32518   0.18702   0.51333   0.00000  Uiso   1.00
C8     C     0.33086   0.25793   0.49610   0.00000  Uiso   1.00
C9     C     0.35015   0.37245   0.44105   0.00000  Uiso   1.00
C10    C     0.33361   0.02707   0.66731   0.00000  Uiso   1.00
C11    C     0.38808   0.95469   0.66734   0.00000  Uiso   1.00
C12    C     0.42254   0.91935   0.72055   0.00000  Uiso   1.00
C13    C     0.49486   0.83791   0.79541   0.00000  Uiso   1.00
C14    C     0.25328   0.14196   0.70848   0.00000  Uiso   1.00
C15    C     0.18995   0.12871   0.70722   0.00000  Uiso   1.00
C16    C     0.11981   0.14881   0.75088   0.00000  Uiso   1.00
C17    C     0.06966   0.13180   0.74144   0.00000  Uiso   1.00
C18    C     0.28008   0.18911   0.63491   0.00000  Uiso   1.00
C19    C     0.28573   0.25998   0.61778   0.00000  Uiso   1.00
C20    C     0.31146   0.29382   0.54747   0.00000  Uiso   1.00
C21    C     0.31424   0.06289   0.71859   0.00000  Uiso   1.00
C22    C     0.34862   0.02766   0.77180   0.00000  Uiso   1.00
C23    C     0.40313   0.95524   0.77192   0.00000  Uiso   1.00
H24    H     0.30402   0.04813   0.57414   0.00000  Uiso   1.00
H25    H     0.17428   0.04813   0.60674   0.00000  Uiso   1.00
H26    H     0.34018   0.15928   0.47366   0.00000  Uiso   1.00
H27    H     0.40306   0.92699   0.62765   0.00000  Uiso   1.00
H28    H     0.02188   0.06395   0.66547   0.00000  Uiso   1.00
H29    H     0.37171   0.29830   0.38487   0.00000  Uiso   1.00
H30    H     0.50432   0.80848   0.70960   0.00000  Uiso   1.00
H31    H     0.23820   0.16985   0.74840   0.00000  Uiso   1.00
H32    H     0.10483   0.17653   0.79056   0.00000  Uiso   1.00
H33    H     0.27073   0.28768   0.65748   0.00000  Uiso   1.00
H34    H     0.33362   0.05540   0.81147   0.00000  Uiso   1.00
H35    H     0.96551   0.16817   0.81467   0.00000  Uiso   1.00
H36    H     0.31535   0.40252   0.53407   0.00000  Uiso   1.00
H37    H     0.44795   0.91270   0.85879   0.00000  Uiso   1.00
O38    O     0.90715   0.11828   0.76465   0.00000  Uiso   1.00
O39    O     0.36613   0.42573   0.39651   0.00000  Uiso   1.00
O40    O     0.54010   0.78310   0.82254   0.00000  Uiso   1.00
N41    N     0.02692   0.08755   0.69481   0.00000  Uiso   1.00
N42    N     0.35398   0.30666   0.43246   0.00000  Uiso   1.00
N43    N     0.47797   0.84873   0.73604   0.00000  Uiso   1.00
N44    N     0.99659   0.14363   0.77509   0.00000  Uiso   1.00
N45    N     0.32365   0.36274   0.51275   0.00000  Uiso   1.00
N46    N     0.44764   0.90480   0.81632   0.00000  Uiso   1.00
C47    C     0.51912   0.47682   0.99113   0.00000  Uiso   1.00
C48    C     0.56346   0.39076   0.99948   0.00000  Uiso   1.00
C49    C     0.56685   0.34683   0.96283   0.00000  Uiso   1.00
C50    C     0.61052   0.26905   0.97806   0.00000  Uiso   1.00
C51    C     0.67343   0.14037   0.98343   0.00000  Uiso   1.00
C52    C     0.46972   0.48425   0.06361   0.00000  Uiso   1.00
C53    C     0.39430   0.51893   0.08087   0.00000  Uiso   1.00
C54    C     0.35906   0.51985   0.15008   0.00000  Uiso   1.00
C55    C     0.27644   0.53636   0.25500   0.00000  Uiso   1.00
C56    C     0.57319   0.51433   0.97350   0.00000  Uiso   1.00
C57    C     0.58476   0.57431   0.91501   0.00000  Uiso   1.00
C58    C     0.63662   0.60057   0.90836   0.00000  Uiso   1.00
C59    C     0.71466   0.66378   0.87337   0.00000  Uiso   1.00
C60    C     0.59064   0.41681   0.08335   0.00000  Uiso   1.00
C61    C     0.60230   0.35817   0.04957   0.00000  Uiso   1.00
C62    C     0.64598   0.28043   0.06486   0.00000  Uiso   1.00
C63    C     0.64944   0.23639   0.02823   0.00000  Uiso   1.00
C64    C     0.50856   0.45165   0.11370   0.00000  Uiso   1.00
C65    C     0.47343   0.45253   0.18290   0.00000  Uiso   1.00
C66    C     0.39797   0.48719   0.20026   0.00000  Uiso   1.00
C67    C     0.61204   0.48173   0.02359   0.00000  Uiso   1.00
C68    C     0.66389   0.50791   0.01703   0.00000  Uiso   1.00
C69    C     0.67554   0.56791   0.95854   0.00000  Uiso   1.00
H70    H     0.48888   0.50220   0.95214   0.00000  Uiso   1.00
H71    H     0.53678   0.37208   0.92408   0.00000  Uiso   1.00
H72    H     0.36426   0.54415   0.04210   0.00000  Uiso   1.00
H73    H     0.55469   0.59952   0.87626   0.00000  Uiso   1.00
H74    H     0.60700   0.21343   0.91507   0.00000  Uiso   1.00
H75    H     0.24322   0.57628   0.16392   0.00000  Uiso   1.00
H76    H     0.64479   0.69304   0.81421   0.00000  Uiso   1.00
H77    H     0.62088   0.39143   0.12235   0.00000  Uiso   1.00
H78    H     0.67604   0.25522   0.10362   0.00000  Uiso   1.00
H79    H     0.50351   0.42730   0.22165   0.00000  Uiso   1.00
H80    H     0.69394   0.48267   0.05581   0.00000  Uiso   1.00
H81    H     0.72002   0.11858   0.06080   0.00000  Uiso   1.00
H82    H     0.35624   0.48144   0.30965   0.00000  Uiso   1.00
H83    H     0.75781   0.59820   0.95994   0.00000  Uiso   1.00
O84    O     0.69739   0.07840   0.97257   0.00000  Uiso   1.00
O85    O     0.22013   0.55446   0.29904   0.00000  Uiso   1.00
O86    O     0.74698   0.70764   0.84023   0.00000  Uiso   1.00
N87    N     0.62604   0.20980   0.95193   0.00000  Uiso   1.00
N88    N     0.28593   0.54904   0.18459   0.00000  Uiso   1.00
N89    N     0.66135   0.65821   0.85765   0.00000  Uiso   1.00
N90    N     0.68686   0.15877   0.03034   0.00000  Uiso   1.00
N91    N     0.34675   0.49800   0.26301   0.00000  Uiso   1.00
N92    N     0.72216   0.60718   0.93607   0.00000  Uiso   1.00
C93    C     0.81634   0.79186   0.32855   0.00000  Uiso   1.00
C94    C     0.84540   0.81591   0.24929   0.00000  Uiso   1.00
C95    C     0.82700   0.80390   0.20179   0.00000  Uiso   1.00
C96    C     0.85951   0.83018   0.13147   0.00000  Uiso   1.00
C97    C     0.89719   0.86187   0.01174   0.00000  Uiso   1.00
C98    C     0.88307   0.74095   0.35694   0.00000  Uiso   1.00
C99    C     0.89634   0.66591   0.39996   0.00000  Uiso   1.00
C100   C     0.96056   0.62909   0.42028   0.00000  Uiso   1.00
C101   C     0.05670   0.54441   0.46772   0.00000  Uiso   1.00
C102   C     0.78253   0.86534   0.35173   0.00000  Uiso   1.00
C103   C     0.71126   0.89488   0.39039   0.00000  Uiso   1.00
C104   C     0.69084   0.96278   0.40633   0.00000  Uiso   1.00
C105   C     0.63088   0.07123   0.44568   0.00000  Uiso   1.00
C106   C     0.90680   0.85989   0.28814   0.00000  Uiso   1.00
C107   C     0.89454   0.85286   0.22734   0.00000  Uiso   1.00
C108   C     0.92708   0.87916   0.15708   0.00000  Uiso   1.00
C109   C     0.90873   0.86720   0.10948   0.00000  Uiso   1.00
C110   C     0.93221   0.77789   0.33500   0.00000  Uiso   1.00
C111   C     0.99642   0.74117   0.35526   0.00000  Uiso   1.00
C112   C     0.00978   0.66610   0.39829   0.00000  Uiso   1.00
C113   C     0.83167   0.90229   0.32978   0.00000  Uiso   1.00
C114   C     0.81135   0.97014   0.34568   0.00000  Uiso   1.00
C115   C     0.74006   0.99979   0.38434   0.00000  Uiso   1.00
H116   H     0.77809   0.76310   0.34564   0.00000  Uiso   1.00
H117   H     0.78897   0.77530   0.21879   0.00000  Uiso   1.00
H118   H     0.85830   0.63734   0.41694   0.00000  Uiso   1.00
H119   H     0.67326   0.86628   0.40736   0.00000  Uiso   1.00
H120   H     0.82274   0.80511   0.06848   0.00000  Uiso   1.00
H121   H     0.96890   0.51421   0.48631   0.00000  Uiso   1.00
H122   H     0.57870   0.99697   0.46611   0.00000  Uiso   1.00
H123   H     0.94505   0.88865   0.27106   0.00000  Uiso   1.00
H124   H     0.96510   0.90775   0.14011   0.00000  Uiso   1.00
H125   H     0.03443   0.76978   0.33826   0.00000  Uiso   1.00
H126   H     0.84939   0.99872   0.32868   0.00000  Uiso   1.00
H127   H     0.96569   0.91260   0.00462   0.00000  Uiso   1.00
H128   H     0.11186   0.62170   0.42245   0.00000  Uiso   1.00
H129   H     0.72166   0.10446   0.40225   0.00000  Uiso   1.00
O130   O     0.90441   0.86913   0.95176   0.00000  Uiso   1.00
O131   O     0.09616   0.48749   0.49994   0.00000  Uiso   1.00
O132   O     0.58423   0.12086   0.47344   0.00000  Uiso   1.00
N133   N     0.85362   0.82780   0.07142   0.00000  Uiso   1.00
N134   N     0.99028   0.55582   0.46206   0.00000  Uiso   1.00
N135   N     0.62548   0.00715   0.44319   0.00000  Uiso   1.00
N136   N     0.93054   0.88564   0.03706   0.00000  Uiso   1.00
N137   N     0.06720   0.61367   0.42769   0.00000  Uiso   1.00
N138   N     0.70240   0.06499   0.40883   0.00000  Uiso   1.00
C139   C     0.75203   0.28448   0.44639   0.00000  Uiso   1.00
C140   C     0.67241   0.32774   0.47885   0.00000  Uiso   1.00
C141   C     0.61259   0.33169   0.46611   0.00000  Uiso   1.00
C142   C     0.54423   0.37417   0.50094   0.00000  Uiso   1.00
C143   C     0.42184   0.43565   0.54438   0.00000  Uiso   1.00
C144   C     0.78479   0.22851   0.50735   0.00000  Uiso   1.00
C145   C     0.81948   0.14905   0.51857   0.00000  Uiso   1.00
C146   C     0.84573   0.10801   0.57740   0.00000  Uiso   1.00
C147   C     0.89787   0.01545   0.66506   0.00000  Uiso   1.00
C148   C     0.78857   0.34407   0.41091   0.00000  Uiso   1.00
C149   C     0.82645   0.36174   0.34104   0.00000  Uiso   1.00
C150   C     0.85589   0.41798   0.31868   0.00000  Uiso   1.00
C151   C     0.91390   0.50483   0.25660   0.00000  Uiso   1.00
C152   C     0.73698   0.35289   0.53092   0.00000  Uiso   1.00
C153   C     0.66423   0.36489   0.52476   0.00000  Uiso   1.00
C154   C     0.59594   0.40738   0.55962   0.00000  Uiso   1.00
C155   C     0.53603   0.41140   0.54693   0.00000  Uiso   1.00
C156   C     0.77662   0.26567   0.55326   0.00000  Uiso   1.00
C157   C     0.80283   0.22474   0.61208   0.00000  Uiso   1.00
C158   C     0.83754   0.14523   0.62339   0.00000  Uiso   1.00
C159   C     0.78039   0.38123   0.45682   0.00000  Uiso   1.00
C160   C     0.80979   0.43744   0.43456   0.00000  Uiso   1.00
C161   C     0.84770   0.45520   0.36467   0.00000  Uiso   1.00
H162   H     0.75840   0.25554   0.41066   0.00000  Uiso   1.00
H163   H     0.61894   0.30292   0.43058   0.00000  Uiso   1.00
H164   H     0.82580   0.12031   0.48303   0.00000  Uiso   1.00
H165   H     0.83277   0.33297   0.30553   0.00000  Uiso   1.00
H166   H     0.46073   0.37180   0.47294   0.00000  Uiso   1.00
H167   H     0.89692   0.98676   0.58352   0.00000  Uiso   1.00
H168   H     0.91161   0.43521   0.20922   0.00000  Uiso   1.00
H169   H     0.73061   0.38182   0.56666   0.00000  Uiso   1.00
H170   H     0.58963   0.43613   0.59515   0.00000  Uiso   1.00
H171   H     0.79649   0.25352   0.64760   0.00000  Uiso   1.00
H172   H     0.80345   0.46618   0.47010   0.00000  Uiso   1.00
H173   H     0.43693   0.47992   0.60651   0.00000  Uiso   1.00
H174   H     0.87314   0.09488   0.71708   0.00000  Uiso   1.00
H175   H     0.88782   0.54333   0.34280   0.00000  Uiso   1.00
O176   O     0.35659   0.45929   0.55566   0.00000  Uiso   1.00
O177   O     0.92888   0.95413   0.70073   0.00000  Uiso   1.00
O178   O     0.94814   0.54248   0.20967   0.00000  Uiso   1.00
N179   N     0.47447   0.38981   0.50045   0.00000  Uiso   1.00
N180   N     0.88228   0.02981   0.60384   0.00000  Uiso   1.00
N181   N     0.89603   0.44906   0.25392   0.00000  Uiso   1.00
N182   N     0.46167   0.44799   0.57233   0.00000  Uiso   1.00
N183   N     0.86948   0.08799   0.67572   0.00000  Uiso   1.00
N184   N     0.88323   0.50724   0.32579   0.00000  Uiso   1.00
C185   C     0.04017   0.55132   0.80290   0.00000  Uiso   1.00
C186   C     0.08424   0.57320   0.72747   0.00000  Uiso   1.00
C187   C     0.08899   0.55154   0.67265   0.00000  Uiso   1.00
C188   C     0.13214   0.57748   0.60752   0.00000  Uiso   1.00
C189   C     0.19491   0.60449   0.49188   0.00000  Uiso   1.00
C190   C     0.98897   0.62728   0.82156   0.00000  Uiso   1.00
C191   C     0.91361   0.65108   0.84586   0.00000  Uiso   1.00
C192   C     0.87657   0.72254   0.85995   0.00000  Uiso   1.00
C193   C     0.79143   0.83349   0.89043   0.00000  Uiso   1.00
C194   C     0.09402   0.51146   0.84723   0.00000  Uiso   1.00
C195   C     0.10698   0.43788   0.89314   0.00000  Uiso   1.00
C196   C     0.15837   0.41184   0.92886   0.00000  Uiso   1.00
C197   C     0.23634   0.34295   0.99921   0.00000  Uiso   1.00
C198   C     0.10837   0.63591   0.78474   0.00000  Uiso   1.00
C199   C     0.12129   0.61915   0.71760   0.00000  Uiso   1.00
C200   C     0.16445   0.64512   0.65254   0.00000  Uiso   1.00
C201   C     0.16926   0.62350   0.59764   0.00000  Uiso   1.00
C202   C     0.02601   0.67323   0.81169   0.00000  Uiso   1.00
C203   C     0.98907   0.74467   0.82575   0.00000  Uiso   1.00
C204   C     0.91368   0.76857   0.85006   0.00000  Uiso   1.00
C205   C     0.13107   0.55740   0.83737   0.00000  Uiso   1.00
C206   C     0.18244   0.53147   0.87303   0.00000  Uiso   1.00
C207   C     0.19548   0.45786   0.91897   0.00000  Uiso   1.00
H208   H     0.01132   0.51556   0.81059   0.00000  Uiso   1.00
H209   H     0.06030   0.51599   0.68030   0.00000  Uiso   1.00
H210   H     0.88496   0.61551   0.85349   0.00000  Uiso   1.00
H211   H     0.07830   0.40234   0.90076   0.00000  Uiso   1.00
H212   H     0.13092   0.53675   0.53150   0.00000  Uiso   1.00
H213   H     0.76120   0.74659   0.89670   0.00000  Uiso   1.00
H214   H     0.16889   0.29709   0.99638   0.00000  Uiso   1.00
H215   H     0.13721   0.67168   0.77705   0.00000  Uiso   1.00
H216   H     0.19311   0.68068   0.64492   0.00000  Uiso   1.00
H217   H     0.01776   0.78020   0.81811   0.00000  Uiso   1.00
H218   H     0.21110   0.56704   0.86538   0.00000  Uiso   1.00
H219   H     0.23871   0.67042   0.50278   0.00000  Uiso   1.00
H220   H     0.86899   0.88026   0.86799   0.00000  Uiso   1.00
H221   H     0.27668   0.43076   0.96766   0.00000  Uiso   1.00
O222   O     0.21930   0.60671   0.43082   0.00000  Uiso   1.00
O223   O     0.73424   0.88200   0.90997   0.00000  Uiso   1.00
O224   O     0.26912   0.29227   0.04073   0.00000  Uiso   1.00
N225   N     0.14863   0.56696   0.54288   0.00000  Uiso   1.00
N226   N     0.80296   0.76315   0.88431   0.00000  Uiso   1.00
N227   N     0.18411   0.34292   0.97751   0.00000  Uiso   1.00
N228   N     0.20663   0.63889   0.52743   0.00000  Uiso   1.00
N229   N     0.86096   0.83508   0.86886   0.00000  Uiso   1.00
N230   N     0.24211   0.41484   0.96206   0.00000  Uiso   1.00
C231   C     0.36506   0.92374   0.14462   0.00000  Uiso   1.00
C232   C     0.40158   0.83946   0.18160   0.00000  Uiso   1.00
C233   C     0.39277   0.77660   0.18092   0.00000  Uiso   1.00
C234   C     0.43093   0.70415   0.21800   0.00000  Uiso   1.00
C235   C     0.48076   0.57468   0.26986   0.00000  Uiso   1.00
C236   C     0.42662   0.95360   0.09721   0.00000  Uiso   1.00
C237   C     0.43887   0.98672   0.02558   0.00000  Uiso   1.00
C238   C     0.49811   0.01036   0.99162   0.00000  Uiso   1.00
C239   C     0.58679   0.05814   0.91246   0.00000  Uiso   1.00
C240   C     0.32417   0.96657   0.20100   0.00000  Uiso   1.00
C241   C     0.25026   0.01062   0.21662   0.00000  Uiso   1.00
C242   C     0.22324   0.04520   0.27004   0.00000  Uiso   1.00
C243   C     0.15284   0.11313   0.35203   0.00000  Uiso   1.00
C244   C     0.44849   0.90685   0.21169   0.00000  Uiso   1.00
C245   C     0.44690   0.83029   0.21803   0.00000  Uiso   1.00
C246   C     0.48508   0.75791   0.25513   0.00000  Uiso   1.00
C247   C     0.47632   0.69496   0.25450   0.00000  Uiso   1.00
C248   C     0.47194   0.94443   0.13364   0.00000  Uiso   1.00
C249   C     0.53117   0.96803   0.09978   0.00000  Uiso   1.00
C250   C     0.54350   0.00117   0.02811   0.00000  Uiso   1.00
C251   C     0.36948   0.95740   0.23743   0.00000  Uiso   1.00
C252   C     0.34257   0.99193   0.29083   0.00000  Uiso   1.00
C253   C     0.26864   0.03601   0.30653   0.00000  Uiso   1.00
H254   H     0.32978   0.93088   0.11625   0.00000  Uiso   1.00
H255   H     0.35770   0.78372   0.15272   0.00000  Uiso   1.00
H256   H     0.40378   0.99382   0.99740   0.00000  Uiso   1.00
H257   H     0.21521   0.01771   0.18842   0.00000  Uiso   1.00
H258   H     0.40865   0.61653   0.20919   0.00000  Uiso   1.00
H259   H     0.50581   0.05953   0.88170   0.00000  Uiso   1.00
H260   H     0.10817   0.10992   0.28450   0.00000  Uiso   1.00
H261   H     0.48378   0.89970   0.24005   0.00000  Uiso   1.00
H262   H     0.52014   0.75083   0.28331   0.00000  Uiso   1.00
H263   H     0.56623   0.96092   0.12799   0.00000  Uiso   1.00
H264   H     0.37765   0.98482   0.31901   0.00000  Uiso   1.00
H265   H     0.54050   0.58983   0.31518   0.00000  Uiso   1.00
H266   H     0.63766   0.03284   0.98769   0.00000  Uiso   1.00
H267   H     0.24001   0.08322   0.39049   0.00000  Uiso   1.00
O268   O     0.49574   0.50580   0.28839   0.00000  Uiso   1.00
O269   O     0.62320   0.08703   0.85874   0.00000  Uiso   1.00
O270   O     0.10150   0.15313   0.38720   0.00000  Uiso   1.00
N271   N     0.43468   0.63067   0.22821   0.00000  Uiso   1.00
N272   N     0.52553   0.04485   0.92202   0.00000  Uiso   1.00
N273   N     0.15376   0.09198   0.29859   0.00000  Uiso   1.00
N274   N     0.50563   0.61631   0.28524   0.00000  Uiso   1.00
N275   N     0.59647   0.03049   0.97906   0.00000  Uiso   1.00
N276   N     0.22471   0.07761   0.35563   0.00000  Uiso   1.00
C277   C     0.54090   0.16784   0.27201   0.00000  Uiso   1.00
C278   C     0.62348   0.13891   0.24230   0.00000  Uiso   1.00
C279   C     0.67099   0.16124   0.24989   0.00000  Uiso   1.00
C280   C     0.74461   0.12812   0.21878   0.00000  Uiso   1.00
C281   C     0.86901   0.09131   0.17836   0.00000  Uiso   1.00
C282   C     0.52185   0.09603   0.31667   0.00000  Uiso   1.00
C283   C     0.48391   0.08232   0.38679   0.00000  Uiso   1.00
C284   C     0.47198   0.01311   0.41829   0.00000  Uiso   1.00
C285   C     0.43856   0.90975   0.49332   0.00000  Uiso   1.00
C286   C     0.50909   0.20106   0.20995   0.00000  Uiso   1.00
C287   C     0.46040   0.27565   0.19035   0.00000  Uiso   1.00
C288   C     0.43771   0.29487   0.13200   0.00000  Uiso   1.00
C289   C     0.38446   0.35458   0.04133   0.00000  Uiso   1.00
C290   C     0.58717   0.06931   0.20326   0.00000  Uiso   1.00
C291   C     0.64860   0.08539   0.20496   0.00000  Uiso   1.00
C292   C     0.72218   0.05223   0.17383   0.00000  Uiso   1.00
C293   C     0.76979   0.07451   0.18137   0.00000  Uiso   1.00
C294   C     0.54698   0.04251   0.27934   0.00000  Uiso   1.00
C295   C     0.53510   0.97331   0.31073   0.00000  Uiso   1.00
C296   C     0.49716   0.95950   0.38088   0.00000  Uiso   1.00
C297   C     0.53422   0.14754   0.17261   0.00000  Uiso   1.00
C298   C     0.51159   0.16664   0.11429   0.00000  Uiso   1.00
C299   C     0.46288   0.24125   0.09460   0.00000  Uiso   1.00
H300   H     0.52134   0.20950   0.30108   0.00000  Uiso   1.00
H301   H     0.65152   0.20265   0.27879   0.00000  Uiso   1.00
H302   H     0.46447   0.12375   0.41567   0.00000  Uiso   1.00
H303   H     0.44096   0.31705   0.21925   0.00000  Uiso   1.00
H304   H     0.80693   0.17144   0.23764   0.00000  Uiso   1.00
H305   H     0.41251   0.00508   0.52624   0.00000  Uiso   1.00
H306   H     0.36294   0.41269   0.11207   0.00000  Uiso   1.00
H307   H     0.60673   0.02764   0.17420   0.00000  Uiso   1.00
H308   H     0.74161   0.01082   0.14494   0.00000  Uiso   1.00
H309   H     0.55455   0.93191   0.28182   0.00000  Uiso   1.00
H310   H     0.53105   0.12521   0.08541   0.00000  Uiso   1.00
H311   H     0.88005   0.01573   0.12900   0.00000  Uiso   1.00
H312   H     0.48562   0.84937   0.41761   0.00000  Uiso   1.00
H313   H     0.43606   0.25698   0.00343   0.00000  Uiso   1.00
O314   O     0.93068   0.08578   0.16639   0.00000  Uiso   1.00
O315   O     0.41319   0.86753   0.54502   0.00000  Uiso   1.00
O316   O     0.34816   0.40231   0.00163   0.00000  Uiso   1.00
N317   N     0.80563   0.13712   0.21607   0.00000  Uiso   1.00
N318   N     0.43687   0.98157   0.48591   0.00000  Uiso   1.00
N319   N     0.39052   0.36265   0.09870   0.00000  Uiso   1.00
N320   N     0.84498   0.05333   0.15762   0.00000  Uiso   1.00
N321   N     0.47622   0.89779   0.42745   0.00000  Uiso   1.00
N322   N     0.42986   0.27887   0.04024   0.00000  Uiso   1.00
C323   C     0.20135   0.80732   0.05914   0.00000  Uiso   1.00
C324   C     0.14851   0.88971   0.03765   0.00000  Uiso   1.00
C325   C     0.14052   0.95304   0.05351   0.00000  Uiso   1.00
C326   C     0.08920   0.02351   0.02905   0.00000  Uiso   1.00
C327   C     0.01353   0.15040   0.00158   0.00000  Uiso   1.00
C328   C     0.24781   0.78378   0.99163   0.00000  Uiso   1.00
C329   C     0.32332   0.75804   0.96880   0.00000  Uiso   1.00
C330   C     0.35560   0.73934   0.90560   0.00000  Uiso   1.00
C331   C     0.43411   0.70173   0.80669   0.00000  Uiso   1.00
C332   C     0.15503   0.75707   0.09904   0.00000  Uiso   1.00
C333   C     0.15254   0.70885   0.16651   0.00000  Uiso   1.00
C334   C     0.10672   0.66764   0.19373   0.00000  Uiso   1.00
C335   C     0.04116   0.58856   0.26160   0.00000  Uiso   1.00
C336   C     0.12443   0.81986   0.98750   0.00000  Uiso   1.00
C337   C     0.10673   0.89651   0.99874   0.00000  Uiso   1.00
C338   C     0.05541   0.96691   0.97425   0.00000  Uiso   1.00
C339   C     0.04734   0.03033   0.99007   0.00000  Uiso   1.00
C340   C     0.20603   0.79059   0.95271   0.00000  Uiso   1.00
C341   C     0.23821   0.77191   0.88954   0.00000  Uiso   1.00
C342   C     0.31375   0.74616   0.86661   0.00000  Uiso   1.00
C343   C     0.11325   0.76388   0.06012   0.00000  Uiso   1.00
C344   C     0.06743   0.72273   0.08725   0.00000  Uiso   1.00
C345   C     0.06486   0.67446   0.15475   0.00000  Uiso   1.00
H346   H     0.23389   0.80202   0.08943   0.00000  Uiso   1.00
H347   H     0.17287   0.94775   0.08362   0.00000  Uiso   1.00
H348   H     0.35564   0.75277   0.99893   0.00000  Uiso   1.00
H349   H     0.18488   0.70360   0.19661   0.00000  Uiso   1.00
H350   H     0.08681   0.11232   0.06000   0.00000  Uiso   1.00
H351   H     0.47220   0.70119   0.88142   0.00000  Uiso   1.00
H352   H     0.11212   0.59748   0.29827   0.00000  Uiso   1.00
H353   H     0.09190   0.82516   0.95720   0.00000  Uiso   1.00
H354   H     0.02308   0.97216   0.94414   0.00000  Uiso   1.00
H355   H     0.20586   0.77719   0.85944   0.00000  Uiso   1.00
H356   H     0.03510   0.72801   0.05712   0.00000  Uiso   1.00
H357   H     0.96524   0.13213   0.94679   0.00000  Uiso   1.00
H358   H     0.35063   0.72100   0.76821   0.00000  Uiso   1.00
H359   H     0.99055   0.61730   0.18506   0.00000  Uiso   1.00
O360   O     0.98333   0.21852   0.99717   0.00000  Uiso   1.00
O361   O     0.48895   0.67911   0.76289   0.00000  Uiso   1.00
O362   O     0.01653   0.54306   0.30978   0.00000  Uiso   1.00
N363   N     0.06763   0.09681   0.03516   0.00000  Uiso   1.00
N364   N     0.42795   0.71243   0.86820   0.00000  Uiso   1.00
N365   N     0.09132   0.61546   0.25791   0.00000  Uiso   1.00
N366   N     0.00221   0.10747   0.97424   0.00000  Uiso   1.00
N367   N     0.36253   0.72310   0.80728   0.00000  Uiso   1.00
N368   N     0.02590   0.62613   0.19699   0.00000  Uiso   1.00
C369   C     0.94259   0.40452   0.67005   0.00000  Uiso   1.00
C370   C     0.90783   0.35574   0.73796   0.00000  Uiso   1.00
C371   C     0.91557   0.33931   0.80346   0.00000  Uiso   1.00
C372   C     0.87937   0.29364   0.85906   0.00000  Uiso   1.00
C373   C     0.83183   0.22222   0.96599   0.00000  Uiso   1.00
C374   C     0.88000   0.46886   0.63981   0.00000  Uiso   1.00
C375   C     0.86434   0.54754   0.62278   0.00000  Uiso   1.00
C376   C     0.80472   0.59709   0.59575   0.00000  Uiso   1.00
C377   C     0.71400   0.70129   0.55025   0.00000  Uiso   1.00
C378   C     0.98644   0.35342   0.62023   0.00000  Uiso   1.00
C379   C     0.06028   0.33505   0.58671   0.00000  Uiso   1.00
C380   C     0.09027   0.28743   0.54318   0.00000  Uiso   1.00
C381   C     0.16481   0.21238   0.46727   0.00000  Uiso   1.00
C382   C     0.86455   0.35264   0.65233   0.00000  Uiso   1.00
C383   C     0.86545   0.32756   0.72834   0.00000  Uiso   1.00
C384   C     0.82923   0.28191   0.78386   0.00000  Uiso   1.00
C385   C     0.83691   0.26541   0.84943   0.00000  Uiso   1.00
C386   C     0.83761   0.44068   0.63019   0.00000  Uiso   1.00
C387   C     0.77800   0.49014   0.60318   0.00000  Uiso   1.00
C388   C     0.76226   0.56887   0.58611   0.00000  Uiso   1.00
C389   C     0.94406   0.32524   0.61061   0.00000  Uiso   1.00
C390   C     0.97394   0.27765   0.56711   0.00000  Uiso   1.00
C391   C     0.04781   0.25920   0.53354   0.00000  Uiso   1.00
H392   H     0.97559   0.42646   0.67754   0.00000  Uiso   1.00
H393   H     0.94837   0.36113   0.81088   0.00000  Uiso   1.00
H394   H     0.89716   0.56932   0.63022   0.00000  Uiso   1.00
H395   H     0.09306   0.35686   0.59417   0.00000  Uiso   1.00
H396   H     0.89949   0.27630   0.95448   0.00000  Uiso   1.00
H397   H     0.79152   0.71528   0.57353   0.00000  Uiso   1.00
H398   H     0.20462   0.26727   0.49749   0.00000  Uiso   1.00
H399   H     0.83155   0.33071   0.64484   0.00000  Uiso   1.00
H400   H     0.79643   0.26011   0.77640   0.00000  Uiso   1.00
H401   H     0.74522   0.46831   0.59574   0.00000  Uiso   1.00
H402   H     0.94112   0.25585   0.55968   0.00000  Uiso   1.00
H403   H     0.77616   0.19431   0.92649   0.00000  Uiso   1.00
H404   H     0.66819   0.63330   0.54554   0.00000  Uiso   1.00
H405   H     0.08130   0.18528   0.46950   0.00000  Uiso   1.00
O406   O     0.81730   0.19061   0.02762   0.00000  Uiso   1.00
O407   O     0.67566   0.76655   0.52782   0.00000  Uiso   1.00
O408   O     0.21764   0.17876   0.42806   0.00000  Uiso   1.00
N409   N     0.87529   0.26667   0.92984   0.00000  Uiso   1.00
N410   N     0.77434   0.67710   0.57368   0.00000  Uiso   1.00
N411   N     0.16056   0.25827   0.50258   0.00000  Uiso   1.00
N412   N     0.80893   0.22256   0.91478   0.00000  Uiso   1.00
N413   N     0.70798   0.63298   0.55862   0.00000  Uiso   1.00
N414   N     0.09420   0.21415   0.48752   0.00000  Uiso   1.00
C415   C     0.06390   0.92151   0.50102   0.00000  Uiso   1.00
C416   C     0.14604   0.88401   0.47289   0.00000  Uiso   1.00
C417   C     0.19900   0.88555   0.49231   0.00000  Uiso   1.00
C418   C     0.27117   0.84779   0.46055   0.00000  Uiso   1.00
C419   C     0.39590   0.79537   0.42436   0.00000  Uiso   1.00
C420   C     0.03504   0.97567   0.43741   0.00000  Uiso   1.00
C421   C     0.99465   0.05428   0.42701   0.00000  Uiso   1.00
C422   C     0.97337   0.09368   0.36538   0.00000  Uiso   1.00
C423   C     0.92572   0.18354   0.27414   0.00000  Uiso   1.00
C424   C     0.03393   0.85702   0.53041   0.00000  Uiso   1.00
C425   C     0.99259   0.83588   0.59821   0.00000  Uiso   1.00
C426   C     0.97036   0.77539   0.61488   0.00000  Uiso   1.00
C427   C     0.92099   0.68104   0.66804   0.00000  Uiso   1.00
C428   C     0.09790   0.85171   0.41006   0.00000  Uiso   1.00
C429   C     0.16451   0.84610   0.42348   0.00000  Uiso   1.00
C430   C     0.23662   0.80833   0.39168   0.00000  Uiso   1.00
C431   C     0.28967   0.80981   0.41106   0.00000  Uiso   1.00
C432   C     0.05350   0.93776   0.38801   0.00000  Uiso   1.00
C433   C     0.03227   0.97705   0.32638   0.00000  Uiso   1.00
C434   C     0.99187   0.05570   0.31589   0.00000  Uiso   1.00
C435   C     0.05240   0.81911   0.48101   0.00000  Uiso   1.00
C436   C     0.03022   0.75865   0.49758   0.00000  Uiso   1.00
C437   C     0.98887   0.73742   0.56539   0.00000  Uiso   1.00
H438   H     0.04952   0.95103   0.53947   0.00000  Uiso   1.00
H439   H     0.18468   0.91490   0.53054   0.00000  Uiso   1.00
H440   H     0.98036   0.08360   0.46525   0.00000  Uiso   1.00
H441   H     0.97831   0.86523   0.63643   0.00000  Uiso   1.00
H442   H     0.34268   0.85816   0.49883   0.00000  Uiso   1.00
H443   H     0.91184   0.21385   0.36118   0.00000  Uiso   1.00
H444   H     0.90751   0.75338   0.72213   0.00000  Uiso   1.00
H445   H     0.11228   0.82219   0.37160   0.00000  Uiso   1.00
H446   H     0.25090   0.77899   0.35346   0.00000  Uiso   1.00
H447   H     0.04657   0.94769   0.28817   0.00000  Uiso   1.00
H448   H     0.04452   0.72933   0.45934   0.00000  Uiso   1.00
H449   H     0.39642   0.74785   0.35510   0.00000  Uiso   1.00
H450   H     0.96558   0.10355   0.21745   0.00000  Uiso   1.00
H451   H     0.96125   0.64308   0.57840   0.00000  Uiso   1.00
O452   O     0.45960   0.77693   0.41804   0.00000  Uiso   1.00
O453   O     0.89434   0.24359   0.23746   0.00000  Uiso   1.00
O454   O     0.88867   0.63946   0.71102   0.00000  Uiso   1.00
N455   N     0.33631   0.83811   0.46751   0.00000  Uiso   1.00
N456   N     0.93350   0.17067   0.33881   0.00000  Uiso   1.00
N457   N     0.92944   0.74018   0.67626   0.00000  Uiso   1.00
N458   N     0.36522   0.77875   0.39017   0.00000  Uiso   1.00
N459   N     0.96242   0.11131   0.26147   0.00000  Uiso   1.00
N460   N     0.95836   0.68083   0.59892   0.00000  Uiso   1.00
C461   C     0.76646   0.62848   0.13931   0.00000  Uiso   1.00
C462   C     0.73173   0.60939   0.21791   0.00000  Uiso   1.00
C463   C     0.73519   0.63664   0.26476   0.00000  Uiso   1.00
C464   C     0.69983   0.61244   0.33454   0.00000  Uiso   1.00
C465   C     0.65163   0.59031   0.45324   0.00000  Uiso   1.00
C466   C     0.81567   0.55113   0.12270   0.00000  Uiso   1.00
C467   C     0.88970   0.52941   0.08948   0.00000  Uiso   1.00
C468   C     0.92500   0.45617   0.07911   0.00000  Uiso   1.00
C469   C     0.00710   0.34363   0.04994   0.00000  Uiso   1.00
C470   C     0.70476   0.66225   0.10515   0.00000  Uiso   1.00
C471   C     0.68555   0.73395   0.05717   0.00000  Uiso   1.00
C472   C     0.62748   0.75425   0.03201   0.00000  Uiso   1.00
C473   C     0.53738   0.81424   0.97559   0.00000  Uiso   1.00
C474   C     0.69753   0.53704   0.17992   0.00000  Uiso   1.00
C475   C     0.69429   0.55972   0.23997   0.00000  Uiso   1.00
C476   C     0.65891   0.53547   0.30970   0.00000  Uiso   1.00
C477   C     0.66232   0.56268   0.35665   0.00000  Uiso   1.00
C478   C     0.77823   0.50146   0.14476   0.00000  Uiso   1.00
C479   C     0.81342   0.42824   0.13442   0.00000  Uiso   1.00
C480   C     0.88749   0.40641   0.10121   0.00000  Uiso   1.00
C481   C     0.66731   0.61258   0.12721   0.00000  Uiso   1.00
C482   C     0.60927   0.63278   0.10211   0.00000  Uiso   1.00
C483   C     0.58997   0.70449   0.05411   0.00000  Uiso   1.00
H484   H     0.79562   0.66715   0.12213   0.00000  Uiso   1.00
H485   H     0.76418   0.67507   0.24767   0.00000  Uiso   1.00
H486   H     0.91866   0.56786   0.07241   0.00000  Uiso   1.00
H487   H     0.71454   0.77237   0.04011   0.00000  Uiso   1.00
H488   H     0.71283   0.66193   0.39658   0.00000  Uiso   1.00
H489   H     0.03855   0.43589   0.02702   0.00000  Uiso   1.00
H490   H     0.60812   0.86713   0.95890   0.00000  Uiso   1.00
H491   H     0.66837   0.49836   0.19710   0.00000  Uiso   1.00
H492   H     0.62994   0.49703   0.32676   0.00000  Uiso   1.00
H493   H     0.78443   0.38982   0.15150   0.00000  Uiso   1.00
H494   H     0.58031   0.59433   0.11920   0.00000  Uiso   1.00
H495   H     0.60388   0.51742   0.46078   0.00000  Uiso   1.00
H496   H     0.92961   0.29138   0.09121   0.00000  Uiso   1.00
H497   H     0.49918   0.72262   0.02310   0.00000  Uiso   1.00
O498   O     0.63539   0.59183   0.51262   0.00000  Uiso   1.00
O499   O     0.06273   0.29527   0.02776   0.00000  Uiso   1.00
O500   O     0.49802   0.86105   0.93839   0.00000  Uiso   1.00
N501   N     0.69245   0.62812   0.39390   0.00000  Uiso   1.00
N502   N     0.99699   0.41677   0.04839   0.00000  Uiso   1.00
N503   N     0.59458   0.81994   0.98469   0.00000  Uiso   1.00
N504   N     0.63382   0.55036   0.42844   0.00000  Uiso   1.00
N505   N     0.93836   0.33902   0.08293   0.00000  Uiso   1.00
N506   N     0.53596   0.74218   0.01923   0.00000  Uiso   1.00
C507   C     0.44414   0.27164   0.81590   0.00000  Uiso   1.00
C508   C     0.40900   0.35901   0.78857   0.00000  Uiso   1.00
C509   C     0.41934   0.41394   0.80140   0.00000  Uiso   1.00
C510   C     0.38227   0.49097   0.77169   0.00000  Uiso   1.00
C511   C     0.33465   0.62341   0.73553   0.00000  Uiso   1.00
C512   C     0.38153   0.24193   0.85563   0.00000  Uiso   1.00
C513   C     0.36877   0.19840   0.92483   0.00000  Uiso   1.00
C514   C     0.30857   0.17686   0.95156   0.00000  Uiso   1.00
C515   C     0.21832   0.12747   0.01949   0.00000  Uiso   1.00
C516   C     0.48417   0.24079   0.75173   0.00000  Uiso   1.00
C517   C     0.55772   0.19630   0.73357   0.00000  Uiso   1.00
C518   C     0.58395   0.17379   0.67284   0.00000  Uiso   1.00
C519   C     0.65307   0.12264   0.57945   0.00000  Uiso   1.00
C520   C     0.35993   0.31076   0.74034   0.00000  Uiso   1.00
C521   C     0.36326   0.38026   0.74753   0.00000  Uiso   1.00
C522   C     0.32617   0.45723   0.71780   0.00000  Uiso   1.00
C523   C     0.33645   0.51226   0.73057   0.00000  Uiso   1.00
C524   C     0.33579   0.26318   0.81459   0.00000  Uiso   1.00
C525   C     0.27560   0.24169   0.84123   0.00000  Uiso   1.00
C526   C     0.26275   0.19815   0.91045   0.00000  Uiso   1.00
C527   C     0.43844   0.26205   0.71069   0.00000  Uiso   1.00
C528   C     0.46455   0.23959   0.64997   0.00000  Uiso   1.00
C529   C     0.53813   0.19507   0.63173   0.00000  Uiso   1.00
H530   H     0.47975   0.25509   0.84786   0.00000  Uiso   1.00
H531   H     0.45474   0.39747   0.83317   0.00000  Uiso   1.00
H532   H     0.40418   0.18196   0.95657   0.00000  Uiso   1.00
H533   H     0.59310   0.17987   0.76535   0.00000  Uiso   1.00
H534   H     0.40682   0.56470   0.79880   0.00000  Uiso   1.00
H535   H     0.30023   0.11026   0.05900   0.00000  Uiso   1.00
H536   H     0.69861   0.10583   0.65577   0.00000  Uiso   1.00
H537   H     0.32431   0.32731   0.70839   0.00000  Uiso   1.00
H538   H     0.29078   0.47366   0.68604   0.00000  Uiso   1.00
H539   H     0.24022   0.25814   0.80945   0.00000  Uiso   1.00
H540   H     0.42914   0.25605   0.61823   0.00000  Uiso   1.00
H541   H     0.27374   0.62653   0.67939   0.00000  Uiso   1.00
H542   H     0.16715   0.17209   0.93959   0.00000  Uiso   1.00
H543   H     0.56553   0.16766   0.53636   0.00000  Uiso   1.00
O544   O     0.32100   0.69058   0.72693   0.00000  Uiso   1.00
O545   O     0.18117   0.09437   0.06830   0.00000  Uiso   1.00
O546   O     0.70383   0.08856   0.53927   0.00000  Uiso   1.00
N547   N     0.38011   0.55917   0.77375   0.00000  Uiso   1.00
N548   N     0.28045   0.13430   0.01703   0.00000  Uiso   1.00
N549   N     0.65290   0.13015   0.64005   0.00000  Uiso   1.00
N550   N     0.30850   0.59244   0.70950   0.00000  Uiso   1.00
N551   N     0.20884   0.16758   0.95277   0.00000  Uiso   1.00
N552   N     0.58129   0.16342   0.57580   0.00000  Uiso   1.00
