data_job_05178
_audit_creation_date              2018-12-19
_audit_creation_method            'Materials Studio'
_symmetry_space_group_name_H-M    'P1'
_symmetry_Int_Tables_number       1
_symmetry_cell_setting            triclinic
loop_
_symmetry_equiv_pos_as_xyz
  x,y,z
_cell_length_a                    9.4972
_cell_length_b                    9.4972
_cell_length_c                    80.9053
_cell_angle_alpha                 90.0000
_cell_angle_beta                  90.0000
_cell_angle_gamma                 90.0000
loop_
_atom_site_label
_atom_site_type_symbol
_atom_site_fract_x
_atom_site_fract_y
_atom_site_fract_z
_atom_site_U_iso_or_equiv
_atom_site_adp_type
_atom_site_occupancy
C1     C     0.96574   0.91328   0.96476   0.00000  Uiso   1.00
C2     C     0.92265   0.77469   0.97282   0.00000  Uiso   1.00
C3     C     0.82854   0.76000   0.98583   0.00000  Uiso   1.00
C4     C     0.80314   0.62424   0.99145   0.00000  Uiso   1.00
C5     C     0.72619   0.42681   0.00506   0.00000  Uiso   1.00
C6     C     0.12578   0.92030   0.96604   0.00000  Uiso   1.00
C7     C     0.20245   0.02805   0.97334   0.00000  Uiso   1.00
C8     C     0.34805   0.01486   0.97325   0.00000  Uiso   1.00
C9     C     0.58646   0.04354   0.97631   0.00000  Uiso   1.00
C10    C     0.93257   0.89753   0.94641   0.00000  Uiso   1.00
C11    C     0.84681   0.98615   0.93721   0.00000  Uiso   1.00
C12    C     0.82976   0.95382   0.92059   0.00000  Uiso   1.00
C13    C     0.76818   0.94715   0.89319   0.00000  Uiso   1.00
C14    C     0.08798   0.69830   0.95161   0.00000  Uiso   1.00
C15    C     0.98906   0.65793   0.96568   0.00000  Uiso   1.00
C16    C     0.96378   0.52215   0.97129   0.00000  Uiso   1.00
C17    C     0.86965   0.50726   0.98430   0.00000  Uiso   1.00
C18    C     0.19218   0.80354   0.95890   0.00000  Uiso   1.00
C19    C     0.33770   0.79019   0.95879   0.00000  Uiso   1.00
C20    C     0.41457   0.89788   0.96609   0.00000  Uiso   1.00
C21    C     0.99896   0.78076   0.93927   0.00000  Uiso   1.00
C22    C     0.98205   0.74829   0.92266   0.00000  Uiso   1.00
C23    C     0.89628   0.83684   0.91344   0.00000  Uiso   1.00
H24    H     0.91406   0.00419   0.97032   0.00000  Uiso   1.00
H25    H     0.77719   0.85039   0.99135   0.00000  Uiso   1.00
H26    H     0.15104   0.11840   0.97886   0.00000  Uiso   1.00
H27    H     0.79545   0.07650   0.94274   0.00000  Uiso   1.00
H28    H     0.65476   0.62838   0.01153   0.00000  Uiso   1.00
H29    H     0.44305   0.19351   0.98518   0.00000  Uiso   1.00
H30    H     0.69322   0.10518   0.90901   0.00000  Uiso   1.00
H31    H     0.13968   0.60739   0.94605   0.00000  Uiso   1.00
H32    H     0.01518   0.43181   0.96576   0.00000  Uiso   1.00
H33    H     0.38904   0.69982   0.95327   0.00000  Uiso   1.00
H34    H     0.03345   0.65792   0.91714   0.00000  Uiso   1.00
H35    H     0.84793   0.28865   0.99076   0.00000  Uiso   1.00
H36    H     0.63623   0.85378   0.96441   0.00000  Uiso   1.00
H37    H     0.88640   0.76544   0.88824   0.00000  Uiso   1.00
O38    O     0.66542   0.35018   0.01455   0.00000  Uiso   1.00
O39    O     0.69962   0.09162   0.97998   0.00000  Uiso   1.00
O40    O     0.71586   0.97572   0.88004   0.00000  Uiso   1.00
N41    N     0.71729   0.57252   0.00393   0.00000  Uiso   1.00
N42    N     0.45430   0.10087   0.97930   0.00000  Uiso   1.00
N43    N     0.75330   0.01831   0.90809   0.00000  Uiso   1.00
N44    N     0.82123   0.38971   0.99276   0.00000  Uiso   1.00
N45    N     0.55824   0.91806   0.96813   0.00000  Uiso   1.00
N46    N     0.85724   0.83550   0.89691   0.00000  Uiso   1.00
C47    C     0.03426   0.08672   0.46476   0.00000  Uiso   1.00
C48    C     0.07735   0.22531   0.47282   0.00000  Uiso   1.00
C49    C     0.17146   0.24000   0.48583   0.00000  Uiso   1.00
C50    C     0.19686   0.37576   0.49145   0.00000  Uiso   1.00
C51    C     0.27381   0.57319   0.50506   0.00000  Uiso   1.00
C52    C     0.87422   0.07970   0.46604   0.00000  Uiso   1.00
C53    C     0.79755   0.97195   0.47334   0.00000  Uiso   1.00
C54    C     0.65195   0.98514   0.47325   0.00000  Uiso   1.00
C55    C     0.41354   0.95646   0.47631   0.00000  Uiso   1.00
C56    C     0.06743   0.10247   0.44641   0.00000  Uiso   1.00
C57    C     0.15319   0.01385   0.43721   0.00000  Uiso   1.00
C58    C     0.17024   0.04618   0.42059   0.00000  Uiso   1.00
C59    C     0.23182   0.05285   0.39319   0.00000  Uiso   1.00
C60    C     0.91202   0.30170   0.45161   0.00000  Uiso   1.00
C61    C     0.01094   0.34207   0.46568   0.00000  Uiso   1.00
C62    C     0.03622   0.47785   0.47129   0.00000  Uiso   1.00
C63    C     0.13035   0.49274   0.48430   0.00000  Uiso   1.00
C64    C     0.80782   0.19646   0.45890   0.00000  Uiso   1.00
C65    C     0.66230   0.20981   0.45879   0.00000  Uiso   1.00
C66    C     0.58543   0.10212   0.46609   0.00000  Uiso   1.00
C67    C     0.00104   0.21924   0.43927   0.00000  Uiso   1.00
C68    C     0.01795   0.25171   0.42266   0.00000  Uiso   1.00
C69    C     0.10372   0.16316   0.41344   0.00000  Uiso   1.00
H70    H     0.08594   0.99581   0.47032   0.00000  Uiso   1.00
H71    H     0.22281   0.14961   0.49135   0.00000  Uiso   1.00
H72    H     0.84896   0.88160   0.47886   0.00000  Uiso   1.00
H73    H     0.20455   0.92350   0.44274   0.00000  Uiso   1.00
H74    H     0.34524   0.37162   0.51153   0.00000  Uiso   1.00
H75    H     0.55695   0.80649   0.48518   0.00000  Uiso   1.00
H76    H     0.30678   0.89482   0.40901   0.00000  Uiso   1.00
H77    H     0.86032   0.39261   0.44605   0.00000  Uiso   1.00
H78    H     0.98482   0.56819   0.46576   0.00000  Uiso   1.00
H79    H     0.61096   0.30018   0.45327   0.00000  Uiso   1.00
H80    H     0.96655   0.34208   0.41714   0.00000  Uiso   1.00
H81    H     0.15207   0.71135   0.49076   0.00000  Uiso   1.00
H82    H     0.36377   0.14622   0.46441   0.00000  Uiso   1.00
H83    H     0.11360   0.23456   0.38824   0.00000  Uiso   1.00
O84    O     0.33458   0.64982   0.51455   0.00000  Uiso   1.00
O85    O     0.30038   0.90838   0.47998   0.00000  Uiso   1.00
O86    O     0.28414   0.02428   0.38004   0.00000  Uiso   1.00
N87    N     0.28271   0.42748   0.50393   0.00000  Uiso   1.00
N88    N     0.54570   0.89913   0.47930   0.00000  Uiso   1.00
N89    N     0.24670   0.98169   0.40809   0.00000  Uiso   1.00
N90    N     0.17877   0.61029   0.49276   0.00000  Uiso   1.00
N91    N     0.44176   0.08194   0.46813   0.00000  Uiso   1.00
N92    N     0.14276   0.16450   0.39691   0.00000  Uiso   1.00
C93    C     0.08672   0.96574   0.21476   0.00000  Uiso   1.00
C94    C     0.22531   0.92265   0.22282   0.00000  Uiso   1.00
C95    C     0.24000   0.82854   0.23583   0.00000  Uiso   1.00
C96    C     0.37576   0.80314   0.24145   0.00000  Uiso   1.00
C97    C     0.57319   0.72619   0.25506   0.00000  Uiso   1.00
C98    C     0.07970   0.12578   0.21604   0.00000  Uiso   1.00
C99    C     0.97195   0.20245   0.22334   0.00000  Uiso   1.00
C100   C     0.98514   0.34805   0.22325   0.00000  Uiso   1.00
C101   C     0.95646   0.58646   0.22631   0.00000  Uiso   1.00
C102   C     0.10247   0.93257   0.19641   0.00000  Uiso   1.00
C103   C     0.01385   0.84681   0.18721   0.00000  Uiso   1.00
C104   C     0.04618   0.82976   0.17059   0.00000  Uiso   1.00
C105   C     0.05285   0.76818   0.14319   0.00000  Uiso   1.00
C106   C     0.30170   0.08798   0.20161   0.00000  Uiso   1.00
C107   C     0.34207   0.98906   0.21568   0.00000  Uiso   1.00
C108   C     0.47785   0.96378   0.22129   0.00000  Uiso   1.00
C109   C     0.49274   0.86965   0.23430   0.00000  Uiso   1.00
C110   C     0.19646   0.19218   0.20890   0.00000  Uiso   1.00
C111   C     0.20981   0.33770   0.20879   0.00000  Uiso   1.00
C112   C     0.10212   0.41457   0.21609   0.00000  Uiso   1.00
C113   C     0.21924   0.99896   0.18927   0.00000  Uiso   1.00
C114   C     0.25171   0.98205   0.17266   0.00000  Uiso   1.00
C115   C     0.16316   0.89628   0.16344   0.00000  Uiso   1.00
H116   H     0.99581   0.91406   0.22032   0.00000  Uiso   1.00
H117   H     0.14961   0.77719   0.24135   0.00000  Uiso   1.00
H118   H     0.88160   0.15104   0.22886   0.00000  Uiso   1.00
H119   H     0.92350   0.79545   0.19274   0.00000  Uiso   1.00
H120   H     0.37162   0.65476   0.26153   0.00000  Uiso   1.00
H121   H     0.80649   0.44305   0.23518   0.00000  Uiso   1.00
H122   H     0.89482   0.69322   0.15901   0.00000  Uiso   1.00
H123   H     0.39261   0.13968   0.19605   0.00000  Uiso   1.00
H124   H     0.56819   0.01518   0.21576   0.00000  Uiso   1.00
H125   H     0.30018   0.38904   0.20327   0.00000  Uiso   1.00
H126   H     0.34208   0.03345   0.16714   0.00000  Uiso   1.00
H127   H     0.71135   0.84793   0.24076   0.00000  Uiso   1.00
H128   H     0.14622   0.63623   0.21441   0.00000  Uiso   1.00
H129   H     0.23456   0.88640   0.13824   0.00000  Uiso   1.00
O130   O     0.64982   0.66542   0.26455   0.00000  Uiso   1.00
O131   O     0.90838   0.69962   0.22998   0.00000  Uiso   1.00
O132   O     0.02428   0.71586   0.13004   0.00000  Uiso   1.00
N133   N     0.42748   0.71729   0.25393   0.00000  Uiso   1.00
N134   N     0.89913   0.45430   0.22930   0.00000  Uiso   1.00
N135   N     0.98169   0.75330   0.15809   0.00000  Uiso   1.00
N136   N     0.61029   0.82123   0.24276   0.00000  Uiso   1.00
N137   N     0.08194   0.55824   0.21813   0.00000  Uiso   1.00
N138   N     0.16450   0.85724   0.14691   0.00000  Uiso   1.00
C139   C     0.91328   0.03426   0.71476   0.00000  Uiso   1.00
C140   C     0.77469   0.07735   0.72282   0.00000  Uiso   1.00
C141   C     0.76000   0.17146   0.73583   0.00000  Uiso   1.00
C142   C     0.62424   0.19686   0.74145   0.00000  Uiso   1.00
C143   C     0.42681   0.27381   0.75506   0.00000  Uiso   1.00
C144   C     0.92030   0.87422   0.71604   0.00000  Uiso   1.00
C145   C     0.02805   0.79755   0.72334   0.00000  Uiso   1.00
C146   C     0.01486   0.65195   0.72325   0.00000  Uiso   1.00
C147   C     0.04354   0.41354   0.72631   0.00000  Uiso   1.00
C148   C     0.89753   0.06743   0.69641   0.00000  Uiso   1.00
C149   C     0.98615   0.15319   0.68721   0.00000  Uiso   1.00
C150   C     0.95382   0.17024   0.67059   0.00000  Uiso   1.00
C151   C     0.94715   0.23182   0.64319   0.00000  Uiso   1.00
C152   C     0.69830   0.91202   0.70161   0.00000  Uiso   1.00
C153   C     0.65793   0.01094   0.71568   0.00000  Uiso   1.00
C154   C     0.52215   0.03622   0.72129   0.00000  Uiso   1.00
C155   C     0.50726   0.13035   0.73430   0.00000  Uiso   1.00
C156   C     0.80354   0.80782   0.70890   0.00000  Uiso   1.00
C157   C     0.79019   0.66230   0.70879   0.00000  Uiso   1.00
C158   C     0.89788   0.58543   0.71609   0.00000  Uiso   1.00
C159   C     0.78076   0.00104   0.68927   0.00000  Uiso   1.00
C160   C     0.74829   0.01795   0.67266   0.00000  Uiso   1.00
C161   C     0.83684   0.10372   0.66344   0.00000  Uiso   1.00
H162   H     0.00419   0.08594   0.72032   0.00000  Uiso   1.00
H163   H     0.85039   0.22281   0.74135   0.00000  Uiso   1.00
H164   H     0.11840   0.84896   0.72886   0.00000  Uiso   1.00
H165   H     0.07650   0.20455   0.69274   0.00000  Uiso   1.00
H166   H     0.62838   0.34524   0.76153   0.00000  Uiso   1.00
H167   H     0.19351   0.55695   0.73518   0.00000  Uiso   1.00
H168   H     0.10518   0.30678   0.65901   0.00000  Uiso   1.00
H169   H     0.60739   0.86032   0.69605   0.00000  Uiso   1.00
H170   H     0.43181   0.98482   0.71576   0.00000  Uiso   1.00
H171   H     0.69982   0.61096   0.70327   0.00000  Uiso   1.00
H172   H     0.65792   0.96655   0.66714   0.00000  Uiso   1.00
H173   H     0.28865   0.15207   0.74076   0.00000  Uiso   1.00
H174   H     0.85378   0.36377   0.71441   0.00000  Uiso   1.00
H175   H     0.76544   0.11360   0.63824   0.00000  Uiso   1.00
O176   O     0.35018   0.33458   0.76455   0.00000  Uiso   1.00
O177   O     0.09162   0.30038   0.72998   0.00000  Uiso   1.00
O178   O     0.97572   0.28414   0.63004   0.00000  Uiso   1.00
N179   N     0.57252   0.28271   0.75393   0.00000  Uiso   1.00
N180   N     0.10087   0.54570   0.72930   0.00000  Uiso   1.00
N181   N     0.01831   0.24670   0.65809   0.00000  Uiso   1.00
N182   N     0.38971   0.17877   0.74276   0.00000  Uiso   1.00
N183   N     0.91806   0.44176   0.71813   0.00000  Uiso   1.00
N184   N     0.83550   0.14276   0.64691   0.00000  Uiso   1.00
C185   C     0.03426   0.91328   0.03524   0.00000  Uiso   1.00
C186   C     0.07735   0.77469   0.02718   0.00000  Uiso   1.00
C187   C     0.17146   0.76000   0.01417   0.00000  Uiso   1.00
C188   C     0.19686   0.62424   0.00855   0.00000  Uiso   1.00
C189   C     0.27381   0.42681   0.99494   0.00000  Uiso   1.00
C190   C     0.87422   0.92030   0.03396   0.00000  Uiso   1.00
C191   C     0.79755   0.02805   0.02666   0.00000  Uiso   1.00
C192   C     0.65195   0.01486   0.02675   0.00000  Uiso   1.00
C193   C     0.41354   0.04354   0.02369   0.00000  Uiso   1.00
C194   C     0.06743   0.89753   0.05359   0.00000  Uiso   1.00
C195   C     0.15319   0.98615   0.06279   0.00000  Uiso   1.00
C196   C     0.17024   0.95382   0.07941   0.00000  Uiso   1.00
C197   C     0.23182   0.94715   0.10681   0.00000  Uiso   1.00
C198   C     0.91202   0.69830   0.04839   0.00000  Uiso   1.00
C199   C     0.01094   0.65793   0.03432   0.00000  Uiso   1.00
C200   C     0.03622   0.52215   0.02871   0.00000  Uiso   1.00
C201   C     0.13035   0.50726   0.01570   0.00000  Uiso   1.00
C202   C     0.80782   0.80354   0.04110   0.00000  Uiso   1.00
C203   C     0.66230   0.79019   0.04121   0.00000  Uiso   1.00
C204   C     0.58543   0.89788   0.03391   0.00000  Uiso   1.00
C205   C     0.00104   0.78076   0.06073   0.00000  Uiso   1.00
C206   C     0.01795   0.74829   0.07734   0.00000  Uiso   1.00
C207   C     0.10372   0.83684   0.08656   0.00000  Uiso   1.00
H208   H     0.08594   0.00419   0.02968   0.00000  Uiso   1.00
H209   H     0.22281   0.85039   0.00865   0.00000  Uiso   1.00
H210   H     0.84896   0.11840   0.02114   0.00000  Uiso   1.00
H211   H     0.20455   0.07650   0.05726   0.00000  Uiso   1.00
H212   H     0.34524   0.62838   0.98847   0.00000  Uiso   1.00
H213   H     0.55695   0.19351   0.01482   0.00000  Uiso   1.00
H214   H     0.30678   0.10518   0.09099   0.00000  Uiso   1.00
H215   H     0.86032   0.60739   0.05395   0.00000  Uiso   1.00
H216   H     0.98482   0.43181   0.03424   0.00000  Uiso   1.00
H217   H     0.61096   0.69982   0.04673   0.00000  Uiso   1.00
H218   H     0.96655   0.65792   0.08286   0.00000  Uiso   1.00
H219   H     0.15207   0.28865   0.00924   0.00000  Uiso   1.00
H220   H     0.36377   0.85378   0.03559   0.00000  Uiso   1.00
H221   H     0.11360   0.76544   0.11176   0.00000  Uiso   1.00
O222   O     0.33458   0.35018   0.98545   0.00000  Uiso   1.00
O223   O     0.30038   0.09162   0.02002   0.00000  Uiso   1.00
O224   O     0.28414   0.97572   0.11996   0.00000  Uiso   1.00
N225   N     0.28271   0.57252   0.99607   0.00000  Uiso   1.00
N226   N     0.54570   0.10087   0.02070   0.00000  Uiso   1.00
N227   N     0.24670   0.01831   0.09191   0.00000  Uiso   1.00
N228   N     0.17877   0.38971   0.00724   0.00000  Uiso   1.00
N229   N     0.44176   0.91806   0.03187   0.00000  Uiso   1.00
N230   N     0.14276   0.83550   0.10309   0.00000  Uiso   1.00
C231   C     0.96574   0.08672   0.53524   0.00000  Uiso   1.00
C232   C     0.92265   0.22531   0.52718   0.00000  Uiso   1.00
C233   C     0.82854   0.24000   0.51417   0.00000  Uiso   1.00
C234   C     0.80314   0.37576   0.50855   0.00000  Uiso   1.00
C235   C     0.72619   0.57319   0.49494   0.00000  Uiso   1.00
C236   C     0.12578   0.07970   0.53396   0.00000  Uiso   1.00
C237   C     0.20245   0.97195   0.52666   0.00000  Uiso   1.00
C238   C     0.34805   0.98514   0.52675   0.00000  Uiso   1.00
C239   C     0.58646   0.95646   0.52369   0.00000  Uiso   1.00
C240   C     0.93257   0.10247   0.55359   0.00000  Uiso   1.00
C241   C     0.84681   0.01385   0.56279   0.00000  Uiso   1.00
C242   C     0.82976   0.04618   0.57941   0.00000  Uiso   1.00
C243   C     0.76818   0.05285   0.60681   0.00000  Uiso   1.00
C244   C     0.08798   0.30170   0.54839   0.00000  Uiso   1.00
C245   C     0.98906   0.34207   0.53432   0.00000  Uiso   1.00
C246   C     0.96378   0.47785   0.52871   0.00000  Uiso   1.00
C247   C     0.86965   0.49274   0.51570   0.00000  Uiso   1.00
C248   C     0.19218   0.19646   0.54110   0.00000  Uiso   1.00
C249   C     0.33770   0.20981   0.54121   0.00000  Uiso   1.00
C250   C     0.41457   0.10212   0.53391   0.00000  Uiso   1.00
C251   C     0.99896   0.21924   0.56073   0.00000  Uiso   1.00
C252   C     0.98205   0.25171   0.57734   0.00000  Uiso   1.00
C253   C     0.89628   0.16316   0.58656   0.00000  Uiso   1.00
H254   H     0.91406   0.99581   0.52968   0.00000  Uiso   1.00
H255   H     0.77719   0.14961   0.50865   0.00000  Uiso   1.00
H256   H     0.15104   0.88160   0.52114   0.00000  Uiso   1.00
H257   H     0.79545   0.92350   0.55726   0.00000  Uiso   1.00
H258   H     0.65476   0.37162   0.48847   0.00000  Uiso   1.00
H259   H     0.44305   0.80649   0.51482   0.00000  Uiso   1.00
H260   H     0.69322   0.89482   0.59099   0.00000  Uiso   1.00
H261   H     0.13968   0.39261   0.55395   0.00000  Uiso   1.00
H262   H     0.01518   0.56819   0.53424   0.00000  Uiso   1.00
H263   H     0.38904   0.30018   0.54673   0.00000  Uiso   1.00
H264   H     0.03345   0.34208   0.58286   0.00000  Uiso   1.00
H265   H     0.84793   0.71135   0.50924   0.00000  Uiso   1.00
H266   H     0.63623   0.14622   0.53559   0.00000  Uiso   1.00
H267   H     0.88640   0.23456   0.61176   0.00000  Uiso   1.00
O268   O     0.66542   0.64982   0.48545   0.00000  Uiso   1.00
O269   O     0.69962   0.90838   0.52002   0.00000  Uiso   1.00
O270   O     0.71586   0.02428   0.61996   0.00000  Uiso   1.00
N271   N     0.71729   0.42748   0.49607   0.00000  Uiso   1.00
N272   N     0.45430   0.89913   0.52070   0.00000  Uiso   1.00
N273   N     0.75330   0.98169   0.59191   0.00000  Uiso   1.00
N274   N     0.82123   0.61029   0.50724   0.00000  Uiso   1.00
N275   N     0.55824   0.08194   0.53187   0.00000  Uiso   1.00
N276   N     0.85724   0.16450   0.60309   0.00000  Uiso   1.00
C277   C     0.91328   0.96574   0.78524   0.00000  Uiso   1.00
C278   C     0.77469   0.92265   0.77718   0.00000  Uiso   1.00
C279   C     0.76000   0.82854   0.76417   0.00000  Uiso   1.00
C280   C     0.62424   0.80314   0.75855   0.00000  Uiso   1.00
C281   C     0.42681   0.72619   0.74494   0.00000  Uiso   1.00
C282   C     0.92030   0.12578   0.78396   0.00000  Uiso   1.00
C283   C     0.02805   0.20245   0.77666   0.00000  Uiso   1.00
C284   C     0.01486   0.34805   0.77675   0.00000  Uiso   1.00
C285   C     0.04354   0.58646   0.77369   0.00000  Uiso   1.00
C286   C     0.89753   0.93257   0.80359   0.00000  Uiso   1.00
C287   C     0.98615   0.84681   0.81279   0.00000  Uiso   1.00
C288   C     0.95382   0.82976   0.82941   0.00000  Uiso   1.00
C289   C     0.94715   0.76818   0.85681   0.00000  Uiso   1.00
C290   C     0.69830   0.08798   0.79839   0.00000  Uiso   1.00
C291   C     0.65793   0.98906   0.78432   0.00000  Uiso   1.00
C292   C     0.52215   0.96378   0.77871   0.00000  Uiso   1.00
C293   C     0.50726   0.86965   0.76570   0.00000  Uiso   1.00
C294   C     0.80354   0.19218   0.79110   0.00000  Uiso   1.00
C295   C     0.79019   0.33770   0.79121   0.00000  Uiso   1.00
C296   C     0.89788   0.41457   0.78391   0.00000  Uiso   1.00
C297   C     0.78076   0.99896   0.81073   0.00000  Uiso   1.00
C298   C     0.74829   0.98205   0.82734   0.00000  Uiso   1.00
C299   C     0.83684   0.89628   0.83656   0.00000  Uiso   1.00
H300   H     0.00419   0.91406   0.77968   0.00000  Uiso   1.00
H301   H     0.85039   0.77719   0.75865   0.00000  Uiso   1.00
H302   H     0.11840   0.15104   0.77114   0.00000  Uiso   1.00
H303   H     0.07650   0.79545   0.80726   0.00000  Uiso   1.00
H304   H     0.62838   0.65476   0.73847   0.00000  Uiso   1.00
H305   H     0.19351   0.44305   0.76482   0.00000  Uiso   1.00
H306   H     0.10518   0.69322   0.84099   0.00000  Uiso   1.00
H307   H     0.60739   0.13968   0.80395   0.00000  Uiso   1.00
H308   H     0.43181   0.01518   0.78424   0.00000  Uiso   1.00
H309   H     0.69982   0.38904   0.79673   0.00000  Uiso   1.00
H310   H     0.65792   0.03345   0.83286   0.00000  Uiso   1.00
H311   H     0.28865   0.84793   0.75924   0.00000  Uiso   1.00
H312   H     0.85378   0.63623   0.78559   0.00000  Uiso   1.00
H313   H     0.76544   0.88640   0.86176   0.00000  Uiso   1.00
O314   O     0.35018   0.66542   0.73545   0.00000  Uiso   1.00
O315   O     0.09162   0.69962   0.77002   0.00000  Uiso   1.00
O316   O     0.97572   0.71586   0.86996   0.00000  Uiso   1.00
N317   N     0.57252   0.71729   0.74607   0.00000  Uiso   1.00
N318   N     0.10087   0.45430   0.77070   0.00000  Uiso   1.00
N319   N     0.01831   0.75330   0.84191   0.00000  Uiso   1.00
N320   N     0.38971   0.82123   0.75724   0.00000  Uiso   1.00
N321   N     0.91806   0.55824   0.78187   0.00000  Uiso   1.00
N322   N     0.83550   0.85724   0.85309   0.00000  Uiso   1.00
C323   C     0.08672   0.03426   0.28524   0.00000  Uiso   1.00
C324   C     0.22531   0.07735   0.27718   0.00000  Uiso   1.00
C325   C     0.24000   0.17146   0.26417   0.00000  Uiso   1.00
C326   C     0.37576   0.19686   0.25855   0.00000  Uiso   1.00
C327   C     0.57319   0.27381   0.24494   0.00000  Uiso   1.00
C328   C     0.07970   0.87422   0.28396   0.00000  Uiso   1.00
C329   C     0.97195   0.79755   0.27666   0.00000  Uiso   1.00
C330   C     0.98514   0.65195   0.27675   0.00000  Uiso   1.00
C331   C     0.95646   0.41354   0.27369   0.00000  Uiso   1.00
C332   C     0.10247   0.06743   0.30359   0.00000  Uiso   1.00
C333   C     0.01385   0.15319   0.31279   0.00000  Uiso   1.00
C334   C     0.04618   0.17024   0.32941   0.00000  Uiso   1.00
C335   C     0.05285   0.23182   0.35681   0.00000  Uiso   1.00
C336   C     0.30170   0.91202   0.29839   0.00000  Uiso   1.00
C337   C     0.34207   0.01094   0.28432   0.00000  Uiso   1.00
C338   C     0.47785   0.03622   0.27871   0.00000  Uiso   1.00
C339   C     0.49274   0.13035   0.26570   0.00000  Uiso   1.00
C340   C     0.19646   0.80782   0.29110   0.00000  Uiso   1.00
C341   C     0.20981   0.66230   0.29121   0.00000  Uiso   1.00
C342   C     0.10212   0.58543   0.28391   0.00000  Uiso   1.00
C343   C     0.21924   0.00104   0.31073   0.00000  Uiso   1.00
C344   C     0.25171   0.01795   0.32734   0.00000  Uiso   1.00
C345   C     0.16316   0.10372   0.33656   0.00000  Uiso   1.00
H346   H     0.99581   0.08594   0.27968   0.00000  Uiso   1.00
H347   H     0.14961   0.22281   0.25865   0.00000  Uiso   1.00
H348   H     0.88160   0.84896   0.27114   0.00000  Uiso   1.00
H349   H     0.92350   0.20455   0.30726   0.00000  Uiso   1.00
H350   H     0.37162   0.34524   0.23847   0.00000  Uiso   1.00
H351   H     0.80649   0.55695   0.26482   0.00000  Uiso   1.00
H352   H     0.89482   0.30678   0.34099   0.00000  Uiso   1.00
H353   H     0.39261   0.86032   0.30395   0.00000  Uiso   1.00
H354   H     0.56819   0.98482   0.28424   0.00000  Uiso   1.00
H355   H     0.30018   0.61096   0.29673   0.00000  Uiso   1.00
H356   H     0.34208   0.96655   0.33286   0.00000  Uiso   1.00
H357   H     0.71135   0.15207   0.25924   0.00000  Uiso   1.00
H358   H     0.14622   0.36377   0.28559   0.00000  Uiso   1.00
H359   H     0.23456   0.11360   0.36176   0.00000  Uiso   1.00
O360   O     0.64982   0.33458   0.23545   0.00000  Uiso   1.00
O361   O     0.90838   0.30038   0.27002   0.00000  Uiso   1.00
O362   O     0.02428   0.28414   0.36996   0.00000  Uiso   1.00
N363   N     0.42748   0.28271   0.24607   0.00000  Uiso   1.00
N364   N     0.89913   0.54570   0.27070   0.00000  Uiso   1.00
N365   N     0.98169   0.24670   0.34191   0.00000  Uiso   1.00
N366   N     0.61029   0.17877   0.25724   0.00000  Uiso   1.00
N367   N     0.08194   0.44176   0.28187   0.00000  Uiso   1.00
N368   N     0.16450   0.14276   0.35309   0.00000  Uiso   1.00
