data_job_03799
_audit_creation_date              2018-12-19
_audit_creation_method            'Materials Studio'
_symmetry_space_group_name_H-M    'P1'
_symmetry_Int_Tables_number       1
_symmetry_cell_setting            triclinic
loop_
_symmetry_equiv_pos_as_xyz
  x,y,z
_cell_length_a                    18.5318
_cell_length_b                    43.6306
_cell_length_c                    14.1157
_cell_angle_alpha                 90.0000
_cell_angle_beta                  147.5336
_cell_angle_gamma                 90.0000
loop_
_atom_site_label
_atom_site_type_symbol
_atom_site_fract_x
_atom_site_fract_y
_atom_site_fract_z
_atom_site_U_iso_or_equiv
_atom_site_adp_type
_atom_site_occupancy
C1     C     0.65306   0.36673   0.60450   0.00000  Uiso   1.00
C2     C     0.50235   0.36707   0.45728   0.00000  Uiso   1.00
C3     C     0.40156   0.36678   0.27768   0.00000  Uiso   1.00
C4     C     0.26982   0.36718   0.16420   0.00000  Uiso   1.00
C5     C     0.04033   0.36761   0.92587   0.00000  Uiso   1.00
C6     C     0.71039   0.39489   0.71763   0.00000  Uiso   1.00
C7     C     0.78455   0.41800   0.75693   0.00000  Uiso   1.00
C8     C     0.82796   0.44181   0.86264   0.00000  Uiso   1.00
C9     C     0.92155   0.48544   0.02862   0.00000  Uiso   1.00
C10    C     0.70891   0.33907   0.71935   0.00000  Uiso   1.00
C11    C     0.78186   0.31524   0.76016   0.00000  Uiso   1.00
C12    C     0.82405   0.29205   0.86736   0.00000  Uiso   1.00
C13    C     0.91535   0.24900   0.03601   0.00000  Uiso   1.00
C14    C     0.59832   0.36794   0.72236   0.00000  Uiso   1.00
C15    C     0.47262   0.36772   0.52130   0.00000  Uiso   1.00
C16    C     0.34100   0.36811   0.40807   0.00000  Uiso   1.00
C17    C     0.24003   0.36783   0.22833   0.00000  Uiso   1.00
C18    C     0.68066   0.39555   0.78165   0.00000  Uiso   1.00
C19    C     0.72398   0.41933   0.88733   0.00000  Uiso   1.00
C20    C     0.79817   0.44247   0.92678   0.00000  Uiso   1.00
C21    C     0.67918   0.33972   0.78337   0.00000  Uiso   1.00
C22    C     0.72128   0.31657   0.89055   0.00000  Uiso   1.00
C23    C     0.79427   0.29271   0.93150   0.00000  Uiso   1.00
H24    H     0.67621   0.36622   0.55466   0.00000  Uiso   1.00
H25    H     0.42461   0.36628   0.22818   0.00000  Uiso   1.00
H26    H     0.80755   0.41749   0.70739   0.00000  Uiso   1.00
H27    H     0.80485   0.31474   0.71060   0.00000  Uiso   1.00
H28    H     0.13256   0.36664   0.89445   0.00000  Uiso   1.00
H29    H     0.94004   0.47461   0.90492   0.00000  Uiso   1.00
H30    H     0.93435   0.25795   0.91170   0.00000  Uiso   1.00
H31    H     0.57517   0.36844   0.77221   0.00000  Uiso   1.00
H32    H     0.31802   0.36862   0.45765   0.00000  Uiso   1.00
H33    H     0.70096   0.41983   0.93686   0.00000  Uiso   1.00
H34    H     0.69826   0.31708   0.94007   0.00000  Uiso   1.00
H35    H     0.04605   0.36854   0.08070   0.00000  Uiso   1.00
H36    H     0.85354   0.47651   0.09118   0.00000  Uiso   1.00
H37    H     0.84784   0.25985   0.09795   0.00000  Uiso   1.00
O38    O     0.92197   0.36768   0.77673   0.00000  Uiso   1.00
O39    O     0.98137   0.50932   0.10246   0.00000  Uiso   1.00
O40    O     0.97390   0.22507   0.11133   0.00000  Uiso   1.00
N41    N     0.14749   0.36706   0.98145   0.00000  Uiso   1.00
N42    N     0.90242   0.46800   0.92616   0.00000  Uiso   1.00
N43    N     0.89713   0.26545   0.93254   0.00000  Uiso   1.00
N44    N     0.10094   0.36808   0.08167   0.00000  Uiso   1.00
N45    N     0.85587   0.46902   0.02638   0.00000  Uiso   1.00
N46    N     0.85058   0.26647   0.03275   0.00000  Uiso   1.00
C47    C     0.15306   0.86673   0.60450   0.00000  Uiso   1.00
C48    C     0.00235   0.86707   0.45728   0.00000  Uiso   1.00
C49    C     0.90156   0.86678   0.27768   0.00000  Uiso   1.00
C50    C     0.76982   0.86718   0.16420   0.00000  Uiso   1.00
C51    C     0.54033   0.86761   0.92587   0.00000  Uiso   1.00
C52    C     0.21039   0.89489   0.71763   0.00000  Uiso   1.00
C53    C     0.28455   0.91800   0.75693   0.00000  Uiso   1.00
C54    C     0.32796   0.94181   0.86264   0.00000  Uiso   1.00
C55    C     0.42155   0.98544   0.02862   0.00000  Uiso   1.00
C56    C     0.20891   0.83907   0.71935   0.00000  Uiso   1.00
C57    C     0.28186   0.81524   0.76016   0.00000  Uiso   1.00
C58    C     0.32405   0.79205   0.86736   0.00000  Uiso   1.00
C59    C     0.41535   0.74900   0.03601   0.00000  Uiso   1.00
C60    C     0.09832   0.86794   0.72236   0.00000  Uiso   1.00
C61    C     0.97262   0.86772   0.52130   0.00000  Uiso   1.00
C62    C     0.84100   0.86811   0.40807   0.00000  Uiso   1.00
C63    C     0.74003   0.86783   0.22833   0.00000  Uiso   1.00
C64    C     0.18066   0.89555   0.78165   0.00000  Uiso   1.00
C65    C     0.22398   0.91933   0.88733   0.00000  Uiso   1.00
C66    C     0.29817   0.94247   0.92678   0.00000  Uiso   1.00
C67    C     0.17918   0.83972   0.78337   0.00000  Uiso   1.00
C68    C     0.22128   0.81657   0.89055   0.00000  Uiso   1.00
C69    C     0.29427   0.79271   0.93150   0.00000  Uiso   1.00
H70    H     0.17621   0.86622   0.55466   0.00000  Uiso   1.00
H71    H     0.92461   0.86628   0.22818   0.00000  Uiso   1.00
H72    H     0.30755   0.91749   0.70739   0.00000  Uiso   1.00
H73    H     0.30485   0.81474   0.71060   0.00000  Uiso   1.00
H74    H     0.63256   0.86664   0.89445   0.00000  Uiso   1.00
H75    H     0.44004   0.97461   0.90492   0.00000  Uiso   1.00
H76    H     0.43435   0.75795   0.91170   0.00000  Uiso   1.00
H77    H     0.07517   0.86844   0.77221   0.00000  Uiso   1.00
H78    H     0.81802   0.86862   0.45765   0.00000  Uiso   1.00
H79    H     0.20096   0.91983   0.93686   0.00000  Uiso   1.00
H80    H     0.19826   0.81708   0.94007   0.00000  Uiso   1.00
H81    H     0.54605   0.86854   0.08070   0.00000  Uiso   1.00
H82    H     0.35354   0.97651   0.09118   0.00000  Uiso   1.00
H83    H     0.34784   0.75985   0.09795   0.00000  Uiso   1.00
O84    O     0.42197   0.86768   0.77673   0.00000  Uiso   1.00
O85    O     0.48137   0.00932   0.10246   0.00000  Uiso   1.00
O86    O     0.47390   0.72507   0.11133   0.00000  Uiso   1.00
N87    N     0.64749   0.86706   0.98145   0.00000  Uiso   1.00
N88    N     0.40242   0.96800   0.92616   0.00000  Uiso   1.00
N89    N     0.39713   0.76545   0.93254   0.00000  Uiso   1.00
N90    N     0.60094   0.86808   0.08167   0.00000  Uiso   1.00
N91    N     0.35587   0.96902   0.02638   0.00000  Uiso   1.00
N92    N     0.35058   0.76647   0.03275   0.00000  Uiso   1.00
C93    C     0.34694   0.36673   0.89550   0.00000  Uiso   1.00
C94    C     0.49765   0.36707   0.04272   0.00000  Uiso   1.00
C95    C     0.59844   0.36678   0.22232   0.00000  Uiso   1.00
C96    C     0.73018   0.36718   0.33580   0.00000  Uiso   1.00
C97    C     0.95967   0.36761   0.57413   0.00000  Uiso   1.00
C98    C     0.28961   0.39489   0.78237   0.00000  Uiso   1.00
C99    C     0.21545   0.41800   0.74307   0.00000  Uiso   1.00
C100   C     0.17204   0.44181   0.63736   0.00000  Uiso   1.00
C101   C     0.07845   0.48544   0.47138   0.00000  Uiso   1.00
C102   C     0.29109   0.33907   0.78065   0.00000  Uiso   1.00
C103   C     0.21814   0.31524   0.73984   0.00000  Uiso   1.00
C104   C     0.17595   0.29205   0.63264   0.00000  Uiso   1.00
C105   C     0.08465   0.24900   0.46399   0.00000  Uiso   1.00
C106   C     0.40168   0.36794   0.77764   0.00000  Uiso   1.00
C107   C     0.52738   0.36772   0.97870   0.00000  Uiso   1.00
C108   C     0.65900   0.36811   0.09193   0.00000  Uiso   1.00
C109   C     0.75997   0.36783   0.27167   0.00000  Uiso   1.00
C110   C     0.31934   0.39555   0.71835   0.00000  Uiso   1.00
C111   C     0.27602   0.41933   0.61267   0.00000  Uiso   1.00
C112   C     0.20183   0.44247   0.57322   0.00000  Uiso   1.00
C113   C     0.32082   0.33972   0.71663   0.00000  Uiso   1.00
C114   C     0.27872   0.31657   0.60945   0.00000  Uiso   1.00
C115   C     0.20573   0.29271   0.56850   0.00000  Uiso   1.00
H116   H     0.32379   0.36622   0.94534   0.00000  Uiso   1.00
H117   H     0.57539   0.36628   0.27182   0.00000  Uiso   1.00
H118   H     0.19245   0.41749   0.79261   0.00000  Uiso   1.00
H119   H     0.19515   0.31474   0.78940   0.00000  Uiso   1.00
H120   H     0.86744   0.36664   0.60555   0.00000  Uiso   1.00
H121   H     0.05996   0.47461   0.59508   0.00000  Uiso   1.00
H122   H     0.06565   0.25795   0.58830   0.00000  Uiso   1.00
H123   H     0.42483   0.36844   0.72779   0.00000  Uiso   1.00
H124   H     0.68198   0.36862   0.04235   0.00000  Uiso   1.00
H125   H     0.29904   0.41983   0.56314   0.00000  Uiso   1.00
H126   H     0.30174   0.31708   0.55993   0.00000  Uiso   1.00
H127   H     0.95395   0.36854   0.41930   0.00000  Uiso   1.00
H128   H     0.14646   0.47651   0.40882   0.00000  Uiso   1.00
H129   H     0.15216   0.25985   0.40205   0.00000  Uiso   1.00
O130   O     0.07803   0.36768   0.72327   0.00000  Uiso   1.00
O131   O     0.01863   0.50932   0.39754   0.00000  Uiso   1.00
O132   O     0.02610   0.22507   0.38867   0.00000  Uiso   1.00
N133   N     0.85251   0.36706   0.51855   0.00000  Uiso   1.00
N134   N     0.09758   0.46800   0.57384   0.00000  Uiso   1.00
N135   N     0.10287   0.26545   0.56746   0.00000  Uiso   1.00
N136   N     0.89906   0.36808   0.41833   0.00000  Uiso   1.00
N137   N     0.14413   0.46902   0.47362   0.00000  Uiso   1.00
N138   N     0.14942   0.26647   0.46725   0.00000  Uiso   1.00
C139   C     0.84694   0.86673   0.89550   0.00000  Uiso   1.00
C140   C     0.99765   0.86707   0.04272   0.00000  Uiso   1.00
C141   C     0.09844   0.86678   0.22232   0.00000  Uiso   1.00
C142   C     0.23018   0.86718   0.33580   0.00000  Uiso   1.00
C143   C     0.45967   0.86761   0.57413   0.00000  Uiso   1.00
C144   C     0.78961   0.89489   0.78237   0.00000  Uiso   1.00
C145   C     0.71545   0.91800   0.74307   0.00000  Uiso   1.00
C146   C     0.67204   0.94181   0.63736   0.00000  Uiso   1.00
C147   C     0.57845   0.98544   0.47138   0.00000  Uiso   1.00
C148   C     0.79109   0.83907   0.78065   0.00000  Uiso   1.00
C149   C     0.71814   0.81524   0.73984   0.00000  Uiso   1.00
C150   C     0.67595   0.79205   0.63264   0.00000  Uiso   1.00
C151   C     0.58465   0.74900   0.46399   0.00000  Uiso   1.00
C152   C     0.90168   0.86794   0.77764   0.00000  Uiso   1.00
C153   C     0.02738   0.86772   0.97870   0.00000  Uiso   1.00
C154   C     0.15900   0.86811   0.09193   0.00000  Uiso   1.00
C155   C     0.25997   0.86783   0.27167   0.00000  Uiso   1.00
C156   C     0.81934   0.89555   0.71835   0.00000  Uiso   1.00
C157   C     0.77602   0.91933   0.61267   0.00000  Uiso   1.00
C158   C     0.70183   0.94247   0.57322   0.00000  Uiso   1.00
C159   C     0.82082   0.83972   0.71663   0.00000  Uiso   1.00
C160   C     0.77872   0.81657   0.60945   0.00000  Uiso   1.00
C161   C     0.70573   0.79271   0.56850   0.00000  Uiso   1.00
H162   H     0.82379   0.86622   0.94534   0.00000  Uiso   1.00
H163   H     0.07539   0.86628   0.27182   0.00000  Uiso   1.00
H164   H     0.69245   0.91749   0.79261   0.00000  Uiso   1.00
H165   H     0.69515   0.81474   0.78940   0.00000  Uiso   1.00
H166   H     0.36744   0.86664   0.60555   0.00000  Uiso   1.00
H167   H     0.55996   0.97461   0.59508   0.00000  Uiso   1.00
H168   H     0.56565   0.75795   0.58830   0.00000  Uiso   1.00
H169   H     0.92483   0.86844   0.72779   0.00000  Uiso   1.00
H170   H     0.18198   0.86862   0.04235   0.00000  Uiso   1.00
H171   H     0.79904   0.91983   0.56314   0.00000  Uiso   1.00
H172   H     0.80174   0.81708   0.55993   0.00000  Uiso   1.00
H173   H     0.45395   0.86854   0.41930   0.00000  Uiso   1.00
H174   H     0.64646   0.97651   0.40882   0.00000  Uiso   1.00
H175   H     0.65216   0.75985   0.40205   0.00000  Uiso   1.00
O176   O     0.57803   0.86768   0.72327   0.00000  Uiso   1.00
O177   O     0.51863   0.00932   0.39754   0.00000  Uiso   1.00
O178   O     0.52610   0.72507   0.38867   0.00000  Uiso   1.00
N179   N     0.35251   0.86706   0.51855   0.00000  Uiso   1.00
N180   N     0.59758   0.96800   0.57384   0.00000  Uiso   1.00
N181   N     0.60287   0.76545   0.56746   0.00000  Uiso   1.00
N182   N     0.39906   0.86808   0.41833   0.00000  Uiso   1.00
N183   N     0.64413   0.96902   0.47362   0.00000  Uiso   1.00
N184   N     0.64942   0.76647   0.46725   0.00000  Uiso   1.00
C185   C     0.34694   0.63327   0.39550   0.00000  Uiso   1.00
C186   C     0.49765   0.63293   0.54272   0.00000  Uiso   1.00
C187   C     0.59844   0.63322   0.72232   0.00000  Uiso   1.00
C188   C     0.73018   0.63282   0.83580   0.00000  Uiso   1.00
C189   C     0.95967   0.63239   0.07413   0.00000  Uiso   1.00
C190   C     0.28961   0.60511   0.28237   0.00000  Uiso   1.00
C191   C     0.21545   0.58200   0.24307   0.00000  Uiso   1.00
C192   C     0.17204   0.55819   0.13736   0.00000  Uiso   1.00
C193   C     0.07845   0.51456   0.97138   0.00000  Uiso   1.00
C194   C     0.29109   0.66093   0.28065   0.00000  Uiso   1.00
C195   C     0.21814   0.68476   0.23984   0.00000  Uiso   1.00
C196   C     0.17595   0.70795   0.13264   0.00000  Uiso   1.00
C197   C     0.08465   0.75100   0.96399   0.00000  Uiso   1.00
C198   C     0.40168   0.63206   0.27764   0.00000  Uiso   1.00
C199   C     0.52738   0.63228   0.47870   0.00000  Uiso   1.00
C200   C     0.65900   0.63189   0.59193   0.00000  Uiso   1.00
C201   C     0.75997   0.63217   0.77167   0.00000  Uiso   1.00
C202   C     0.31934   0.60445   0.21835   0.00000  Uiso   1.00
C203   C     0.27602   0.58067   0.11267   0.00000  Uiso   1.00
C204   C     0.20183   0.55753   0.07322   0.00000  Uiso   1.00
C205   C     0.32082   0.66028   0.21663   0.00000  Uiso   1.00
C206   C     0.27872   0.68343   0.10945   0.00000  Uiso   1.00
C207   C     0.20573   0.70729   0.06850   0.00000  Uiso   1.00
H208   H     0.32379   0.63378   0.44534   0.00000  Uiso   1.00
H209   H     0.57539   0.63372   0.77182   0.00000  Uiso   1.00
H210   H     0.19245   0.58251   0.29261   0.00000  Uiso   1.00
H211   H     0.19515   0.68526   0.28940   0.00000  Uiso   1.00
H212   H     0.86744   0.63336   0.10555   0.00000  Uiso   1.00
H213   H     0.05996   0.52539   0.09508   0.00000  Uiso   1.00
H214   H     0.06565   0.74205   0.08830   0.00000  Uiso   1.00
H215   H     0.42483   0.63156   0.22779   0.00000  Uiso   1.00
H216   H     0.68198   0.63138   0.54235   0.00000  Uiso   1.00
H217   H     0.29904   0.58017   0.06314   0.00000  Uiso   1.00
H218   H     0.30174   0.68292   0.05993   0.00000  Uiso   1.00
H219   H     0.95395   0.63146   0.91930   0.00000  Uiso   1.00
H220   H     0.14646   0.52349   0.90882   0.00000  Uiso   1.00
H221   H     0.15216   0.74015   0.90205   0.00000  Uiso   1.00
O222   O     0.07803   0.63232   0.22327   0.00000  Uiso   1.00
O223   O     0.01863   0.49068   0.89754   0.00000  Uiso   1.00
O224   O     0.02610   0.77493   0.88867   0.00000  Uiso   1.00
N225   N     0.85251   0.63294   0.01855   0.00000  Uiso   1.00
N226   N     0.09758   0.53200   0.07384   0.00000  Uiso   1.00
N227   N     0.10287   0.73455   0.06746   0.00000  Uiso   1.00
N228   N     0.89906   0.63192   0.91833   0.00000  Uiso   1.00
N229   N     0.14413   0.53098   0.97362   0.00000  Uiso   1.00
N230   N     0.14942   0.73353   0.96725   0.00000  Uiso   1.00
C231   C     0.84694   0.13327   0.39550   0.00000  Uiso   1.00
C232   C     0.99765   0.13293   0.54272   0.00000  Uiso   1.00
C233   C     0.09844   0.13322   0.72232   0.00000  Uiso   1.00
C234   C     0.23018   0.13282   0.83580   0.00000  Uiso   1.00
C235   C     0.45967   0.13239   0.07413   0.00000  Uiso   1.00
C236   C     0.78961   0.10511   0.28237   0.00000  Uiso   1.00
C237   C     0.71545   0.08200   0.24307   0.00000  Uiso   1.00
C238   C     0.67204   0.05819   0.13736   0.00000  Uiso   1.00
C239   C     0.57845   0.01456   0.97138   0.00000  Uiso   1.00
C240   C     0.79109   0.16093   0.28065   0.00000  Uiso   1.00
C241   C     0.71814   0.18476   0.23984   0.00000  Uiso   1.00
C242   C     0.67595   0.20795   0.13264   0.00000  Uiso   1.00
C243   C     0.58465   0.25100   0.96399   0.00000  Uiso   1.00
C244   C     0.90168   0.13206   0.27764   0.00000  Uiso   1.00
C245   C     0.02738   0.13228   0.47870   0.00000  Uiso   1.00
C246   C     0.15900   0.13189   0.59193   0.00000  Uiso   1.00
C247   C     0.25997   0.13217   0.77167   0.00000  Uiso   1.00
C248   C     0.81934   0.10445   0.21835   0.00000  Uiso   1.00
C249   C     0.77602   0.08067   0.11267   0.00000  Uiso   1.00
C250   C     0.70183   0.05753   0.07322   0.00000  Uiso   1.00
C251   C     0.82082   0.16028   0.21663   0.00000  Uiso   1.00
C252   C     0.77872   0.18343   0.10945   0.00000  Uiso   1.00
C253   C     0.70573   0.20729   0.06850   0.00000  Uiso   1.00
H254   H     0.82379   0.13378   0.44534   0.00000  Uiso   1.00
H255   H     0.07539   0.13372   0.77182   0.00000  Uiso   1.00
H256   H     0.69245   0.08251   0.29261   0.00000  Uiso   1.00
H257   H     0.69515   0.18526   0.28940   0.00000  Uiso   1.00
H258   H     0.36744   0.13336   0.10555   0.00000  Uiso   1.00
H259   H     0.55996   0.02539   0.09508   0.00000  Uiso   1.00
H260   H     0.56565   0.24205   0.08830   0.00000  Uiso   1.00
H261   H     0.92483   0.13156   0.22779   0.00000  Uiso   1.00
H262   H     0.18198   0.13138   0.54235   0.00000  Uiso   1.00
H263   H     0.79904   0.08017   0.06314   0.00000  Uiso   1.00
H264   H     0.80174   0.18292   0.05993   0.00000  Uiso   1.00
H265   H     0.45395   0.13146   0.91930   0.00000  Uiso   1.00
H266   H     0.64646   0.02349   0.90882   0.00000  Uiso   1.00
H267   H     0.65216   0.24015   0.90205   0.00000  Uiso   1.00
O268   O     0.57803   0.13232   0.22327   0.00000  Uiso   1.00
O269   O     0.51863   0.99068   0.89754   0.00000  Uiso   1.00
O270   O     0.52610   0.27493   0.88867   0.00000  Uiso   1.00
N271   N     0.35251   0.13294   0.01855   0.00000  Uiso   1.00
N272   N     0.59758   0.03200   0.07384   0.00000  Uiso   1.00
N273   N     0.60287   0.23455   0.06746   0.00000  Uiso   1.00
N274   N     0.39906   0.13192   0.91833   0.00000  Uiso   1.00
N275   N     0.64413   0.03098   0.97362   0.00000  Uiso   1.00
N276   N     0.64942   0.23353   0.96725   0.00000  Uiso   1.00
C277   C     0.65306   0.63327   0.10450   0.00000  Uiso   1.00
C278   C     0.50235   0.63293   0.95728   0.00000  Uiso   1.00
C279   C     0.40156   0.63322   0.77768   0.00000  Uiso   1.00
C280   C     0.26982   0.63282   0.66420   0.00000  Uiso   1.00
C281   C     0.04033   0.63239   0.42587   0.00000  Uiso   1.00
C282   C     0.71039   0.60511   0.21763   0.00000  Uiso   1.00
C283   C     0.78455   0.58200   0.25693   0.00000  Uiso   1.00
C284   C     0.82796   0.55819   0.36264   0.00000  Uiso   1.00
C285   C     0.92155   0.51456   0.52862   0.00000  Uiso   1.00
C286   C     0.70891   0.66093   0.21935   0.00000  Uiso   1.00
C287   C     0.78186   0.68476   0.26016   0.00000  Uiso   1.00
C288   C     0.82405   0.70795   0.36736   0.00000  Uiso   1.00
C289   C     0.91535   0.75100   0.53601   0.00000  Uiso   1.00
C290   C     0.59832   0.63206   0.22236   0.00000  Uiso   1.00
C291   C     0.47262   0.63228   0.02130   0.00000  Uiso   1.00
C292   C     0.34100   0.63189   0.90807   0.00000  Uiso   1.00
C293   C     0.24003   0.63217   0.72833   0.00000  Uiso   1.00
C294   C     0.68066   0.60445   0.28165   0.00000  Uiso   1.00
C295   C     0.72398   0.58067   0.38733   0.00000  Uiso   1.00
C296   C     0.79817   0.55753   0.42678   0.00000  Uiso   1.00
C297   C     0.67918   0.66028   0.28337   0.00000  Uiso   1.00
C298   C     0.72128   0.68343   0.39055   0.00000  Uiso   1.00
C299   C     0.79427   0.70729   0.43150   0.00000  Uiso   1.00
H300   H     0.67621   0.63378   0.05466   0.00000  Uiso   1.00
H301   H     0.42461   0.63372   0.72818   0.00000  Uiso   1.00
H302   H     0.80755   0.58251   0.20739   0.00000  Uiso   1.00
H303   H     0.80485   0.68526   0.21060   0.00000  Uiso   1.00
H304   H     0.13256   0.63336   0.39445   0.00000  Uiso   1.00
H305   H     0.94004   0.52539   0.40492   0.00000  Uiso   1.00
H306   H     0.93435   0.74205   0.41170   0.00000  Uiso   1.00
H307   H     0.57517   0.63156   0.27221   0.00000  Uiso   1.00
H308   H     0.31802   0.63138   0.95765   0.00000  Uiso   1.00
H309   H     0.70096   0.58017   0.43686   0.00000  Uiso   1.00
H310   H     0.69826   0.68292   0.44007   0.00000  Uiso   1.00
H311   H     0.04605   0.63146   0.58070   0.00000  Uiso   1.00
H312   H     0.85354   0.52349   0.59118   0.00000  Uiso   1.00
H313   H     0.84784   0.74015   0.59795   0.00000  Uiso   1.00
O314   O     0.92197   0.63232   0.27673   0.00000  Uiso   1.00
O315   O     0.98137   0.49068   0.60246   0.00000  Uiso   1.00
O316   O     0.97390   0.77493   0.61133   0.00000  Uiso   1.00
N317   N     0.14749   0.63294   0.48145   0.00000  Uiso   1.00
N318   N     0.90242   0.53200   0.42616   0.00000  Uiso   1.00
N319   N     0.89713   0.73455   0.43254   0.00000  Uiso   1.00
N320   N     0.10094   0.63192   0.58167   0.00000  Uiso   1.00
N321   N     0.85587   0.53098   0.52638   0.00000  Uiso   1.00
N322   N     0.85058   0.73353   0.53275   0.00000  Uiso   1.00
C323   C     0.15306   0.13327   0.10450   0.00000  Uiso   1.00
C324   C     0.00235   0.13293   0.95728   0.00000  Uiso   1.00
C325   C     0.90156   0.13322   0.77768   0.00000  Uiso   1.00
C326   C     0.76982   0.13282   0.66420   0.00000  Uiso   1.00
C327   C     0.54033   0.13239   0.42587   0.00000  Uiso   1.00
C328   C     0.21039   0.10511   0.21763   0.00000  Uiso   1.00
C329   C     0.28455   0.08200   0.25693   0.00000  Uiso   1.00
C330   C     0.32796   0.05819   0.36264   0.00000  Uiso   1.00
C331   C     0.42155   0.01456   0.52862   0.00000  Uiso   1.00
C332   C     0.20891   0.16093   0.21935   0.00000  Uiso   1.00
C333   C     0.28186   0.18476   0.26016   0.00000  Uiso   1.00
C334   C     0.32405   0.20795   0.36736   0.00000  Uiso   1.00
C335   C     0.41535   0.25100   0.53601   0.00000  Uiso   1.00
C336   C     0.09832   0.13206   0.22236   0.00000  Uiso   1.00
C337   C     0.97262   0.13228   0.02130   0.00000  Uiso   1.00
C338   C     0.84100   0.13189   0.90807   0.00000  Uiso   1.00
C339   C     0.74003   0.13217   0.72833   0.00000  Uiso   1.00
C340   C     0.18066   0.10445   0.28165   0.00000  Uiso   1.00
C341   C     0.22398   0.08067   0.38733   0.00000  Uiso   1.00
C342   C     0.29817   0.05753   0.42678   0.00000  Uiso   1.00
C343   C     0.17918   0.16028   0.28337   0.00000  Uiso   1.00
C344   C     0.22128   0.18343   0.39055   0.00000  Uiso   1.00
C345   C     0.29427   0.20729   0.43150   0.00000  Uiso   1.00
H346   H     0.17621   0.13378   0.05466   0.00000  Uiso   1.00
H347   H     0.92461   0.13372   0.72818   0.00000  Uiso   1.00
H348   H     0.30755   0.08251   0.20739   0.00000  Uiso   1.00
H349   H     0.30485   0.18526   0.21060   0.00000  Uiso   1.00
H350   H     0.63256   0.13336   0.39445   0.00000  Uiso   1.00
H351   H     0.44004   0.02539   0.40492   0.00000  Uiso   1.00
H352   H     0.43435   0.24205   0.41170   0.00000  Uiso   1.00
H353   H     0.07517   0.13156   0.27221   0.00000  Uiso   1.00
H354   H     0.81802   0.13138   0.95765   0.00000  Uiso   1.00
H355   H     0.20096   0.08017   0.43686   0.00000  Uiso   1.00
H356   H     0.19826   0.18292   0.44007   0.00000  Uiso   1.00
H357   H     0.54605   0.13146   0.58070   0.00000  Uiso   1.00
H358   H     0.35354   0.02349   0.59118   0.00000  Uiso   1.00
H359   H     0.34784   0.24015   0.59795   0.00000  Uiso   1.00
O360   O     0.42197   0.13232   0.27673   0.00000  Uiso   1.00
O361   O     0.48137   0.99068   0.60246   0.00000  Uiso   1.00
O362   O     0.47390   0.27493   0.61133   0.00000  Uiso   1.00
N363   N     0.64749   0.13294   0.48145   0.00000  Uiso   1.00
N364   N     0.40242   0.03200   0.42616   0.00000  Uiso   1.00
N365   N     0.39713   0.23455   0.43254   0.00000  Uiso   1.00
N366   N     0.60094   0.13192   0.58167   0.00000  Uiso   1.00
N367   N     0.35587   0.03098   0.52638   0.00000  Uiso   1.00
N368   N     0.35058   0.23353   0.53275   0.00000  Uiso   1.00
