data_job_03594
_audit_creation_date              2018-12-19
_audit_creation_method            'Materials Studio'
_symmetry_space_group_name_H-M    'P1'
_symmetry_Int_Tables_number       1
_symmetry_cell_setting            triclinic
loop_
_symmetry_equiv_pos_as_xyz
  x,y,z
_cell_length_a                    12.0495
_cell_length_b                    15.0147
_cell_length_c                    21.2148
_cell_angle_alpha                 107.8444
_cell_angle_beta                  95.4662
_cell_angle_gamma                 68.9719
loop_
_atom_site_label
_atom_site_type_symbol
_atom_site_fract_x
_atom_site_fract_y
_atom_site_fract_z
_atom_site_U_iso_or_equiv
_atom_site_adp_type
_atom_site_occupancy
C1     C     0.92611   0.16426   0.17430   0.00000  Uiso   1.00
C2     C     0.04464   0.12746   0.13785   0.00000  Uiso   1.00
C3     C     0.11452   0.02835   0.11038   0.00000  Uiso   1.00
C4     C     0.21990   0.01015   0.07910   0.00000  Uiso   1.00
C5     C     0.39878   0.94112   0.02308   0.00000  Uiso   1.00
C6     C     0.94049   0.23192   0.24234   0.00000  Uiso   1.00
C7     C     0.92279   0.22064   0.30272   0.00000  Uiso   1.00
C8     C     0.94048   0.29038   0.35940   0.00000  Uiso   1.00
C9     C     0.95758   0.38357   0.46560   0.00000  Uiso   1.00
C10    C     0.83629   0.23202   0.13814   0.00000  Uiso   1.00
C11    C     0.73096   0.22085   0.11092   0.00000  Uiso   1.00
C12    C     0.66091   0.29070   0.07989   0.00000  Uiso   1.00
C13    C     0.51623   0.38405   0.02430   0.00000  Uiso   1.00
C14    C     0.98898   0.30818   0.16760   0.00000  Uiso   1.00
C15    C     0.07878   0.20564   0.13421   0.00000  Uiso   1.00
C16    C     0.18408   0.18758   0.10297   0.00000  Uiso   1.00
C17    C     0.25411   0.08846   0.07545   0.00000  Uiso   1.00
C18    C     0.97464   0.31009   0.23870   0.00000  Uiso   1.00
C19    C     0.99235   0.37987   0.29531   0.00000  Uiso   1.00
C20    C     0.97469   0.36870   0.35576   0.00000  Uiso   1.00
C21    C     0.87044   0.31020   0.13450   0.00000  Uiso   1.00
C22    C     0.80053   0.38008   0.10351   0.00000  Uiso   1.00
C23    C     0.69512   0.36902   0.07625   0.00000  Uiso   1.00
H24    H     0.89952   0.10340   0.17714   0.00000  Uiso   1.00
H25    H     0.08807   0.96787   0.11321   0.00000  Uiso   1.00
H26    H     0.89635   0.16014   0.30552   0.00000  Uiso   1.00
H27    H     0.70457   0.16035   0.11375   0.00000  Uiso   1.00
H28    H     0.31219   0.85209   0.04075   0.00000  Uiso   1.00
H29    H     0.90790   0.25752   0.44624   0.00000  Uiso   1.00
H30    H     0.50348   0.25796   0.04186   0.00000  Uiso   1.00
H31    H     0.01557   0.36905   0.16477   0.00000  Uiso   1.00
H32    H     0.21049   0.24809   0.10016   0.00000  Uiso   1.00
H33    H     0.01877   0.44036   0.29247   0.00000  Uiso   1.00
H34    H     0.82699   0.44057   0.10070   0.00000  Uiso   1.00
H35    H     0.41155   0.07953   0.03016   0.00000  Uiso   1.00
H36    H     0.00726   0.48496   0.43566   0.00000  Uiso   1.00
H37    H     0.60285   0.48540   0.03127   0.00000  Uiso   1.00
O38    O     0.48802   0.88145   0.99319   0.00000  Uiso   1.00
O39    O     0.95759   0.41337   0.52519   0.00000  Uiso   1.00
O40    O     0.42701   0.41394   0.99464   0.00000  Uiso   1.00
N41    N     0.30881   0.92222   0.04711   0.00000  Uiso   1.00
N42    N     0.93085   0.30126   0.42623   0.00000  Uiso   1.00
N43    N     0.55273   0.30169   0.04817   0.00000  Uiso   1.00
N44    N     0.36228   0.04460   0.04141   0.00000  Uiso   1.00
N45    N     0.98431   0.42364   0.42053   0.00000  Uiso   1.00
N46    N     0.60620   0.42407   0.04248   0.00000  Uiso   1.00
C47    C     0.07389   0.83574   0.82570   0.00000  Uiso   1.00
C48    C     0.95536   0.87254   0.86215   0.00000  Uiso   1.00
C49    C     0.88548   0.97165   0.88962   0.00000  Uiso   1.00
C50    C     0.78010   0.98985   0.92090   0.00000  Uiso   1.00
C51    C     0.60122   0.05888   0.97692   0.00000  Uiso   1.00
C52    C     0.05951   0.76808   0.75766   0.00000  Uiso   1.00
C53    C     0.07721   0.77936   0.69728   0.00000  Uiso   1.00
C54    C     0.05952   0.70962   0.64060   0.00000  Uiso   1.00
C55    C     0.04242   0.61643   0.53440   0.00000  Uiso   1.00
C56    C     0.16371   0.76798   0.86186   0.00000  Uiso   1.00
C57    C     0.26904   0.77915   0.88908   0.00000  Uiso   1.00
C58    C     0.33909   0.70930   0.92011   0.00000  Uiso   1.00
C59    C     0.48377   0.61595   0.97570   0.00000  Uiso   1.00
C60    C     0.01102   0.69182   0.83240   0.00000  Uiso   1.00
C61    C     0.92122   0.79436   0.86579   0.00000  Uiso   1.00
C62    C     0.81592   0.81242   0.89703   0.00000  Uiso   1.00
C63    C     0.74589   0.91154   0.92455   0.00000  Uiso   1.00
C64    C     0.02536   0.68991   0.76130   0.00000  Uiso   1.00
C65    C     0.00765   0.62013   0.70469   0.00000  Uiso   1.00
C66    C     0.02531   0.63130   0.64424   0.00000  Uiso   1.00
C67    C     0.12956   0.68980   0.86550   0.00000  Uiso   1.00
C68    C     0.19947   0.61992   0.89649   0.00000  Uiso   1.00
C69    C     0.30488   0.63098   0.92375   0.00000  Uiso   1.00
H70    H     0.10048   0.89660   0.82286   0.00000  Uiso   1.00
H71    H     0.91193   0.03213   0.88679   0.00000  Uiso   1.00
H72    H     0.10365   0.83986   0.69448   0.00000  Uiso   1.00
H73    H     0.29543   0.83965   0.88625   0.00000  Uiso   1.00
H74    H     0.68781   0.14791   0.95925   0.00000  Uiso   1.00
H75    H     0.09210   0.74248   0.55376   0.00000  Uiso   1.00
H76    H     0.49652   0.74204   0.95814   0.00000  Uiso   1.00
H77    H     0.98443   0.63095   0.83523   0.00000  Uiso   1.00
H78    H     0.78951   0.75191   0.89984   0.00000  Uiso   1.00
H79    H     0.98123   0.55964   0.70753   0.00000  Uiso   1.00
H80    H     0.17301   0.55943   0.89930   0.00000  Uiso   1.00
H81    H     0.58845   0.92047   0.96984   0.00000  Uiso   1.00
H82    H     0.99274   0.51504   0.56434   0.00000  Uiso   1.00
H83    H     0.39715   0.51460   0.96873   0.00000  Uiso   1.00
O84    O     0.51198   0.11855   0.00681   0.00000  Uiso   1.00
O85    O     0.04241   0.58663   0.47481   0.00000  Uiso   1.00
O86    O     0.57299   0.58606   0.00536   0.00000  Uiso   1.00
N87    N     0.69119   0.07778   0.95289   0.00000  Uiso   1.00
N88    N     0.06915   0.69874   0.57377   0.00000  Uiso   1.00
N89    N     0.44727   0.69831   0.95183   0.00000  Uiso   1.00
N90    N     0.63772   0.95540   0.95859   0.00000  Uiso   1.00
N91    N     0.01569   0.57636   0.57947   0.00000  Uiso   1.00
N92    N     0.39380   0.57593   0.95752   0.00000  Uiso   1.00
