data_job_05621
_audit_creation_date              2018-12-19
_audit_creation_method            'Materials Studio'
_symmetry_space_group_name_H-M    'P1'
_symmetry_Int_Tables_number       1
_symmetry_cell_setting            triclinic
loop_
_symmetry_equiv_pos_as_xyz
  x,y,z
_cell_length_a                    11.4563
_cell_length_b                    20.5507
_cell_length_c                    23.6613
_cell_angle_alpha                 90.0000
_cell_angle_beta                  90.0000
_cell_angle_gamma                 90.0000
loop_
_atom_site_label
_atom_site_type_symbol
_atom_site_fract_x
_atom_site_fract_y
_atom_site_fract_z
_atom_site_U_iso_or_equiv
_atom_site_adp_type
_atom_site_occupancy
C1     C     0.88055   0.17337   0.13565   0.00000  Uiso   1.00
C2     C     0.98562   0.14718   0.16802   0.00000  Uiso   1.00
C3     C     0.03694   0.17612   0.21483   0.00000  Uiso   1.00
C4     C     0.13235   0.14452   0.23840   0.00000  Uiso   1.00
C5     C     0.28908   0.11275   0.29207   0.00000  Uiso   1.00
C6     C     0.91990   0.18007   0.07436   0.00000  Uiso   1.00
C7     C     0.91596   0.23666   0.04241   0.00000  Uiso   1.00
C8     C     0.95604   0.23275   0.98713   0.00000  Uiso   1.00
C9     C     0.01065   0.25204   0.89537   0.00000  Uiso   1.00
C10    C     0.78970   0.11915   0.13622   0.00000  Uiso   1.00
C11    C     0.67627   0.12452   0.15627   0.00000  Uiso   1.00
C12    C     0.60671   0.06931   0.15307   0.00000  Uiso   1.00
C13    C     0.45917   0.99400   0.15736   0.00000  Uiso   1.00
C14    C     0.95872   0.06579   0.09429   0.00000  Uiso   1.00
C15    C     0.02808   0.08875   0.14556   0.00000  Uiso   1.00
C16    C     0.12343   0.05709   0.16907   0.00000  Uiso   1.00
C17    C     0.17489   0.08598   0.21590   0.00000  Uiso   1.00
C18    C     0.96236   0.12164   0.05189   0.00000  Uiso   1.00
C19    C     0.00244   0.11764   0.99665   0.00000  Uiso   1.00
C20    C     0.99857   0.17421   0.96463   0.00000  Uiso   1.00
C21    C     0.83216   0.06071   0.11376   0.00000  Uiso   1.00
C22    C     0.76276   0.00549   0.11052   0.00000  Uiso   1.00
C23    C     0.64925   0.01077   0.13056   0.00000  Uiso   1.00
H24    H     0.84749   0.21887   0.15313   0.00000  Uiso   1.00
H25    H     0.00407   0.22134   0.23220   0.00000  Uiso   1.00
H26    H     0.88309   0.28187   0.05980   0.00000  Uiso   1.00
H27    H     0.64344   0.16974   0.17365   0.00000  Uiso   1.00
H28    H     0.19641   0.19833   0.30993   0.00000  Uiso   1.00
H29    H     0.94128   0.32596   0.94642   0.00000  Uiso   1.00
H30    H     0.43593   0.08951   0.18650   0.00000  Uiso   1.00
H31    H     0.99178   0.02030   0.07680   0.00000  Uiso   1.00
H32    H     0.15627   0.01187   0.15168   0.00000  Uiso   1.00
H33    H     0.03529   0.07241   0.97928   0.00000  Uiso   1.00
H34    H     0.79565   0.96028   0.09313   0.00000  Uiso   1.00
H35    H     0.31994   0.02832   0.24458   0.00000  Uiso   1.00
H36    H     0.06481   0.15595   0.88107   0.00000  Uiso   1.00
H37    H     0.55947   0.91950   0.12114   0.00000  Uiso   1.00
O38    O     0.36380   0.11138   0.32787   0.00000  Uiso   1.00
O39    O     0.02906   0.27882   0.85097   0.00000  Uiso   1.00
O40    O     0.36607   0.96861   0.16594   0.00000  Uiso   1.00
N41    N     0.20289   0.15947   0.28428   0.00000  Uiso   1.00
N42    N     0.96438   0.27880   0.94443   0.00000  Uiso   1.00
N43    N     0.49192   0.05774   0.16886   0.00000  Uiso   1.00
N44    N     0.26937   0.06799   0.24911   0.00000  Uiso   1.00
N45    N     0.03085   0.18731   0.90926   0.00000  Uiso   1.00
N46    N     0.55839   0.96626   0.13369   0.00000  Uiso   1.00
C47    C     0.61945   0.32663   0.13565   0.00000  Uiso   1.00
C48    C     0.51438   0.35282   0.16802   0.00000  Uiso   1.00
C49    C     0.46306   0.32388   0.21483   0.00000  Uiso   1.00
C50    C     0.36765   0.35548   0.23840   0.00000  Uiso   1.00
C51    C     0.21092   0.38725   0.29207   0.00000  Uiso   1.00
C52    C     0.58010   0.31993   0.07436   0.00000  Uiso   1.00
C53    C     0.58404   0.26334   0.04241   0.00000  Uiso   1.00
C54    C     0.54396   0.26725   0.98713   0.00000  Uiso   1.00
C55    C     0.48935   0.24796   0.89537   0.00000  Uiso   1.00
C56    C     0.71030   0.38085   0.13622   0.00000  Uiso   1.00
C57    C     0.82373   0.37548   0.15627   0.00000  Uiso   1.00
C58    C     0.89329   0.43069   0.15307   0.00000  Uiso   1.00
C59    C     0.04083   0.50600   0.15736   0.00000  Uiso   1.00
C60    C     0.54128   0.43421   0.09429   0.00000  Uiso   1.00
C61    C     0.47192   0.41125   0.14556   0.00000  Uiso   1.00
C62    C     0.37657   0.44291   0.16907   0.00000  Uiso   1.00
C63    C     0.32511   0.41402   0.21590   0.00000  Uiso   1.00
C64    C     0.53764   0.37836   0.05189   0.00000  Uiso   1.00
C65    C     0.49756   0.38236   0.99665   0.00000  Uiso   1.00
C66    C     0.50143   0.32579   0.96463   0.00000  Uiso   1.00
C67    C     0.66784   0.43929   0.11376   0.00000  Uiso   1.00
C68    C     0.73724   0.49451   0.11052   0.00000  Uiso   1.00
C69    C     0.85075   0.48923   0.13056   0.00000  Uiso   1.00
H70    H     0.65251   0.28113   0.15313   0.00000  Uiso   1.00
H71    H     0.49593   0.27866   0.23220   0.00000  Uiso   1.00
H72    H     0.61691   0.21813   0.05980   0.00000  Uiso   1.00
H73    H     0.85656   0.33026   0.17365   0.00000  Uiso   1.00
H74    H     0.30359   0.30167   0.30993   0.00000  Uiso   1.00
H75    H     0.55872   0.17404   0.94642   0.00000  Uiso   1.00
H76    H     0.06407   0.41049   0.18650   0.00000  Uiso   1.00
H77    H     0.50822   0.47970   0.07680   0.00000  Uiso   1.00
H78    H     0.34373   0.48813   0.15168   0.00000  Uiso   1.00
H79    H     0.46471   0.42759   0.97928   0.00000  Uiso   1.00
H80    H     0.70435   0.53972   0.09313   0.00000  Uiso   1.00
H81    H     0.18006   0.47168   0.24458   0.00000  Uiso   1.00
H82    H     0.43519   0.34405   0.88107   0.00000  Uiso   1.00
H83    H     0.94053   0.58050   0.12114   0.00000  Uiso   1.00
O84    O     0.13620   0.38862   0.32787   0.00000  Uiso   1.00
O85    O     0.47094   0.22118   0.85097   0.00000  Uiso   1.00
O86    O     0.13393   0.53139   0.16594   0.00000  Uiso   1.00
N87    N     0.29711   0.34053   0.28428   0.00000  Uiso   1.00
N88    N     0.53562   0.22120   0.94443   0.00000  Uiso   1.00
N89    N     0.00808   0.44226   0.16886   0.00000  Uiso   1.00
N90    N     0.23063   0.43201   0.24911   0.00000  Uiso   1.00
N91    N     0.46915   0.31269   0.90926   0.00000  Uiso   1.00
N92    N     0.94161   0.53374   0.13369   0.00000  Uiso   1.00
C93    C     0.11945   0.67337   0.36435   0.00000  Uiso   1.00
C94    C     0.01438   0.64718   0.33198   0.00000  Uiso   1.00
C95    C     0.96306   0.67612   0.28517   0.00000  Uiso   1.00
C96    C     0.86765   0.64452   0.26160   0.00000  Uiso   1.00
C97    C     0.71092   0.61275   0.20793   0.00000  Uiso   1.00
C98    C     0.08010   0.68007   0.42564   0.00000  Uiso   1.00
C99    C     0.08404   0.73666   0.45759   0.00000  Uiso   1.00
C100   C     0.04396   0.73275   0.51287   0.00000  Uiso   1.00
C101   C     0.98935   0.75204   0.60463   0.00000  Uiso   1.00
C102   C     0.21030   0.61915   0.36378   0.00000  Uiso   1.00
C103   C     0.32373   0.62452   0.34373   0.00000  Uiso   1.00
C104   C     0.39329   0.56931   0.34693   0.00000  Uiso   1.00
C105   C     0.54083   0.49400   0.34264   0.00000  Uiso   1.00
C106   C     0.04128   0.56579   0.40571   0.00000  Uiso   1.00
C107   C     0.97192   0.58875   0.35444   0.00000  Uiso   1.00
C108   C     0.87657   0.55709   0.33093   0.00000  Uiso   1.00
C109   C     0.82511   0.58598   0.28410   0.00000  Uiso   1.00
C110   C     0.03764   0.62164   0.44811   0.00000  Uiso   1.00
C111   C     0.99756   0.61764   0.50335   0.00000  Uiso   1.00
C112   C     0.00143   0.67421   0.53537   0.00000  Uiso   1.00
C113   C     0.16784   0.56071   0.38624   0.00000  Uiso   1.00
C114   C     0.23724   0.50549   0.38948   0.00000  Uiso   1.00
C115   C     0.35075   0.51077   0.36944   0.00000  Uiso   1.00
H116   H     0.15251   0.71887   0.34687   0.00000  Uiso   1.00
H117   H     0.99593   0.72134   0.26780   0.00000  Uiso   1.00
H118   H     0.11691   0.78187   0.44020   0.00000  Uiso   1.00
H119   H     0.35656   0.66974   0.32635   0.00000  Uiso   1.00
H120   H     0.80359   0.69833   0.19007   0.00000  Uiso   1.00
H121   H     0.05872   0.82596   0.55358   0.00000  Uiso   1.00
H122   H     0.56407   0.58951   0.31350   0.00000  Uiso   1.00
H123   H     0.00822   0.52030   0.42320   0.00000  Uiso   1.00
H124   H     0.84373   0.51187   0.34832   0.00000  Uiso   1.00
H125   H     0.96471   0.57241   0.52072   0.00000  Uiso   1.00
H126   H     0.20435   0.46028   0.40687   0.00000  Uiso   1.00
H127   H     0.68006   0.52832   0.25542   0.00000  Uiso   1.00
H128   H     0.93519   0.65595   0.61893   0.00000  Uiso   1.00
H129   H     0.44053   0.41950   0.37886   0.00000  Uiso   1.00
O130   O     0.63620   0.61138   0.17213   0.00000  Uiso   1.00
O131   O     0.97094   0.77882   0.64903   0.00000  Uiso   1.00
O132   O     0.63393   0.46861   0.33406   0.00000  Uiso   1.00
N133   N     0.79711   0.65947   0.21572   0.00000  Uiso   1.00
N134   N     0.03562   0.77880   0.55557   0.00000  Uiso   1.00
N135   N     0.50808   0.55774   0.33114   0.00000  Uiso   1.00
N136   N     0.73063   0.56799   0.25089   0.00000  Uiso   1.00
N137   N     0.96915   0.68731   0.59074   0.00000  Uiso   1.00
N138   N     0.44161   0.46626   0.36631   0.00000  Uiso   1.00
C139   C     0.38055   0.82663   0.36435   0.00000  Uiso   1.00
C140   C     0.48562   0.85282   0.33198   0.00000  Uiso   1.00
C141   C     0.53694   0.82388   0.28517   0.00000  Uiso   1.00
C142   C     0.63235   0.85548   0.26160   0.00000  Uiso   1.00
C143   C     0.78908   0.88725   0.20793   0.00000  Uiso   1.00
C144   C     0.41990   0.81993   0.42564   0.00000  Uiso   1.00
C145   C     0.41596   0.76334   0.45759   0.00000  Uiso   1.00
C146   C     0.45604   0.76725   0.51287   0.00000  Uiso   1.00
C147   C     0.51065   0.74796   0.60463   0.00000  Uiso   1.00
C148   C     0.28970   0.88085   0.36378   0.00000  Uiso   1.00
C149   C     0.17627   0.87548   0.34373   0.00000  Uiso   1.00
C150   C     0.10671   0.93069   0.34693   0.00000  Uiso   1.00
C151   C     0.95917   0.00600   0.34264   0.00000  Uiso   1.00
C152   C     0.45872   0.93421   0.40571   0.00000  Uiso   1.00
C153   C     0.52808   0.91125   0.35444   0.00000  Uiso   1.00
C154   C     0.62343   0.94291   0.33093   0.00000  Uiso   1.00
C155   C     0.67489   0.91402   0.28410   0.00000  Uiso   1.00
C156   C     0.46236   0.87836   0.44811   0.00000  Uiso   1.00
C157   C     0.50244   0.88236   0.50335   0.00000  Uiso   1.00
C158   C     0.49857   0.82579   0.53537   0.00000  Uiso   1.00
C159   C     0.33216   0.93929   0.38624   0.00000  Uiso   1.00
C160   C     0.26276   0.99451   0.38948   0.00000  Uiso   1.00
C161   C     0.14925   0.98923   0.36944   0.00000  Uiso   1.00
H162   H     0.34749   0.78113   0.34687   0.00000  Uiso   1.00
H163   H     0.50407   0.77866   0.26780   0.00000  Uiso   1.00
H164   H     0.38309   0.71813   0.44020   0.00000  Uiso   1.00
H165   H     0.14344   0.83026   0.32635   0.00000  Uiso   1.00
H166   H     0.69641   0.80167   0.19007   0.00000  Uiso   1.00
H167   H     0.44128   0.67404   0.55358   0.00000  Uiso   1.00
H168   H     0.93593   0.91049   0.31350   0.00000  Uiso   1.00
H169   H     0.49178   0.97970   0.42320   0.00000  Uiso   1.00
H170   H     0.65627   0.98813   0.34832   0.00000  Uiso   1.00
H171   H     0.53529   0.92759   0.52072   0.00000  Uiso   1.00
H172   H     0.29565   0.03972   0.40687   0.00000  Uiso   1.00
H173   H     0.81994   0.97168   0.25542   0.00000  Uiso   1.00
H174   H     0.56481   0.84405   0.61893   0.00000  Uiso   1.00
H175   H     0.05947   0.08050   0.37886   0.00000  Uiso   1.00
O176   O     0.86380   0.88862   0.17213   0.00000  Uiso   1.00
O177   O     0.52906   0.72118   0.64903   0.00000  Uiso   1.00
O178   O     0.86607   0.03139   0.33406   0.00000  Uiso   1.00
N179   N     0.70289   0.84053   0.21572   0.00000  Uiso   1.00
N180   N     0.46438   0.72120   0.55557   0.00000  Uiso   1.00
N181   N     0.99192   0.94226   0.33114   0.00000  Uiso   1.00
N182   N     0.76937   0.93201   0.25089   0.00000  Uiso   1.00
N183   N     0.53085   0.81269   0.59074   0.00000  Uiso   1.00
N184   N     0.05839   0.03374   0.36631   0.00000  Uiso   1.00
C185   C     0.11945   0.82663   0.86435   0.00000  Uiso   1.00
C186   C     0.01438   0.85282   0.83198   0.00000  Uiso   1.00
C187   C     0.96306   0.82388   0.78517   0.00000  Uiso   1.00
C188   C     0.86765   0.85548   0.76160   0.00000  Uiso   1.00
C189   C     0.71092   0.88725   0.70793   0.00000  Uiso   1.00
C190   C     0.08010   0.81993   0.92564   0.00000  Uiso   1.00
C191   C     0.08404   0.76334   0.95759   0.00000  Uiso   1.00
C192   C     0.04396   0.76725   0.01287   0.00000  Uiso   1.00
C193   C     0.98935   0.74796   0.10463   0.00000  Uiso   1.00
C194   C     0.21030   0.88085   0.86378   0.00000  Uiso   1.00
C195   C     0.32373   0.87548   0.84373   0.00000  Uiso   1.00
C196   C     0.39329   0.93069   0.84693   0.00000  Uiso   1.00
C197   C     0.54083   0.00600   0.84264   0.00000  Uiso   1.00
C198   C     0.04128   0.93421   0.90571   0.00000  Uiso   1.00
C199   C     0.97192   0.91125   0.85444   0.00000  Uiso   1.00
C200   C     0.87657   0.94291   0.83093   0.00000  Uiso   1.00
C201   C     0.82511   0.91402   0.78410   0.00000  Uiso   1.00
C202   C     0.03764   0.87836   0.94811   0.00000  Uiso   1.00
C203   C     0.99756   0.88236   0.00335   0.00000  Uiso   1.00
C204   C     0.00143   0.82579   0.03537   0.00000  Uiso   1.00
C205   C     0.16784   0.93929   0.88624   0.00000  Uiso   1.00
C206   C     0.23724   0.99451   0.88948   0.00000  Uiso   1.00
C207   C     0.35075   0.98923   0.86944   0.00000  Uiso   1.00
H208   H     0.15251   0.78113   0.84687   0.00000  Uiso   1.00
H209   H     0.99593   0.77866   0.76780   0.00000  Uiso   1.00
H210   H     0.11691   0.71813   0.94020   0.00000  Uiso   1.00
H211   H     0.35656   0.83026   0.82635   0.00000  Uiso   1.00
H212   H     0.80359   0.80167   0.69007   0.00000  Uiso   1.00
H213   H     0.05872   0.67404   0.05358   0.00000  Uiso   1.00
H214   H     0.56407   0.91049   0.81350   0.00000  Uiso   1.00
H215   H     0.00822   0.97970   0.92320   0.00000  Uiso   1.00
H216   H     0.84373   0.98813   0.84832   0.00000  Uiso   1.00
H217   H     0.96471   0.92759   0.02072   0.00000  Uiso   1.00
H218   H     0.20435   0.03972   0.90687   0.00000  Uiso   1.00
H219   H     0.68006   0.97168   0.75542   0.00000  Uiso   1.00
H220   H     0.93519   0.84405   0.11893   0.00000  Uiso   1.00
H221   H     0.44053   0.08050   0.87886   0.00000  Uiso   1.00
O222   O     0.63620   0.88862   0.67213   0.00000  Uiso   1.00
O223   O     0.97094   0.72118   0.14903   0.00000  Uiso   1.00
O224   O     0.63393   0.03139   0.83406   0.00000  Uiso   1.00
N225   N     0.79711   0.84053   0.71572   0.00000  Uiso   1.00
N226   N     0.03562   0.72120   0.05557   0.00000  Uiso   1.00
N227   N     0.50808   0.94226   0.83114   0.00000  Uiso   1.00
N228   N     0.73063   0.93201   0.75089   0.00000  Uiso   1.00
N229   N     0.96915   0.81269   0.09074   0.00000  Uiso   1.00
N230   N     0.44161   0.03374   0.86631   0.00000  Uiso   1.00
C231   C     0.38055   0.67337   0.86435   0.00000  Uiso   1.00
C232   C     0.48562   0.64718   0.83198   0.00000  Uiso   1.00
C233   C     0.53694   0.67612   0.78517   0.00000  Uiso   1.00
C234   C     0.63235   0.64452   0.76160   0.00000  Uiso   1.00
C235   C     0.78908   0.61275   0.70793   0.00000  Uiso   1.00
C236   C     0.41990   0.68007   0.92564   0.00000  Uiso   1.00
C237   C     0.41596   0.73666   0.95759   0.00000  Uiso   1.00
C238   C     0.45604   0.73275   0.01287   0.00000  Uiso   1.00
C239   C     0.51065   0.75204   0.10463   0.00000  Uiso   1.00
C240   C     0.28970   0.61915   0.86378   0.00000  Uiso   1.00
C241   C     0.17627   0.62452   0.84373   0.00000  Uiso   1.00
C242   C     0.10671   0.56931   0.84693   0.00000  Uiso   1.00
C243   C     0.95917   0.49400   0.84264   0.00000  Uiso   1.00
C244   C     0.45872   0.56579   0.90571   0.00000  Uiso   1.00
C245   C     0.52808   0.58875   0.85444   0.00000  Uiso   1.00
C246   C     0.62343   0.55709   0.83093   0.00000  Uiso   1.00
C247   C     0.67489   0.58598   0.78410   0.00000  Uiso   1.00
C248   C     0.46236   0.62164   0.94811   0.00000  Uiso   1.00
C249   C     0.50244   0.61764   0.00335   0.00000  Uiso   1.00
C250   C     0.49857   0.67421   0.03537   0.00000  Uiso   1.00
C251   C     0.33216   0.56071   0.88624   0.00000  Uiso   1.00
C252   C     0.26276   0.50549   0.88948   0.00000  Uiso   1.00
C253   C     0.14925   0.51077   0.86944   0.00000  Uiso   1.00
H254   H     0.34749   0.71887   0.84687   0.00000  Uiso   1.00
H255   H     0.50407   0.72134   0.76780   0.00000  Uiso   1.00
H256   H     0.38309   0.78187   0.94020   0.00000  Uiso   1.00
H257   H     0.14344   0.66974   0.82635   0.00000  Uiso   1.00
H258   H     0.69641   0.69833   0.69007   0.00000  Uiso   1.00
H259   H     0.44128   0.82596   0.05358   0.00000  Uiso   1.00
H260   H     0.93593   0.58951   0.81350   0.00000  Uiso   1.00
H261   H     0.49178   0.52030   0.92320   0.00000  Uiso   1.00
H262   H     0.65627   0.51187   0.84832   0.00000  Uiso   1.00
H263   H     0.53529   0.57241   0.02072   0.00000  Uiso   1.00
H264   H     0.29565   0.46028   0.90687   0.00000  Uiso   1.00
H265   H     0.81994   0.52832   0.75542   0.00000  Uiso   1.00
H266   H     0.56481   0.65595   0.11893   0.00000  Uiso   1.00
H267   H     0.05947   0.41950   0.87886   0.00000  Uiso   1.00
O268   O     0.86380   0.61138   0.67213   0.00000  Uiso   1.00
O269   O     0.52906   0.77882   0.14903   0.00000  Uiso   1.00
O270   O     0.86607   0.46861   0.83406   0.00000  Uiso   1.00
N271   N     0.70289   0.65947   0.71572   0.00000  Uiso   1.00
N272   N     0.46438   0.77880   0.05557   0.00000  Uiso   1.00
N273   N     0.99192   0.55774   0.83114   0.00000  Uiso   1.00
N274   N     0.76937   0.56799   0.75089   0.00000  Uiso   1.00
N275   N     0.53085   0.68731   0.09074   0.00000  Uiso   1.00
N276   N     0.05839   0.46626   0.86631   0.00000  Uiso   1.00
C277   C     0.88055   0.32663   0.63565   0.00000  Uiso   1.00
C278   C     0.98562   0.35282   0.66802   0.00000  Uiso   1.00
C279   C     0.03694   0.32388   0.71483   0.00000  Uiso   1.00
C280   C     0.13235   0.35548   0.73840   0.00000  Uiso   1.00
C281   C     0.28908   0.38725   0.79207   0.00000  Uiso   1.00
C282   C     0.91990   0.31993   0.57436   0.00000  Uiso   1.00
C283   C     0.91596   0.26334   0.54241   0.00000  Uiso   1.00
C284   C     0.95604   0.26725   0.48713   0.00000  Uiso   1.00
C285   C     0.01065   0.24796   0.39537   0.00000  Uiso   1.00
C286   C     0.78970   0.38085   0.63622   0.00000  Uiso   1.00
C287   C     0.67627   0.37548   0.65627   0.00000  Uiso   1.00
C288   C     0.60671   0.43069   0.65307   0.00000  Uiso   1.00
C289   C     0.45917   0.50600   0.65736   0.00000  Uiso   1.00
C290   C     0.95872   0.43421   0.59429   0.00000  Uiso   1.00
C291   C     0.02808   0.41125   0.64556   0.00000  Uiso   1.00
C292   C     0.12343   0.44291   0.66907   0.00000  Uiso   1.00
C293   C     0.17489   0.41402   0.71590   0.00000  Uiso   1.00
C294   C     0.96236   0.37836   0.55189   0.00000  Uiso   1.00
C295   C     0.00244   0.38236   0.49665   0.00000  Uiso   1.00
C296   C     0.99857   0.32579   0.46463   0.00000  Uiso   1.00
C297   C     0.83216   0.43929   0.61376   0.00000  Uiso   1.00
C298   C     0.76276   0.49451   0.61052   0.00000  Uiso   1.00
C299   C     0.64925   0.48923   0.63056   0.00000  Uiso   1.00
H300   H     0.84749   0.28113   0.65313   0.00000  Uiso   1.00
H301   H     0.00407   0.27866   0.73220   0.00000  Uiso   1.00
H302   H     0.88309   0.21813   0.55980   0.00000  Uiso   1.00
H303   H     0.64344   0.33026   0.67365   0.00000  Uiso   1.00
H304   H     0.19641   0.30167   0.80993   0.00000  Uiso   1.00
H305   H     0.94128   0.17404   0.44642   0.00000  Uiso   1.00
H306   H     0.43593   0.41049   0.68650   0.00000  Uiso   1.00
H307   H     0.99178   0.47970   0.57680   0.00000  Uiso   1.00
H308   H     0.15627   0.48813   0.65168   0.00000  Uiso   1.00
H309   H     0.03529   0.42759   0.47928   0.00000  Uiso   1.00
H310   H     0.79565   0.53972   0.59313   0.00000  Uiso   1.00
H311   H     0.31994   0.47168   0.74458   0.00000  Uiso   1.00
H312   H     0.06481   0.34405   0.38107   0.00000  Uiso   1.00
H313   H     0.55947   0.58050   0.62114   0.00000  Uiso   1.00
O314   O     0.36380   0.38862   0.82787   0.00000  Uiso   1.00
O315   O     0.02906   0.22118   0.35097   0.00000  Uiso   1.00
O316   O     0.36607   0.53139   0.66594   0.00000  Uiso   1.00
N317   N     0.20289   0.34053   0.78428   0.00000  Uiso   1.00
N318   N     0.96438   0.22120   0.44443   0.00000  Uiso   1.00
N319   N     0.49192   0.44226   0.66886   0.00000  Uiso   1.00
N320   N     0.26937   0.43201   0.74911   0.00000  Uiso   1.00
N321   N     0.03085   0.31269   0.40926   0.00000  Uiso   1.00
N322   N     0.55839   0.53374   0.63369   0.00000  Uiso   1.00
C323   C     0.61945   0.17337   0.63565   0.00000  Uiso   1.00
C324   C     0.51438   0.14718   0.66802   0.00000  Uiso   1.00
C325   C     0.46306   0.17612   0.71483   0.00000  Uiso   1.00
C326   C     0.36765   0.14452   0.73840   0.00000  Uiso   1.00
C327   C     0.21092   0.11275   0.79207   0.00000  Uiso   1.00
C328   C     0.58010   0.18007   0.57436   0.00000  Uiso   1.00
C329   C     0.58404   0.23666   0.54241   0.00000  Uiso   1.00
C330   C     0.54396   0.23275   0.48713   0.00000  Uiso   1.00
C331   C     0.48935   0.25204   0.39537   0.00000  Uiso   1.00
C332   C     0.71030   0.11915   0.63622   0.00000  Uiso   1.00
C333   C     0.82373   0.12452   0.65627   0.00000  Uiso   1.00
C334   C     0.89329   0.06931   0.65307   0.00000  Uiso   1.00
C335   C     0.04083   0.99400   0.65736   0.00000  Uiso   1.00
C336   C     0.54128   0.06579   0.59429   0.00000  Uiso   1.00
C337   C     0.47192   0.08875   0.64556   0.00000  Uiso   1.00
C338   C     0.37657   0.05709   0.66907   0.00000  Uiso   1.00
C339   C     0.32511   0.08598   0.71590   0.00000  Uiso   1.00
C340   C     0.53764   0.12164   0.55189   0.00000  Uiso   1.00
C341   C     0.49756   0.11764   0.49665   0.00000  Uiso   1.00
C342   C     0.50143   0.17421   0.46463   0.00000  Uiso   1.00
C343   C     0.66784   0.06071   0.61376   0.00000  Uiso   1.00
C344   C     0.73724   0.00549   0.61052   0.00000  Uiso   1.00
C345   C     0.85075   0.01077   0.63056   0.00000  Uiso   1.00
H346   H     0.65251   0.21887   0.65313   0.00000  Uiso   1.00
H347   H     0.49593   0.22134   0.73220   0.00000  Uiso   1.00
H348   H     0.61691   0.28187   0.55980   0.00000  Uiso   1.00
H349   H     0.85656   0.16974   0.67365   0.00000  Uiso   1.00
H350   H     0.30359   0.19833   0.80993   0.00000  Uiso   1.00
H351   H     0.55872   0.32596   0.44642   0.00000  Uiso   1.00
H352   H     0.06407   0.08951   0.68650   0.00000  Uiso   1.00
H353   H     0.50822   0.02030   0.57680   0.00000  Uiso   1.00
H354   H     0.34373   0.01187   0.65168   0.00000  Uiso   1.00
H355   H     0.46471   0.07241   0.47928   0.00000  Uiso   1.00
H356   H     0.70435   0.96028   0.59313   0.00000  Uiso   1.00
H357   H     0.18006   0.02832   0.74458   0.00000  Uiso   1.00
H358   H     0.43519   0.15595   0.38107   0.00000  Uiso   1.00
H359   H     0.94053   0.91950   0.62114   0.00000  Uiso   1.00
O360   O     0.13620   0.11138   0.82787   0.00000  Uiso   1.00
O361   O     0.47094   0.27882   0.35097   0.00000  Uiso   1.00
O362   O     0.13393   0.96861   0.66594   0.00000  Uiso   1.00
N363   N     0.29711   0.15947   0.78428   0.00000  Uiso   1.00
N364   N     0.53562   0.27880   0.44443   0.00000  Uiso   1.00
N365   N     0.00808   0.05774   0.66886   0.00000  Uiso   1.00
N366   N     0.23063   0.06799   0.74911   0.00000  Uiso   1.00
N367   N     0.46915   0.18731   0.40926   0.00000  Uiso   1.00
N368   N     0.94161   0.96626   0.63369   0.00000  Uiso   1.00
