data_job_04964
_audit_creation_date              2018-12-19
_audit_creation_method            'Materials Studio'
_symmetry_space_group_name_H-M    'P1'
_symmetry_Int_Tables_number       1
_symmetry_cell_setting            triclinic
loop_
_symmetry_equiv_pos_as_xyz
  x,y,z
_cell_length_a                    12.4005
_cell_length_b                    22.6254
_cell_length_c                    12.0947
_cell_angle_alpha                 90.0000
_cell_angle_beta                  74.2423
_cell_angle_gamma                 90.0000
loop_
_atom_site_label
_atom_site_type_symbol
_atom_site_fract_x
_atom_site_fract_y
_atom_site_fract_z
_atom_site_U_iso_or_equiv
_atom_site_adp_type
_atom_site_occupancy
C1     C     0.75529   0.36876   0.68893   0.00000  Uiso   1.00
C2     C     0.71665   0.39555   0.80892   0.00000  Uiso   1.00
C3     C     0.73077   0.45397   0.83706   0.00000  Uiso   1.00
C4     C     0.68953   0.46979   0.95172   0.00000  Uiso   1.00
C5     C     0.63772   0.51764   0.12536   0.00000  Uiso   1.00
C6     C     0.83070   0.31682   0.69829   0.00000  Uiso   1.00
C7     C     0.94070   0.30905   0.63339   0.00000  Uiso   1.00
C8     C     0.99545   0.25860   0.65491   0.00000  Uiso   1.00
C9     C     0.12067   0.18421   0.65671   0.00000  Uiso   1.00
C10    C     0.65112   0.34197   0.66484   0.00000  Uiso   1.00
C11    C     0.61014   0.35532   0.57181   0.00000  Uiso   1.00
C12    C     0.51372   0.32602   0.56515   0.00000  Uiso   1.00
C13    C     0.36012   0.29067   0.51503   0.00000  Uiso   1.00
C14    C     0.65693   0.29297   0.84252   0.00000  Uiso   1.00
C15    C     0.66323   0.35438   0.89234   0.00000  Uiso   1.00
C16    C     0.62195   0.37012   0.00699   0.00000  Uiso   1.00
C17    C     0.63601   0.42855   0.03529   0.00000  Uiso   1.00
C18    C     0.77728   0.27566   0.78170   0.00000  Uiso   1.00
C19    C     0.83188   0.22520   0.80331   0.00000  Uiso   1.00
C20    C     0.94193   0.21736   0.73848   0.00000  Uiso   1.00
C21    C     0.59770   0.30080   0.74826   0.00000  Uiso   1.00
C22    C     0.50132   0.27147   0.74174   0.00000  Uiso   1.00
C23    C     0.46020   0.28478   0.64872   0.00000  Uiso   1.00
H24    H     0.79688   0.40080   0.62398   0.00000  Uiso   1.00
H25    H     0.77213   0.48581   0.77248   0.00000  Uiso   1.00
H26    H     0.98201   0.34091   0.56883   0.00000  Uiso   1.00
H27    H     0.65150   0.38717   0.50727   0.00000  Uiso   1.00
H28    H     0.72116   0.56189   0.97391   0.00000  Uiso   1.00
H29    H     0.16370   0.25636   0.54448   0.00000  Uiso   1.00
H30    H     0.46676   0.35392   0.41466   0.00000  Uiso   1.00
H31    H     0.61534   0.26092   0.90747   0.00000  Uiso   1.00
H32    H     0.58062   0.33826   0.07152   0.00000  Uiso   1.00
H33    H     0.79051   0.19336   0.86787   0.00000  Uiso   1.00
H34    H     0.46001   0.23962   0.80631   0.00000  Uiso   1.00
H35    H     0.56573   0.44214   0.21663   0.00000  Uiso   1.00
H36    H     0.00827   0.13660   0.78719   0.00000  Uiso   1.00
H37    H     0.31134   0.23416   0.65737   0.00000  Uiso   1.00
O38    O     0.62391   0.55541   0.19809   0.00000  Uiso   1.00
O39    O     0.20450   0.15455   0.63467   0.00000  Uiso   1.00
O40    O     0.29014   0.28255   0.46435   0.00000  Uiso   1.00
N41    N     0.68932   0.52310   0.00852   0.00000  Uiso   1.00
N42    N     0.10308   0.23745   0.60704   0.00000  Uiso   1.00
N43    N     0.45152   0.32864   0.48565   0.00000  Uiso   1.00
N44    N     0.60568   0.45866   0.13912   0.00000  Uiso   1.00
N45    N     0.01944   0.17301   0.73764   0.00000  Uiso   1.00
N46    N     0.36789   0.26420   0.61625   0.00000  Uiso   1.00
C47    C     0.36194   0.61944   0.86815   0.00000  Uiso   1.00
C48    C     0.40197   0.59262   0.74829   0.00000  Uiso   1.00
C49    C     0.38899   0.53409   0.72007   0.00000  Uiso   1.00
C50    C     0.43141   0.51825   0.60555   0.00000  Uiso   1.00
C51    C     0.48539   0.47033   0.43209   0.00000  Uiso   1.00
C52    C     0.28607   0.67102   0.85792   0.00000  Uiso   1.00
C53    C     0.17565   0.67841   0.92189   0.00000  Uiso   1.00
C54    C     0.12052   0.72858   0.89968   0.00000  Uiso   1.00
C55    C     0.99458   0.80240   0.89648   0.00000  Uiso   1.00
C56    C     0.46522   0.64674   0.89326   0.00000  Uiso   1.00
C57    C     0.50541   0.63373   0.98696   0.00000  Uiso   1.00
C58    C     0.60110   0.66347   0.99451   0.00000  Uiso   1.00
C59    C     0.75332   0.69960   0.04617   0.00000  Uiso   1.00
C60    C     0.46037   0.69540   0.71497   0.00000  Uiso   1.00
C61    C     0.45543   0.63388   0.66509   0.00000  Uiso   1.00
C62    C     0.49789   0.61813   0.55059   0.00000  Uiso   1.00
C63    C     0.48498   0.55958   0.52220   0.00000  Uiso   1.00
C64    C     0.33953   0.71228   0.77472   0.00000  Uiso   1.00
C65    C     0.28455   0.76245   0.75242   0.00000  Uiso   1.00
C66    C     0.17407   0.76991   0.81633   0.00000  Uiso   1.00
C67    C     0.51868   0.68800   0.81006   0.00000  Uiso   1.00
C68    C     0.61432   0.71777   0.81747   0.00000  Uiso   1.00
C69    C     0.65466   0.70481   0.91116   0.00000  Uiso   1.00
H70    H     0.32031   0.58732   0.93293   0.00000  Uiso   1.00
H71    H     0.34760   0.50217   0.78448   0.00000  Uiso   1.00
H72    H     0.13430   0.64648   0.98628   0.00000  Uiso   1.00
H73    H     0.46402   0.60181   0.05132   0.00000  Uiso   1.00
H74    H     0.40139   0.42597   0.58320   0.00000  Uiso   1.00
H75    H     0.95165   0.73025   0.00874   0.00000  Uiso   1.00
H76    H     0.64693   0.63605   0.14590   0.00000  Uiso   1.00
H77    H     0.50199   0.72752   0.65019   0.00000  Uiso   1.00
H78    H     0.53926   0.65006   0.48622   0.00000  Uiso   1.00
H79    H     0.32595   0.79437   0.68803   0.00000  Uiso   1.00
H80    H     0.65567   0.74969   0.75307   0.00000  Uiso   1.00
H81    H     0.55695   0.54600   0.34112   0.00000  Uiso   1.00
H82    H     0.10720   0.85029   0.76667   0.00000  Uiso   1.00
H83    H     0.80248   0.75608   0.90382   0.00000  Uiso   1.00
O84    O     0.50037   0.43251   0.35939   0.00000  Uiso   1.00
O85    O     0.91034   0.83172   0.91770   0.00000  Uiso   1.00
O86    O     0.82252   0.70813   0.09765   0.00000  Uiso   1.00
N87    N     0.43291   0.46485   0.54873   0.00000  Uiso   1.00
N88    N     0.01242   0.74933   0.94657   0.00000  Uiso   1.00
N89    N     0.66243   0.66127   0.07482   0.00000  Uiso   1.00
N90    N     0.51661   0.52944   0.41847   0.00000  Uiso   1.00
N91    N     0.09613   0.81392   0.81631   0.00000  Uiso   1.00
N92    N     0.74613   0.72586   0.94456   0.00000  Uiso   1.00
C93    C     0.24471   0.86876   0.31107   0.00000  Uiso   1.00
C94    C     0.28335   0.89555   0.19108   0.00000  Uiso   1.00
C95    C     0.26923   0.95397   0.16294   0.00000  Uiso   1.00
C96    C     0.31047   0.96979   0.04828   0.00000  Uiso   1.00
C97    C     0.36228   0.01764   0.87464   0.00000  Uiso   1.00
C98    C     0.16930   0.81682   0.30171   0.00000  Uiso   1.00
C99    C     0.05930   0.80905   0.36661   0.00000  Uiso   1.00
C100   C     0.00455   0.75860   0.34509   0.00000  Uiso   1.00
C101   C     0.87933   0.68421   0.34329   0.00000  Uiso   1.00
C102   C     0.34888   0.84197   0.33516   0.00000  Uiso   1.00
C103   C     0.38986   0.85532   0.42819   0.00000  Uiso   1.00
C104   C     0.48628   0.82602   0.43485   0.00000  Uiso   1.00
C105   C     0.63988   0.79067   0.48497   0.00000  Uiso   1.00
C106   C     0.34307   0.79297   0.15748   0.00000  Uiso   1.00
C107   C     0.33677   0.85438   0.10766   0.00000  Uiso   1.00
C108   C     0.37805   0.87012   0.99301   0.00000  Uiso   1.00
C109   C     0.36399   0.92855   0.96471   0.00000  Uiso   1.00
C110   C     0.22272   0.77566   0.21830   0.00000  Uiso   1.00
C111   C     0.16812   0.72520   0.19669   0.00000  Uiso   1.00
C112   C     0.05807   0.71736   0.26152   0.00000  Uiso   1.00
C113   C     0.40230   0.80080   0.25174   0.00000  Uiso   1.00
C114   C     0.49868   0.77147   0.25826   0.00000  Uiso   1.00
C115   C     0.53980   0.78478   0.35128   0.00000  Uiso   1.00
H116   H     0.20312   0.90080   0.37602   0.00000  Uiso   1.00
H117   H     0.22787   0.98581   0.22752   0.00000  Uiso   1.00
H118   H     0.01799   0.84091   0.43117   0.00000  Uiso   1.00
H119   H     0.34850   0.88717   0.49273   0.00000  Uiso   1.00
H120   H     0.27884   0.06189   0.02609   0.00000  Uiso   1.00
H121   H     0.83630   0.75636   0.45552   0.00000  Uiso   1.00
H122   H     0.53324   0.85392   0.58534   0.00000  Uiso   1.00
H123   H     0.38466   0.76092   0.09253   0.00000  Uiso   1.00
H124   H     0.41938   0.83826   0.92848   0.00000  Uiso   1.00
H125   H     0.20949   0.69336   0.13213   0.00000  Uiso   1.00
H126   H     0.53999   0.73962   0.19369   0.00000  Uiso   1.00
H127   H     0.43427   0.94214   0.78337   0.00000  Uiso   1.00
H128   H     0.99173   0.63660   0.21281   0.00000  Uiso   1.00
H129   H     0.68866   0.73416   0.34263   0.00000  Uiso   1.00
O130   O     0.37609   0.05541   0.80191   0.00000  Uiso   1.00
O131   O     0.79550   0.65455   0.36533   0.00000  Uiso   1.00
O132   O     0.70986   0.78255   0.53565   0.00000  Uiso   1.00
N133   N     0.31068   0.02310   0.99148   0.00000  Uiso   1.00
N134   N     0.89692   0.73745   0.39296   0.00000  Uiso   1.00
N135   N     0.54848   0.82864   0.51435   0.00000  Uiso   1.00
N136   N     0.39432   0.95866   0.86088   0.00000  Uiso   1.00
N137   N     0.98056   0.67301   0.26236   0.00000  Uiso   1.00
N138   N     0.63211   0.76420   0.38375   0.00000  Uiso   1.00
C139   C     0.63806   0.11944   0.13185   0.00000  Uiso   1.00
C140   C     0.59803   0.09262   0.25171   0.00000  Uiso   1.00
C141   C     0.61101   0.03409   0.27993   0.00000  Uiso   1.00
C142   C     0.56859   0.01825   0.39445   0.00000  Uiso   1.00
C143   C     0.51461   0.97033   0.56791   0.00000  Uiso   1.00
C144   C     0.71393   0.17102   0.14208   0.00000  Uiso   1.00
C145   C     0.82435   0.17841   0.07811   0.00000  Uiso   1.00
C146   C     0.87948   0.22858   0.10032   0.00000  Uiso   1.00
C147   C     0.00542   0.30240   0.10352   0.00000  Uiso   1.00
C148   C     0.53478   0.14674   0.10674   0.00000  Uiso   1.00
C149   C     0.49459   0.13373   0.01304   0.00000  Uiso   1.00
C150   C     0.39890   0.16347   0.00549   0.00000  Uiso   1.00
C151   C     0.24668   0.19960   0.95383   0.00000  Uiso   1.00
C152   C     0.53963   0.19540   0.28503   0.00000  Uiso   1.00
C153   C     0.54457   0.13388   0.33491   0.00000  Uiso   1.00
C154   C     0.50211   0.11813   0.44941   0.00000  Uiso   1.00
C155   C     0.51502   0.05958   0.47780   0.00000  Uiso   1.00
C156   C     0.66047   0.21228   0.22528   0.00000  Uiso   1.00
C157   C     0.71545   0.26245   0.24758   0.00000  Uiso   1.00
C158   C     0.82593   0.26991   0.18367   0.00000  Uiso   1.00
C159   C     0.48132   0.18800   0.18994   0.00000  Uiso   1.00
C160   C     0.38568   0.21777   0.18253   0.00000  Uiso   1.00
C161   C     0.34534   0.20481   0.08884   0.00000  Uiso   1.00
H162   H     0.67969   0.08732   0.06707   0.00000  Uiso   1.00
H163   H     0.65240   0.00217   0.21552   0.00000  Uiso   1.00
H164   H     0.86570   0.14648   0.01372   0.00000  Uiso   1.00
H165   H     0.53598   0.10181   0.94868   0.00000  Uiso   1.00
H166   H     0.59861   0.92597   0.41680   0.00000  Uiso   1.00
H167   H     0.04835   0.23025   0.99126   0.00000  Uiso   1.00
H168   H     0.35307   0.13605   0.85410   0.00000  Uiso   1.00
H169   H     0.49801   0.22752   0.34981   0.00000  Uiso   1.00
H170   H     0.46074   0.15006   0.51378   0.00000  Uiso   1.00
H171   H     0.67405   0.29437   0.31197   0.00000  Uiso   1.00
H172   H     0.34433   0.24969   0.24693   0.00000  Uiso   1.00
H173   H     0.44305   0.04600   0.65888   0.00000  Uiso   1.00
H174   H     0.89280   0.35029   0.23333   0.00000  Uiso   1.00
H175   H     0.19752   0.25608   0.09618   0.00000  Uiso   1.00
O176   O     0.49963   0.93251   0.64061   0.00000  Uiso   1.00
O177   O     0.08966   0.33172   0.08230   0.00000  Uiso   1.00
O178   O     0.17748   0.20813   0.90235   0.00000  Uiso   1.00
N179   N     0.56709   0.96485   0.45127   0.00000  Uiso   1.00
N180   N     0.98758   0.24933   0.05343   0.00000  Uiso   1.00
N181   N     0.33757   0.16127   0.92518   0.00000  Uiso   1.00
N182   N     0.48339   0.02944   0.58153   0.00000  Uiso   1.00
N183   N     0.90387   0.31392   0.18369   0.00000  Uiso   1.00
N184   N     0.25387   0.22586   0.05544   0.00000  Uiso   1.00
