data_job_06209
_audit_creation_date              2018-12-19
_audit_creation_method            'Materials Studio'
_symmetry_space_group_name_H-M    'P1'
_symmetry_Int_Tables_number       1
_symmetry_cell_setting            triclinic
loop_
_symmetry_equiv_pos_as_xyz
  x,y,z
_cell_length_a                    16.2840
_cell_length_b                    16.2552
_cell_length_c                    16.2294
_cell_angle_alpha                 89.8594
_cell_angle_beta                  89.9055
_cell_angle_gamma                 89.9566
loop_
_atom_site_label
_atom_site_type_symbol
_atom_site_fract_x
_atom_site_fract_y
_atom_site_fract_z
_atom_site_U_iso_or_equiv
_atom_site_adp_type
_atom_site_occupancy
C1     C     0.54018   0.92443   0.21376   0.00000  Uiso   1.00
C2     C     0.58168   0.91313   0.29719   0.00000  Uiso   1.00
C3     C     0.60473   0.83852   0.33191   0.00000  Uiso   1.00
C4     C     0.64187   0.84120   0.40879   0.00000  Uiso   1.00
C5     C     0.70421   0.81229   0.53218   0.00000  Uiso   1.00
C6     C     0.46093   0.97157   0.23060   0.00000  Uiso   1.00
C7     C     0.38247   0.94609   0.20932   0.00000  Uiso   1.00
C8     C     0.31797   0.99798   0.23015   0.00000  Uiso   1.00
C9     C     0.19285   0.05983   0.25010   0.00000  Uiso   1.00
C10    C     0.59503   0.98279   0.16476   0.00000  Uiso   1.00
C11    C     0.62930   0.96677   0.08811   0.00000  Uiso   1.00
C12    C     0.67768   0.02812   0.05349   0.00000  Uiso   1.00
C13    C     0.76076   0.10739   0.97121   0.00000  Uiso   1.00
C14    C     0.56514   0.06188   0.28858   0.00000  Uiso   1.00
C15    C     0.59523   0.98778   0.33783   0.00000  Uiso   1.00
C16    C     0.63235   0.99059   0.41468   0.00000  Uiso   1.00
C17    C     0.65546   0.91599   0.44951   0.00000  Uiso   1.00
C18    C     0.47449   0.04622   0.27124   0.00000  Uiso   1.00
C19    C     0.41009   0.09816   0.29210   0.00000  Uiso   1.00
C20    C     0.33155   0.07277   0.27086   0.00000  Uiso   1.00
C21    C     0.60859   0.05745   0.20540   0.00000  Uiso   1.00
C22    C     0.65692   0.11884   0.17089   0.00000  Uiso   1.00
C23    C     0.69126   0.10291   0.09420   0.00000  Uiso   1.00
H24    H     0.52962   0.86631   0.18212   0.00000  Uiso   1.00
H25    H     0.59422   0.78075   0.30044   0.00000  Uiso   1.00
H26    H     0.37200   0.88832   0.17787   0.00000  Uiso   1.00
H27    H     0.61879   0.90899   0.05668   0.00000  Uiso   1.00
H28    H     0.67180   0.71882   0.44956   0.00000  Uiso   1.00
H29    H     0.20323   0.94564   0.19107   0.00000  Uiso   1.00
H30    H     0.72364   0.98923   0.93552   0.00000  Uiso   1.00
H31    H     0.57569   0.12000   0.32022   0.00000  Uiso   1.00
H32    H     0.64283   0.04837   0.44612   0.00000  Uiso   1.00
H33    H     0.42060   0.15593   0.32354   0.00000  Uiso   1.00
H34    H     0.66740   0.17660   0.20235   0.00000  Uiso   1.00
H35    H     0.71125   0.93602   0.56779   0.00000  Uiso   1.00
H36    H     0.24268   0.16285   0.30930   0.00000  Uiso   1.00
H37    H     0.76309   0.20644   0.05376   0.00000  Uiso   1.00
O38    O     0.73484   0.77572   0.58901   0.00000  Uiso   1.00
O39    O     0.12009   0.07331   0.24988   0.00000  Uiso   1.00
O40    O     0.80285   0.13049   0.91461   0.00000  Uiso   1.00
N41    N     0.67189   0.77977   0.46010   0.00000  Uiso   1.00
N42    N     0.23380   0.99183   0.21844   0.00000  Uiso   1.00
N43    N     0.72032   0.03259   0.97951   0.00000  Uiso   1.00
N44    N     0.69312   0.89665   0.52372   0.00000  Uiso   1.00
N45    N     0.25503   0.10871   0.28206   0.00000  Uiso   1.00
N46    N     0.74155   0.14947   0.04313   0.00000  Uiso   1.00
C47    C     0.21409   0.54030   0.92428   0.00000  Uiso   1.00
C48    C     0.29726   0.58192   0.91296   0.00000  Uiso   1.00
C49    C     0.33183   0.60509   0.83822   0.00000  Uiso   1.00
C50    C     0.40848   0.64233   0.84091   0.00000  Uiso   1.00
C51    C     0.53147   0.70485   0.81194   0.00000  Uiso   1.00
C52    C     0.23086   0.46088   0.97157   0.00000  Uiso   1.00
C53    C     0.20959   0.38230   0.94611   0.00000  Uiso   1.00
C54    C     0.23034   0.31764   0.99815   0.00000  Uiso   1.00
C55    C     0.25019   0.19226   0.06020   0.00000  Uiso   1.00
C56    C     0.16531   0.59518   0.98267   0.00000  Uiso   1.00
C57    C     0.08892   0.62949   0.96657   0.00000  Uiso   1.00
C58    C     0.05447   0.67790   0.02797   0.00000  Uiso   1.00
C59    C     0.97254   0.76103   0.10726   0.00000  Uiso   1.00
C60    C     0.28873   0.56522   0.06196   0.00000  Uiso   1.00
C61    C     0.33780   0.59545   0.98774   0.00000  Uiso   1.00
C62    C     0.41441   0.63266   0.99054   0.00000  Uiso   1.00
C63    C     0.44910   0.65589   0.91582   0.00000  Uiso   1.00
C64    C     0.27140   0.47441   0.04634   0.00000  Uiso   1.00
C65    C     0.29217   0.40987   0.09843   0.00000  Uiso   1.00
C66    C     0.27096   0.33120   0.07306   0.00000  Uiso   1.00
C67    C     0.20585   0.60872   0.05745   0.00000  Uiso   1.00
C68    C     0.17151   0.65707   0.11889   0.00000  Uiso   1.00
C69    C     0.09508   0.69145   0.10288   0.00000  Uiso   1.00
H70    H     0.18253   0.52976   0.86607   0.00000  Uiso   1.00
H71    H     0.30044   0.59460   0.78036   0.00000  Uiso   1.00
H72    H     0.17822   0.37184   0.88825   0.00000  Uiso   1.00
H73    H     0.05757   0.61901   0.90870   0.00000  Uiso   1.00
H74    H     0.44907   0.67243   0.71832   0.00000  Uiso   1.00
H75    H     0.19132   0.20273   0.94581   0.00000  Uiso   1.00
H76    H     0.93690   0.72392   0.98893   0.00000  Uiso   1.00
H77    H     0.32029   0.57576   0.12018   0.00000  Uiso   1.00
H78    H     0.44577   0.64313   0.04841   0.00000  Uiso   1.00
H79    H     0.32354   0.42036   0.15629   0.00000  Uiso   1.00
H80    H     0.20290   0.66753   0.17674   0.00000  Uiso   1.00
H81    H     0.56702   0.71181   0.93588   0.00000  Uiso   1.00
H82    H     0.30927   0.24211   0.16337   0.00000  Uiso   1.00
H83    H     0.05486   0.76330   0.20649   0.00000  Uiso   1.00
O84    O     0.58811   0.73558   0.77530   0.00000  Uiso   1.00
O85    O     0.24994   0.11936   0.07376   0.00000  Uiso   1.00
O86    O     0.91616   0.80315   0.13034   0.00000  Uiso   1.00
N87    N     0.45960   0.67247   0.77937   0.00000  Uiso   1.00
N88    N     0.21863   0.23333   0.99205   0.00000  Uiso   1.00
N89    N     0.98077   0.72058   0.03238   0.00000  Uiso   1.00
N90    N     0.52307   0.69366   0.89644   0.00000  Uiso   1.00
N91    N     0.28210   0.25452   0.10912   0.00000  Uiso   1.00
N92    N     0.04424   0.74177   0.14945   0.00000  Uiso   1.00
C93    C     0.92447   0.21386   0.54044   0.00000  Uiso   1.00
C94    C     0.91324   0.29714   0.58204   0.00000  Uiso   1.00
C95    C     0.83878   0.33172   0.60520   0.00000  Uiso   1.00
C96    C     0.84151   0.40848   0.64243   0.00000  Uiso   1.00
C97    C     0.81273   0.53162   0.70493   0.00000  Uiso   1.00
C98    C     0.97156   0.23075   0.46089   0.00000  Uiso   1.00
C99    C     0.94615   0.20950   0.38219   0.00000  Uiso   1.00
C100   C     0.99799   0.23036   0.31744   0.00000  Uiso   1.00
C101   C     0.05979   0.25038   0.19186   0.00000  Uiso   1.00
C102   C     0.98266   0.16497   0.59546   0.00000  Uiso   1.00
C103   C     0.96659   0.08841   0.62989   0.00000  Uiso   1.00
C104   C     0.02778   0.05388   0.67842   0.00000  Uiso   1.00
C105   C     0.10681   0.97177   0.76178   0.00000  Uiso   1.00
C106   C     0.06173   0.28867   0.56538   0.00000  Uiso   1.00
C107   C     0.98779   0.33777   0.59559   0.00000  Uiso   1.00
C108   C     0.99064   0.41449   0.63280   0.00000  Uiso   1.00
C109   C     0.91620   0.44918   0.65600   0.00000  Uiso   1.00
C110   C     0.04611   0.27137   0.47444   0.00000  Uiso   1.00
C111   C     0.09801   0.29226   0.40979   0.00000  Uiso   1.00
C112   C     0.07268   0.27106   0.33101   0.00000  Uiso   1.00
C113   C     0.05721   0.20560   0.60901   0.00000  Uiso   1.00
C114   C     0.11845   0.17118   0.65749   0.00000  Uiso   1.00
C115   C     0.10247   0.09459   0.69199   0.00000  Uiso   1.00
H116   H     0.86643   0.18223   0.52988   0.00000  Uiso   1.00
H117   H     0.78110   0.30026   0.59470   0.00000  Uiso   1.00
H118   H     0.88846   0.17805   0.37172   0.00000  Uiso   1.00
H119   H     0.90889   0.05699   0.61939   0.00000  Uiso   1.00
H120   H     0.71937   0.44906   0.67250   0.00000  Uiso   1.00
H121   H     0.94576   0.19135   0.20235   0.00000  Uiso   1.00
H122   H     0.98884   0.93605   0.72461   0.00000  Uiso   1.00
H123   H     0.11977   0.32030   0.57593   0.00000  Uiso   1.00
H124   H     0.04834   0.44592   0.64327   0.00000  Uiso   1.00
H125   H     0.15570   0.32370   0.42029   0.00000  Uiso   1.00
H126   H     0.17613   0.20264   0.66796   0.00000  Uiso   1.00
H127   H     0.93627   0.56728   0.71192   0.00000  Uiso   1.00
H128   H     0.16266   0.30956   0.24177   0.00000  Uiso   1.00
H129   H     0.20575   0.05427   0.76403   0.00000  Uiso   1.00
O130   O     0.77626   0.58832   0.73565   0.00000  Uiso   1.00
O131   O     0.07328   0.25020   0.11885   0.00000  Uiso   1.00
O132   O     0.12980   0.91526   0.80403   0.00000  Uiso   1.00
N133   N     0.78022   0.45964   0.67255   0.00000  Uiso   1.00
N134   N     0.99187   0.21870   0.23299   0.00000  Uiso   1.00
N135   N     0.03217   0.98001   0.72123   0.00000  Uiso   1.00
N136   N     0.89694   0.52325   0.69377   0.00000  Uiso   1.00
N137   N     0.10859   0.28231   0.25420   0.00000  Uiso   1.00
N138   N     0.14888   0.04362   0.74245   0.00000  Uiso   1.00
C139   C     0.45982   0.07557   0.78624   0.00000  Uiso   1.00
C140   C     0.41832   0.08687   0.70281   0.00000  Uiso   1.00
C141   C     0.39527   0.16148   0.66809   0.00000  Uiso   1.00
C142   C     0.35813   0.15880   0.59121   0.00000  Uiso   1.00
C143   C     0.29579   0.18771   0.46782   0.00000  Uiso   1.00
C144   C     0.53907   0.02843   0.76940   0.00000  Uiso   1.00
C145   C     0.61753   0.05391   0.79068   0.00000  Uiso   1.00
C146   C     0.68203   0.00202   0.76985   0.00000  Uiso   1.00
C147   C     0.80715   0.94017   0.74990   0.00000  Uiso   1.00
C148   C     0.40497   0.01721   0.83524   0.00000  Uiso   1.00
C149   C     0.37070   0.03323   0.91189   0.00000  Uiso   1.00
C150   C     0.32232   0.97188   0.94651   0.00000  Uiso   1.00
C151   C     0.23924   0.89261   0.02879   0.00000  Uiso   1.00
C152   C     0.43486   0.93812   0.71142   0.00000  Uiso   1.00
C153   C     0.40477   0.01222   0.66217   0.00000  Uiso   1.00
C154   C     0.36765   0.00941   0.58532   0.00000  Uiso   1.00
C155   C     0.34454   0.08401   0.55049   0.00000  Uiso   1.00
C156   C     0.52551   0.95378   0.72876   0.00000  Uiso   1.00
C157   C     0.58991   0.90184   0.70790   0.00000  Uiso   1.00
C158   C     0.66845   0.92722   0.72914   0.00000  Uiso   1.00
C159   C     0.39141   0.94255   0.79460   0.00000  Uiso   1.00
C160   C     0.34308   0.88116   0.82911   0.00000  Uiso   1.00
C161   C     0.30874   0.89709   0.90580   0.00000  Uiso   1.00
H162   H     0.47038   0.13369   0.81788   0.00000  Uiso   1.00
H163   H     0.40578   0.21925   0.69956   0.00000  Uiso   1.00
H164   H     0.62800   0.11168   0.82213   0.00000  Uiso   1.00
H165   H     0.38121   0.09101   0.94332   0.00000  Uiso   1.00
H166   H     0.32820   0.28118   0.55045   0.00000  Uiso   1.00
H167   H     0.79677   0.05436   0.80893   0.00000  Uiso   1.00
H168   H     0.27636   0.01077   0.06448   0.00000  Uiso   1.00
H169   H     0.42431   0.87999   0.67978   0.00000  Uiso   1.00
H170   H     0.35717   0.95163   0.55388   0.00000  Uiso   1.00
H171   H     0.57939   0.84407   0.67646   0.00000  Uiso   1.00
H172   H     0.33260   0.82340   0.79765   0.00000  Uiso   1.00
H173   H     0.28875   0.06398   0.43221   0.00000  Uiso   1.00
H174   H     0.75732   0.83715   0.69070   0.00000  Uiso   1.00
H175   H     0.23691   0.79356   0.94624   0.00000  Uiso   1.00
O176   O     0.26516   0.22428   0.41099   0.00000  Uiso   1.00
O177   O     0.87991   0.92669   0.75012   0.00000  Uiso   1.00
O178   O     0.19715   0.86951   0.08539   0.00000  Uiso   1.00
N179   N     0.32811   0.22023   0.53990   0.00000  Uiso   1.00
N180   N     0.76620   0.00817   0.78156   0.00000  Uiso   1.00
N181   N     0.27968   0.96741   0.02049   0.00000  Uiso   1.00
N182   N     0.30688   0.10335   0.47628   0.00000  Uiso   1.00
N183   N     0.74497   0.89129   0.71794   0.00000  Uiso   1.00
N184   N     0.25845   0.85053   0.95687   0.00000  Uiso   1.00
C185   C     0.78591   0.45970   0.07572   0.00000  Uiso   1.00
C186   C     0.70274   0.41808   0.08704   0.00000  Uiso   1.00
C187   C     0.66817   0.39491   0.16178   0.00000  Uiso   1.00
C188   C     0.59152   0.35767   0.15909   0.00000  Uiso   1.00
C189   C     0.46853   0.29515   0.18806   0.00000  Uiso   1.00
C190   C     0.76914   0.53912   0.02843   0.00000  Uiso   1.00
C191   C     0.79040   0.61770   0.05389   0.00000  Uiso   1.00
C192   C     0.76966   0.68236   0.00185   0.00000  Uiso   1.00
C193   C     0.74981   0.80774   0.93980   0.00000  Uiso   1.00
C194   C     0.83469   0.40482   0.01733   0.00000  Uiso   1.00
C195   C     0.91108   0.37051   0.03343   0.00000  Uiso   1.00
C196   C     0.94553   0.32210   0.97203   0.00000  Uiso   1.00
C197   C     0.02746   0.23897   0.89274   0.00000  Uiso   1.00
C198   C     0.71127   0.43478   0.93804   0.00000  Uiso   1.00
C199   C     0.66220   0.40455   0.01226   0.00000  Uiso   1.00
C200   C     0.58559   0.36734   0.00946   0.00000  Uiso   1.00
C201   C     0.55090   0.34411   0.08418   0.00000  Uiso   1.00
C202   C     0.72860   0.52558   0.95366   0.00000  Uiso   1.00
C203   C     0.70782   0.59013   0.90157   0.00000  Uiso   1.00
C204   C     0.72904   0.66880   0.92694   0.00000  Uiso   1.00
C205   C     0.79415   0.39128   0.94255   0.00000  Uiso   1.00
C206   C     0.82849   0.34293   0.88111   0.00000  Uiso   1.00
C207   C     0.90492   0.30855   0.89712   0.00000  Uiso   1.00
H208   H     0.81747   0.47024   0.13393   0.00000  Uiso   1.00
H209   H     0.69956   0.40540   0.21964   0.00000  Uiso   1.00
H210   H     0.82178   0.62816   0.11175   0.00000  Uiso   1.00
H211   H     0.94243   0.38099   0.09130   0.00000  Uiso   1.00
H212   H     0.55093   0.32757   0.28168   0.00000  Uiso   1.00
H213   H     0.80868   0.79727   0.05419   0.00000  Uiso   1.00
H214   H     0.06310   0.27608   0.01107   0.00000  Uiso   1.00
H215   H     0.67971   0.42424   0.87982   0.00000  Uiso   1.00
H216   H     0.55423   0.35687   0.95159   0.00000  Uiso   1.00
H217   H     0.67646   0.57964   0.84371   0.00000  Uiso   1.00
H218   H     0.79710   0.33247   0.82326   0.00000  Uiso   1.00
H219   H     0.43298   0.28819   0.06412   0.00000  Uiso   1.00
H220   H     0.69073   0.75789   0.83663   0.00000  Uiso   1.00
H221   H     0.94514   0.23670   0.79351   0.00000  Uiso   1.00
O222   O     0.41189   0.26442   0.22470   0.00000  Uiso   1.00
O223   O     0.75005   0.88064   0.92624   0.00000  Uiso   1.00
O224   O     0.08384   0.19685   0.86966   0.00000  Uiso   1.00
N225   N     0.54040   0.32753   0.22063   0.00000  Uiso   1.00
N226   N     0.78137   0.76667   0.00795   0.00000  Uiso   1.00
N227   N     0.01923   0.27942   0.96762   0.00000  Uiso   1.00
N228   N     0.47693   0.30634   0.10356   0.00000  Uiso   1.00
N229   N     0.71789   0.74548   0.89088   0.00000  Uiso   1.00
N230   N     0.95576   0.25823   0.85055   0.00000  Uiso   1.00
C231   C     0.07553   0.78614   0.45956   0.00000  Uiso   1.00
C232   C     0.08676   0.70286   0.41796   0.00000  Uiso   1.00
C233   C     0.16122   0.66828   0.39480   0.00000  Uiso   1.00
C234   C     0.15849   0.59152   0.35757   0.00000  Uiso   1.00
C235   C     0.18727   0.46838   0.29507   0.00000  Uiso   1.00
C236   C     0.02844   0.76925   0.53911   0.00000  Uiso   1.00
C237   C     0.05385   0.79050   0.61781   0.00000  Uiso   1.00
C238   C     0.00201   0.76964   0.68256   0.00000  Uiso   1.00
C239   C     0.94021   0.74962   0.80814   0.00000  Uiso   1.00
C240   C     0.01734   0.83503   0.40454   0.00000  Uiso   1.00
C241   C     0.03341   0.91159   0.37011   0.00000  Uiso   1.00
C242   C     0.97222   0.94612   0.32158   0.00000  Uiso   1.00
C243   C     0.89319   0.02823   0.23822   0.00000  Uiso   1.00
C244   C     0.93827   0.71133   0.43462   0.00000  Uiso   1.00
C245   C     0.01221   0.66223   0.40441   0.00000  Uiso   1.00
C246   C     0.00936   0.58551   0.36720   0.00000  Uiso   1.00
C247   C     0.08380   0.55082   0.34400   0.00000  Uiso   1.00
C248   C     0.95388   0.72863   0.52556   0.00000  Uiso   1.00
C249   C     0.90199   0.70774   0.59021   0.00000  Uiso   1.00
C250   C     0.92732   0.72894   0.66899   0.00000  Uiso   1.00
C251   C     0.94278   0.79440   0.39099   0.00000  Uiso   1.00
C252   C     0.88155   0.82882   0.34251   0.00000  Uiso   1.00
C253   C     0.89753   0.90541   0.30801   0.00000  Uiso   1.00
H254   H     0.13357   0.81777   0.47012   0.00000  Uiso   1.00
H255   H     0.21890   0.69974   0.40530   0.00000  Uiso   1.00
H256   H     0.11154   0.82195   0.62828   0.00000  Uiso   1.00
H257   H     0.09111   0.94301   0.38061   0.00000  Uiso   1.00
H258   H     0.28063   0.55094   0.32750   0.00000  Uiso   1.00
H259   H     0.05424   0.80865   0.79765   0.00000  Uiso   1.00
H260   H     0.01116   0.06395   0.27539   0.00000  Uiso   1.00
H261   H     0.88023   0.67970   0.42407   0.00000  Uiso   1.00
H262   H     0.95166   0.55408   0.35673   0.00000  Uiso   1.00
H263   H     0.84430   0.67630   0.57970   0.00000  Uiso   1.00
H264   H     0.82387   0.79736   0.33204   0.00000  Uiso   1.00
H265   H     0.06373   0.43272   0.28808   0.00000  Uiso   1.00
H266   H     0.83734   0.69044   0.75823   0.00000  Uiso   1.00
H267   H     0.79425   0.94573   0.23597   0.00000  Uiso   1.00
O268   O     0.22374   0.41168   0.26435   0.00000  Uiso   1.00
O269   O     0.92672   0.74980   0.88115   0.00000  Uiso   1.00
O270   O     0.87020   0.08474   0.19597   0.00000  Uiso   1.00
N271   N     0.21978   0.54036   0.32745   0.00000  Uiso   1.00
N272   N     0.00813   0.78130   0.76701   0.00000  Uiso   1.00
N273   N     0.96783   0.01999   0.27877   0.00000  Uiso   1.00
N274   N     0.10306   0.47675   0.30623   0.00000  Uiso   1.00
N275   N     0.89141   0.71769   0.74580   0.00000  Uiso   1.00
N276   N     0.85112   0.95638   0.25755   0.00000  Uiso   1.00
