data_job_00679
_audit_creation_date              2018-12-19
_audit_creation_method            'Materials Studio'
_symmetry_space_group_name_H-M    'P1'
_symmetry_Int_Tables_number       1
_symmetry_cell_setting            triclinic
loop_
_symmetry_equiv_pos_as_xyz
  x,y,z
_cell_length_a                    11.4003
_cell_length_b                    7.1721
_cell_length_c                    29.1770
_cell_angle_alpha                 90.0000
_cell_angle_beta                  72.7376
_cell_angle_gamma                 90.0000
loop_
_atom_site_label
_atom_site_type_symbol
_atom_site_fract_x
_atom_site_fract_y
_atom_site_fract_z
_atom_site_U_iso_or_equiv
_atom_site_adp_type
_atom_site_occupancy
C1     C     0.75840   0.43035   0.88996   0.00000  Uiso   1.00
C2     C     0.76339   0.52101   0.93662   0.00000  Uiso   1.00
C3     C     0.72708   0.43852   0.98167   0.00000  Uiso   1.00
C4     C     0.73885   0.54461   0.01986   0.00000  Uiso   1.00
C5     C     0.73948   0.65773   0.09333   0.00000  Uiso   1.00
C6     C     0.68161   0.56010   0.86898   0.00000  Uiso   1.00
C7     C     0.57655   0.51045   0.85714   0.00000  Uiso   1.00
C8     C     0.51949   0.64945   0.83838   0.00000  Uiso   1.00
C9     C     0.39321   0.82322   0.80680   0.00000  Uiso   1.00
C10    C     0.88878   0.43959   0.85588   0.00000  Uiso   1.00
C11    C     0.95789   0.28864   0.83302   0.00000  Uiso   1.00
C12    C     0.07525   0.32618   0.80322   0.00000  Uiso   1.00
C13    C     0.27061   0.31285   0.75130   0.00000  Uiso   1.00
C14    C     0.84390   0.76546   0.87769   0.00000  Uiso   1.00
C15    C     0.80983   0.70303   0.92996   0.00000  Uiso   1.00
C16    C     0.82166   0.80927   0.96809   0.00000  Uiso   1.00
C17    C     0.78537   0.72695   0.01319   0.00000  Uiso   1.00
C18    C     0.72804   0.74211   0.86231   0.00000  Uiso   1.00
C19    C     0.67114   0.88121   0.84356   0.00000  Uiso   1.00
C20    C     0.56601   0.83180   0.83171   0.00000  Uiso   1.00
C21    C     0.93522   0.62161   0.84921   0.00000  Uiso   1.00
C22    C     0.05248   0.65940   0.81944   0.00000  Uiso   1.00
C23    C     0.12176   0.50853   0.79654   0.00000  Uiso   1.00
H24    H     0.72225   0.28864   0.89515   0.00000  Uiso   1.00
H25    H     0.69114   0.29765   0.98681   0.00000  Uiso   1.00
H26    H     0.54065   0.36958   0.86230   0.00000  Uiso   1.00
H27    H     0.92193   0.14780   0.83818   0.00000  Uiso   1.00
H28    H     0.67708   0.38794   0.08550   0.00000  Uiso   1.00
H29    H     0.35978   0.53959   0.82294   0.00000  Uiso   1.00
H30    H     0.16379   0.07192   0.77209   0.00000  Uiso   1.00
H31    H     0.88005   0.90717   0.87250   0.00000  Uiso   1.00
H32    H     0.85760   0.95013   0.96292   0.00000  Uiso   1.00
H33    H     0.70710   0.02205   0.83841   0.00000  Uiso   1.00
H34    H     0.08838   0.80027   0.81429   0.00000  Uiso   1.00
H35    H     0.81218   0.91751   0.06611   0.00000  Uiso   1.00
H36    H     0.49488   0.06915   0.80355   0.00000  Uiso   1.00
H37    H     0.29889   0.60149   0.75270   0.00000  Uiso   1.00
O38    O     0.72698   0.66985   0.13570   0.00000  Uiso   1.00
O39    O     0.31071   0.86878   0.79122   0.00000  Uiso   1.00
O40    O     0.36555   0.25521   0.72451   0.00000  Uiso   1.00
N41    N     0.71198   0.50667   0.06853   0.00000  Uiso   1.00
N42    N     0.41531   0.64845   0.82306   0.00000  Uiso   1.00
N43    N     0.16698   0.21123   0.77550   0.00000  Uiso   1.00
N44    N     0.78468   0.79163   0.05809   0.00000  Uiso   1.00
N45    N     0.48801   0.93341   0.81262   0.00000  Uiso   1.00
N46    N     0.23968   0.49618   0.76507   0.00000  Uiso   1.00
C47    C     0.24160   0.43035   0.61004   0.00000  Uiso   1.00
C48    C     0.23661   0.52101   0.56338   0.00000  Uiso   1.00
C49    C     0.27292   0.43852   0.51833   0.00000  Uiso   1.00
C50    C     0.26115   0.54461   0.48014   0.00000  Uiso   1.00
C51    C     0.26052   0.65773   0.40667   0.00000  Uiso   1.00
C52    C     0.31839   0.56010   0.63102   0.00000  Uiso   1.00
C53    C     0.42345   0.51045   0.64286   0.00000  Uiso   1.00
C54    C     0.48051   0.64945   0.66162   0.00000  Uiso   1.00
C55    C     0.60679   0.82322   0.69320   0.00000  Uiso   1.00
C56    C     0.11122   0.43959   0.64412   0.00000  Uiso   1.00
C57    C     0.04211   0.28864   0.66698   0.00000  Uiso   1.00
C58    C     0.92475   0.32618   0.69678   0.00000  Uiso   1.00
C59    C     0.72939   0.31285   0.74870   0.00000  Uiso   1.00
C60    C     0.15610   0.76546   0.62231   0.00000  Uiso   1.00
C61    C     0.19017   0.70303   0.57004   0.00000  Uiso   1.00
C62    C     0.17834   0.80927   0.53191   0.00000  Uiso   1.00
C63    C     0.21463   0.72695   0.48681   0.00000  Uiso   1.00
C64    C     0.27196   0.74211   0.63769   0.00000  Uiso   1.00
C65    C     0.32886   0.88121   0.65644   0.00000  Uiso   1.00
C66    C     0.43399   0.83180   0.66829   0.00000  Uiso   1.00
C67    C     0.06478   0.62161   0.65079   0.00000  Uiso   1.00
C68    C     0.94752   0.65940   0.68056   0.00000  Uiso   1.00
C69    C     0.87824   0.50853   0.70346   0.00000  Uiso   1.00
H70    H     0.27775   0.28864   0.60485   0.00000  Uiso   1.00
H71    H     0.30886   0.29765   0.51319   0.00000  Uiso   1.00
H72    H     0.45935   0.36958   0.63770   0.00000  Uiso   1.00
H73    H     0.07807   0.14780   0.66182   0.00000  Uiso   1.00
H74    H     0.32292   0.38794   0.41450   0.00000  Uiso   1.00
H75    H     0.64022   0.53959   0.67706   0.00000  Uiso   1.00
H76    H     0.83621   0.07192   0.72791   0.00000  Uiso   1.00
H77    H     0.11995   0.90717   0.62750   0.00000  Uiso   1.00
H78    H     0.14240   0.95013   0.53708   0.00000  Uiso   1.00
H79    H     0.29290   0.02205   0.66159   0.00000  Uiso   1.00
H80    H     0.91162   0.80027   0.68571   0.00000  Uiso   1.00
H81    H     0.18782   0.91751   0.43389   0.00000  Uiso   1.00
H82    H     0.50512   0.06915   0.69645   0.00000  Uiso   1.00
H83    H     0.70111   0.60149   0.74730   0.00000  Uiso   1.00
O84    O     0.27302   0.66985   0.36430   0.00000  Uiso   1.00
O85    O     0.68929   0.86878   0.70878   0.00000  Uiso   1.00
O86    O     0.63445   0.25521   0.77549   0.00000  Uiso   1.00
N87    N     0.28802   0.50667   0.43147   0.00000  Uiso   1.00
N88    N     0.58469   0.64845   0.67694   0.00000  Uiso   1.00
N89    N     0.83302   0.21123   0.72450   0.00000  Uiso   1.00
N90    N     0.21532   0.79163   0.44191   0.00000  Uiso   1.00
N91    N     0.51199   0.93341   0.68738   0.00000  Uiso   1.00
N92    N     0.76032   0.49618   0.73493   0.00000  Uiso   1.00
C93    C     0.24160   0.56965   0.11004   0.00000  Uiso   1.00
C94    C     0.23661   0.47899   0.06338   0.00000  Uiso   1.00
C95    C     0.27292   0.56148   0.01833   0.00000  Uiso   1.00
C96    C     0.26115   0.45539   0.98014   0.00000  Uiso   1.00
C97    C     0.26052   0.34227   0.90667   0.00000  Uiso   1.00
C98    C     0.31839   0.43990   0.13102   0.00000  Uiso   1.00
C99    C     0.42345   0.48955   0.14286   0.00000  Uiso   1.00
C100   C     0.48051   0.35055   0.16162   0.00000  Uiso   1.00
C101   C     0.60679   0.17678   0.19320   0.00000  Uiso   1.00
C102   C     0.11122   0.56041   0.14412   0.00000  Uiso   1.00
C103   C     0.04211   0.71136   0.16698   0.00000  Uiso   1.00
C104   C     0.92475   0.67382   0.19678   0.00000  Uiso   1.00
C105   C     0.72939   0.68715   0.24870   0.00000  Uiso   1.00
C106   C     0.15610   0.23454   0.12231   0.00000  Uiso   1.00
C107   C     0.19017   0.29697   0.07004   0.00000  Uiso   1.00
C108   C     0.17834   0.19073   0.03191   0.00000  Uiso   1.00
C109   C     0.21463   0.27305   0.98681   0.00000  Uiso   1.00
C110   C     0.27196   0.25789   0.13769   0.00000  Uiso   1.00
C111   C     0.32886   0.11879   0.15644   0.00000  Uiso   1.00
C112   C     0.43399   0.16820   0.16829   0.00000  Uiso   1.00
C113   C     0.06478   0.37839   0.15079   0.00000  Uiso   1.00
C114   C     0.94752   0.34060   0.18056   0.00000  Uiso   1.00
C115   C     0.87824   0.49147   0.20346   0.00000  Uiso   1.00
H116   H     0.27775   0.71136   0.10485   0.00000  Uiso   1.00
H117   H     0.30886   0.70235   0.01319   0.00000  Uiso   1.00
H118   H     0.45935   0.63042   0.13770   0.00000  Uiso   1.00
H119   H     0.07807   0.85220   0.16182   0.00000  Uiso   1.00
H120   H     0.32292   0.61206   0.91450   0.00000  Uiso   1.00
H121   H     0.64022   0.46041   0.17706   0.00000  Uiso   1.00
H122   H     0.83621   0.92808   0.22791   0.00000  Uiso   1.00
H123   H     0.11995   0.09283   0.12750   0.00000  Uiso   1.00
H124   H     0.14240   0.04987   0.03708   0.00000  Uiso   1.00
H125   H     0.29290   0.97795   0.16159   0.00000  Uiso   1.00
H126   H     0.91162   0.19973   0.18571   0.00000  Uiso   1.00
H127   H     0.18782   0.08249   0.93389   0.00000  Uiso   1.00
H128   H     0.50512   0.93085   0.19645   0.00000  Uiso   1.00
H129   H     0.70111   0.39851   0.24730   0.00000  Uiso   1.00
O130   O     0.27302   0.33015   0.86430   0.00000  Uiso   1.00
O131   O     0.68929   0.13122   0.20878   0.00000  Uiso   1.00
O132   O     0.63445   0.74479   0.27549   0.00000  Uiso   1.00
N133   N     0.28802   0.49333   0.93147   0.00000  Uiso   1.00
N134   N     0.58469   0.35155   0.17694   0.00000  Uiso   1.00
N135   N     0.83302   0.78877   0.22450   0.00000  Uiso   1.00
N136   N     0.21532   0.20837   0.94191   0.00000  Uiso   1.00
N137   N     0.51199   0.06659   0.18738   0.00000  Uiso   1.00
N138   N     0.76032   0.50382   0.23493   0.00000  Uiso   1.00
C139   C     0.75840   0.56965   0.38996   0.00000  Uiso   1.00
C140   C     0.76339   0.47899   0.43662   0.00000  Uiso   1.00
C141   C     0.72708   0.56148   0.48167   0.00000  Uiso   1.00
C142   C     0.73885   0.45539   0.51986   0.00000  Uiso   1.00
C143   C     0.73948   0.34227   0.59333   0.00000  Uiso   1.00
C144   C     0.68161   0.43990   0.36898   0.00000  Uiso   1.00
C145   C     0.57655   0.48955   0.35714   0.00000  Uiso   1.00
C146   C     0.51949   0.35055   0.33838   0.00000  Uiso   1.00
C147   C     0.39321   0.17678   0.30680   0.00000  Uiso   1.00
C148   C     0.88878   0.56041   0.35588   0.00000  Uiso   1.00
C149   C     0.95789   0.71136   0.33302   0.00000  Uiso   1.00
C150   C     0.07525   0.67382   0.30322   0.00000  Uiso   1.00
C151   C     0.27061   0.68715   0.25130   0.00000  Uiso   1.00
C152   C     0.84390   0.23454   0.37769   0.00000  Uiso   1.00
C153   C     0.80983   0.29697   0.42996   0.00000  Uiso   1.00
C154   C     0.82166   0.19073   0.46809   0.00000  Uiso   1.00
C155   C     0.78537   0.27305   0.51319   0.00000  Uiso   1.00
C156   C     0.72804   0.25789   0.36231   0.00000  Uiso   1.00
C157   C     0.67114   0.11879   0.34356   0.00000  Uiso   1.00
C158   C     0.56601   0.16820   0.33171   0.00000  Uiso   1.00
C159   C     0.93522   0.37839   0.34921   0.00000  Uiso   1.00
C160   C     0.05248   0.34060   0.31944   0.00000  Uiso   1.00
C161   C     0.12176   0.49147   0.29654   0.00000  Uiso   1.00
H162   H     0.72225   0.71136   0.39515   0.00000  Uiso   1.00
H163   H     0.69114   0.70235   0.48681   0.00000  Uiso   1.00
H164   H     0.54065   0.63042   0.36230   0.00000  Uiso   1.00
H165   H     0.92193   0.85220   0.33818   0.00000  Uiso   1.00
H166   H     0.67708   0.61206   0.58550   0.00000  Uiso   1.00
H167   H     0.35978   0.46041   0.32294   0.00000  Uiso   1.00
H168   H     0.16379   0.92808   0.27209   0.00000  Uiso   1.00
H169   H     0.88005   0.09283   0.37250   0.00000  Uiso   1.00
H170   H     0.85760   0.04987   0.46292   0.00000  Uiso   1.00
H171   H     0.70710   0.97795   0.33841   0.00000  Uiso   1.00
H172   H     0.08838   0.19973   0.31429   0.00000  Uiso   1.00
H173   H     0.81218   0.08249   0.56611   0.00000  Uiso   1.00
H174   H     0.49488   0.93085   0.30355   0.00000  Uiso   1.00
H175   H     0.29889   0.39851   0.25270   0.00000  Uiso   1.00
O176   O     0.72698   0.33015   0.63570   0.00000  Uiso   1.00
O177   O     0.31071   0.13122   0.29122   0.00000  Uiso   1.00
O178   O     0.36555   0.74479   0.22451   0.00000  Uiso   1.00
N179   N     0.71198   0.49333   0.56853   0.00000  Uiso   1.00
N180   N     0.41531   0.35155   0.32306   0.00000  Uiso   1.00
N181   N     0.16698   0.78877   0.27550   0.00000  Uiso   1.00
N182   N     0.78468   0.20837   0.55809   0.00000  Uiso   1.00
N183   N     0.48801   0.06659   0.31262   0.00000  Uiso   1.00
N184   N     0.23968   0.50382   0.26507   0.00000  Uiso   1.00
