data_job_00683
_audit_creation_date              2018-12-19
_audit_creation_method            'Materials Studio'
_symmetry_space_group_name_H-M    'P1'
_symmetry_Int_Tables_number       1
_symmetry_cell_setting            triclinic
loop_
_symmetry_equiv_pos_as_xyz
  x,y,z
_cell_length_a                    19.7390
_cell_length_b                    19.7390
_cell_length_c                    11.0347
_cell_angle_alpha                 90.0000
_cell_angle_beta                  90.0000
_cell_angle_gamma                 120.0000
loop_
_atom_site_label
_atom_site_type_symbol
_atom_site_fract_x
_atom_site_fract_y
_atom_site_fract_z
_atom_site_U_iso_or_equiv
_atom_site_adp_type
_atom_site_occupancy
C1     C     0.04372   0.35663   0.34428   0.00000  Uiso   1.00
C2     C     0.07211   0.29766   0.33842   0.00000  Uiso   1.00
C3     C     0.03327   0.22497   0.28259   0.00000  Uiso   1.00
C4     C     0.06892   0.17965   0.28723   0.00000  Uiso   1.00
C5     C     0.10205   0.08405   0.26930   0.00000  Uiso   1.00
C6     C     0.04079   0.37348   0.47846   0.00000  Uiso   1.00
C7     C     0.97561   0.36456   0.54035   0.00000  Uiso   1.00
C8     C     0.98490   0.38308   0.66286   0.00000  Uiso   1.00
C9     C     0.96942   0.40525   0.86232   0.00000  Uiso   1.00
C10    C     0.10898   0.43216   0.28965   0.00000  Uiso   1.00
C11    C     0.10114   0.47259   0.19281   0.00000  Uiso   1.00
C12    C     0.16785   0.54052   0.15637   0.00000  Uiso   1.00
C13    C     0.25824   0.65379   0.06267   0.00000  Uiso   1.00
C14    C     0.17612   0.40540   0.45179   0.00000  Uiso   1.00
C15    C     0.14403   0.32415   0.39682   0.00000  Uiso   1.00
C16    C     0.17975   0.27894   0.40154   0.00000  Uiso   1.00
C17    C     0.14096   0.20619   0.34572   0.00000  Uiso   1.00
C18    C     0.11270   0.39998   0.53685   0.00000  Uiso   1.00
C19    C     0.12209   0.41852   0.65930   0.00000  Uiso   1.00
C20    C     0.05694   0.40962   0.72136   0.00000  Uiso   1.00
C21    C     0.18090   0.45865   0.34804   0.00000  Uiso   1.00
C22    C     0.24762   0.52655   0.31175   0.00000  Uiso   1.00
C23    C     0.23989   0.56706   0.21487   0.00000  Uiso   1.00
H24    H     0.98774   0.33600   0.29883   0.00000  Uiso   1.00
H25    H     0.97762   0.20449   0.23742   0.00000  Uiso   1.00
H26    H     0.91997   0.34406   0.49514   0.00000  Uiso   1.00
H27    H     0.04549   0.45207   0.14765   0.00000  Uiso   1.00
H28    H     0.99810   0.07035   0.19514   0.00000  Uiso   1.00
H29    H     0.87656   0.36468   0.73853   0.00000  Uiso   1.00
H30    H     0.14122   0.59243   0.00578   0.00000  Uiso   1.00
H31    H     0.23210   0.42603   0.49725   0.00000  Uiso   1.00
H32    H     0.23540   0.29945   0.44673   0.00000  Uiso   1.00
H33    H     0.17775   0.43903   0.70445   0.00000  Uiso   1.00
H34    H     0.30326   0.54703   0.35696   0.00000  Uiso   1.00
H35    H     0.20732   0.14742   0.36502   0.00000  Uiso   1.00
H36    H     0.08578   0.44175   0.90842   0.00000  Uiso   1.00
H37    H     0.35045   0.66950   0.17566   0.00000  Uiso   1.00
O38    O     0.10045   0.02399   0.24330   0.00000  Uiso   1.00
O39    O     0.94100   0.41014   0.95621   0.00000  Uiso   1.00
O40    O     0.28824   0.70895   0.99485   0.00000  Uiso   1.00
N41    N     0.04689   0.10587   0.24203   0.00000  Uiso   1.00
N42    N     0.93326   0.38103   0.75008   0.00000  Uiso   1.00
N43    N     0.18069   0.59397   0.06503   0.00000  Uiso   1.00
N44    N     0.15947   0.14734   0.33344   0.00000  Uiso   1.00
N45    N     0.04584   0.42251   0.84149   0.00000  Uiso   1.00
N46    N     0.29327   0.63545   0.15645   0.00000  Uiso   1.00
C47    C     0.64337   0.68709   0.01095   0.00000  Uiso   1.00
C48    C     0.70234   0.77445   0.00509   0.00000  Uiso   1.00
C49    C     0.77503   0.80830   0.94926   0.00000  Uiso   1.00
C50    C     0.82035   0.88927   0.95389   0.00000  Uiso   1.00
C51    C     0.91595   0.01800   0.93597   0.00000  Uiso   1.00
C52    C     0.62652   0.66731   0.14512   0.00000  Uiso   1.00
C53    C     0.63544   0.61105   0.20702   0.00000  Uiso   1.00
C54    C     0.61692   0.60182   0.32953   0.00000  Uiso   1.00
C55    C     0.59475   0.56417   0.52899   0.00000  Uiso   1.00
C56    C     0.56784   0.67682   0.95631   0.00000  Uiso   1.00
C57    C     0.52741   0.62855   0.85948   0.00000  Uiso   1.00
C58    C     0.45948   0.62732   0.82304   0.00000  Uiso   1.00
C59    C     0.34621   0.60445   0.72934   0.00000  Uiso   1.00
C60    C     0.59460   0.77071   0.11845   0.00000  Uiso   1.00
C61    C     0.67585   0.81987   0.06349   0.00000  Uiso   1.00
C62    C     0.72106   0.90081   0.06820   0.00000  Uiso   1.00
C63    C     0.79381   0.93477   0.01239   0.00000  Uiso   1.00
C64    C     0.60002   0.71272   0.20352   0.00000  Uiso   1.00
C65    C     0.58148   0.70357   0.32596   0.00000  Uiso   1.00
C66    C     0.59038   0.64732   0.38803   0.00000  Uiso   1.00
C67    C     0.54135   0.72224   0.01470   0.00000  Uiso   1.00
C68    C     0.47345   0.72108   0.97842   0.00000  Uiso   1.00
C69    C     0.43294   0.67282   0.88154   0.00000  Uiso   1.00
H70    H     0.66400   0.65173   0.96549   0.00000  Uiso   1.00
H71    H     0.79551   0.77313   0.90409   0.00000  Uiso   1.00
H72    H     0.65594   0.57591   0.16181   0.00000  Uiso   1.00
H73    H     0.54793   0.59342   0.81431   0.00000  Uiso   1.00
H74    H     0.92965   0.92775   0.86180   0.00000  Uiso   1.00
H75    H     0.63532   0.51188   0.40520   0.00000  Uiso   1.00
H76    H     0.40757   0.54879   0.67244   0.00000  Uiso   1.00
H77    H     0.57397   0.80607   0.16392   0.00000  Uiso   1.00
H78    H     0.70055   0.93595   0.11340   0.00000  Uiso   1.00
H79    H     0.56097   0.73872   0.37112   0.00000  Uiso   1.00
H80    H     0.45297   0.75623   0.02362   0.00000  Uiso   1.00
H81    H     0.85258   0.05989   0.03169   0.00000  Uiso   1.00
H82    H     0.55825   0.64403   0.57509   0.00000  Uiso   1.00
H83    H     0.33050   0.68094   0.84233   0.00000  Uiso   1.00
O84    O     0.97601   0.07647   0.90997   0.00000  Uiso   1.00
O85    O     0.58986   0.53086   0.62288   0.00000  Uiso   1.00
O86    O     0.29105   0.57929   0.66151   0.00000  Uiso   1.00
N87    N     0.89413   0.94103   0.90870   0.00000  Uiso   1.00
N88    N     0.61897   0.55223   0.41675   0.00000  Uiso   1.00
N89    N     0.40603   0.58672   0.73170   0.00000  Uiso   1.00
N90    N     0.85266   0.01213   0.00011   0.00000  Uiso   1.00
N91    N     0.57749   0.62333   0.50816   0.00000  Uiso   1.00
N92    N     0.36455   0.65783   0.82311   0.00000  Uiso   1.00
C93    C     0.31291   0.95628   0.67761   0.00000  Uiso   1.00
C94    C     0.22555   0.92789   0.67176   0.00000  Uiso   1.00
C95    C     0.19170   0.96673   0.61593   0.00000  Uiso   1.00
C96    C     0.11073   0.93108   0.62056   0.00000  Uiso   1.00
C97    C     0.98200   0.89795   0.60264   0.00000  Uiso   1.00
C98    C     0.33269   0.95921   0.81179   0.00000  Uiso   1.00
C99    C     0.38895   0.02439   0.87369   0.00000  Uiso   1.00
C100   C     0.39818   0.01510   0.99620   0.00000  Uiso   1.00
C101   C     0.43583   0.03058   0.19566   0.00000  Uiso   1.00
C102   C     0.32318   0.89102   0.62298   0.00000  Uiso   1.00
C103   C     0.37145   0.89886   0.52614   0.00000  Uiso   1.00
C104   C     0.37268   0.83215   0.48971   0.00000  Uiso   1.00
C105   C     0.39555   0.74176   0.39601   0.00000  Uiso   1.00
C106   C     0.22929   0.82388   0.78512   0.00000  Uiso   1.00
C107   C     0.18013   0.85597   0.73016   0.00000  Uiso   1.00
C108   C     0.09919   0.82025   0.73487   0.00000  Uiso   1.00
C109   C     0.06523   0.85904   0.67905   0.00000  Uiso   1.00
C110   C     0.28728   0.88730   0.87018   0.00000  Uiso   1.00
C111   C     0.29643   0.87791   0.99263   0.00000  Uiso   1.00
C112   C     0.35268   0.94306   0.05470   0.00000  Uiso   1.00
C113   C     0.27776   0.81910   0.68137   0.00000  Uiso   1.00
C114   C     0.27892   0.75238   0.64508   0.00000  Uiso   1.00
C115   C     0.32718   0.76011   0.54821   0.00000  Uiso   1.00
H116   H     0.34827   0.01226   0.63216   0.00000  Uiso   1.00
H117   H     0.22687   0.02238   0.57076   0.00000  Uiso   1.00
H118   H     0.42409   0.08003   0.82847   0.00000  Uiso   1.00
H119   H     0.40658   0.95451   0.48098   0.00000  Uiso   1.00
H120   H     0.07225   0.00190   0.52847   0.00000  Uiso   1.00
H121   H     0.48812   0.12344   0.07187   0.00000  Uiso   1.00
H122   H     0.45121   0.85878   0.33911   0.00000  Uiso   1.00
H123   H     0.19393   0.76790   0.83058   0.00000  Uiso   1.00
H124   H     0.06405   0.76460   0.78006   0.00000  Uiso   1.00
H125   H     0.26128   0.82225   0.03778   0.00000  Uiso   1.00
H126   H     0.24377   0.69674   0.69029   0.00000  Uiso   1.00
H127   H     0.94011   0.79268   0.69836   0.00000  Uiso   1.00
H128   H     0.35597   0.91422   0.24176   0.00000  Uiso   1.00
H129   H     0.31906   0.64955   0.50900   0.00000  Uiso   1.00
O130   O     0.92353   0.89955   0.57664   0.00000  Uiso   1.00
O131   O     0.46914   0.05900   0.28954   0.00000  Uiso   1.00
O132   O     0.42071   0.71176   0.32818   0.00000  Uiso   1.00
N133   N     0.05897   0.95311   0.57536   0.00000  Uiso   1.00
N134   N     0.44777   0.06674   0.08341   0.00000  Uiso   1.00
N135   N     0.41328   0.81931   0.39837   0.00000  Uiso   1.00
N136   N     0.98787   0.84053   0.66678   0.00000  Uiso   1.00
N137   N     0.37667   0.95416   0.17483   0.00000  Uiso   1.00
N138   N     0.34217   0.70673   0.48978   0.00000  Uiso   1.00
C139   C     0.95628   0.64337   0.34428   0.00000  Uiso   1.00
C140   C     0.92789   0.70234   0.33842   0.00000  Uiso   1.00
C141   C     0.96673   0.77503   0.28259   0.00000  Uiso   1.00
C142   C     0.93108   0.82035   0.28723   0.00000  Uiso   1.00
C143   C     0.89795   0.91595   0.26930   0.00000  Uiso   1.00
C144   C     0.95921   0.62652   0.47846   0.00000  Uiso   1.00
C145   C     0.02439   0.63544   0.54035   0.00000  Uiso   1.00
C146   C     0.01510   0.61692   0.66286   0.00000  Uiso   1.00
C147   C     0.03058   0.59475   0.86232   0.00000  Uiso   1.00
C148   C     0.89102   0.56784   0.28965   0.00000  Uiso   1.00
C149   C     0.89886   0.52741   0.19281   0.00000  Uiso   1.00
C150   C     0.83215   0.45948   0.15637   0.00000  Uiso   1.00
C151   C     0.74176   0.34621   0.06267   0.00000  Uiso   1.00
C152   C     0.82388   0.59460   0.45179   0.00000  Uiso   1.00
C153   C     0.85597   0.67585   0.39682   0.00000  Uiso   1.00
C154   C     0.82025   0.72106   0.40154   0.00000  Uiso   1.00
C155   C     0.85904   0.79381   0.34572   0.00000  Uiso   1.00
C156   C     0.88730   0.60002   0.53685   0.00000  Uiso   1.00
C157   C     0.87791   0.58148   0.65930   0.00000  Uiso   1.00
C158   C     0.94306   0.59038   0.72136   0.00000  Uiso   1.00
C159   C     0.81910   0.54135   0.34804   0.00000  Uiso   1.00
C160   C     0.75238   0.47345   0.31175   0.00000  Uiso   1.00
C161   C     0.76011   0.43294   0.21487   0.00000  Uiso   1.00
H162   H     0.01226   0.66400   0.29883   0.00000  Uiso   1.00
H163   H     0.02238   0.79551   0.23742   0.00000  Uiso   1.00
H164   H     0.08003   0.65594   0.49514   0.00000  Uiso   1.00
H165   H     0.95451   0.54793   0.14765   0.00000  Uiso   1.00
H166   H     0.00190   0.92965   0.19514   0.00000  Uiso   1.00
H167   H     0.12344   0.63532   0.73853   0.00000  Uiso   1.00
H168   H     0.85878   0.40757   0.00578   0.00000  Uiso   1.00
H169   H     0.76790   0.57397   0.49725   0.00000  Uiso   1.00
H170   H     0.76460   0.70055   0.44673   0.00000  Uiso   1.00
H171   H     0.82225   0.56097   0.70445   0.00000  Uiso   1.00
H172   H     0.69674   0.45297   0.35696   0.00000  Uiso   1.00
H173   H     0.79268   0.85258   0.36502   0.00000  Uiso   1.00
H174   H     0.91422   0.55825   0.90842   0.00000  Uiso   1.00
H175   H     0.64955   0.33050   0.17566   0.00000  Uiso   1.00
O176   O     0.89955   0.97601   0.24330   0.00000  Uiso   1.00
O177   O     0.05900   0.58986   0.95621   0.00000  Uiso   1.00
O178   O     0.71176   0.29105   0.99485   0.00000  Uiso   1.00
N179   N     0.95311   0.89413   0.24203   0.00000  Uiso   1.00
N180   N     0.06674   0.61897   0.75008   0.00000  Uiso   1.00
N181   N     0.81931   0.40603   0.06503   0.00000  Uiso   1.00
N182   N     0.84053   0.85266   0.33344   0.00000  Uiso   1.00
N183   N     0.95416   0.57749   0.84149   0.00000  Uiso   1.00
N184   N     0.70673   0.36455   0.15645   0.00000  Uiso   1.00
C185   C     0.35663   0.31291   0.01095   0.00000  Uiso   1.00
C186   C     0.29766   0.22555   0.00509   0.00000  Uiso   1.00
C187   C     0.22497   0.19170   0.94926   0.00000  Uiso   1.00
C188   C     0.17965   0.11073   0.95389   0.00000  Uiso   1.00
C189   C     0.08405   0.98200   0.93597   0.00000  Uiso   1.00
C190   C     0.37348   0.33269   0.14512   0.00000  Uiso   1.00
C191   C     0.36456   0.38895   0.20702   0.00000  Uiso   1.00
C192   C     0.38308   0.39818   0.32953   0.00000  Uiso   1.00
C193   C     0.40525   0.43583   0.52899   0.00000  Uiso   1.00
C194   C     0.43216   0.32318   0.95631   0.00000  Uiso   1.00
C195   C     0.47259   0.37145   0.85948   0.00000  Uiso   1.00
C196   C     0.54052   0.37268   0.82304   0.00000  Uiso   1.00
C197   C     0.65379   0.39555   0.72934   0.00000  Uiso   1.00
C198   C     0.40540   0.22929   0.11845   0.00000  Uiso   1.00
C199   C     0.32415   0.18013   0.06349   0.00000  Uiso   1.00
C200   C     0.27894   0.09919   0.06820   0.00000  Uiso   1.00
C201   C     0.20619   0.06523   0.01239   0.00000  Uiso   1.00
C202   C     0.39998   0.28728   0.20352   0.00000  Uiso   1.00
C203   C     0.41852   0.29643   0.32596   0.00000  Uiso   1.00
C204   C     0.40962   0.35268   0.38803   0.00000  Uiso   1.00
C205   C     0.45865   0.27776   0.01470   0.00000  Uiso   1.00
C206   C     0.52655   0.27892   0.97842   0.00000  Uiso   1.00
C207   C     0.56706   0.32718   0.88154   0.00000  Uiso   1.00
H208   H     0.33600   0.34827   0.96549   0.00000  Uiso   1.00
H209   H     0.20449   0.22687   0.90409   0.00000  Uiso   1.00
H210   H     0.34406   0.42409   0.16181   0.00000  Uiso   1.00
H211   H     0.45207   0.40658   0.81431   0.00000  Uiso   1.00
H212   H     0.07035   0.07225   0.86180   0.00000  Uiso   1.00
H213   H     0.36468   0.48812   0.40520   0.00000  Uiso   1.00
H214   H     0.59243   0.45121   0.67244   0.00000  Uiso   1.00
H215   H     0.42603   0.19393   0.16392   0.00000  Uiso   1.00
H216   H     0.29945   0.06405   0.11340   0.00000  Uiso   1.00
H217   H     0.43903   0.26128   0.37112   0.00000  Uiso   1.00
H218   H     0.54703   0.24377   0.02362   0.00000  Uiso   1.00
H219   H     0.14742   0.94011   0.03169   0.00000  Uiso   1.00
H220   H     0.44175   0.35597   0.57509   0.00000  Uiso   1.00
H221   H     0.66950   0.31906   0.84233   0.00000  Uiso   1.00
O222   O     0.02399   0.92353   0.90997   0.00000  Uiso   1.00
O223   O     0.41014   0.46914   0.62288   0.00000  Uiso   1.00
O224   O     0.70895   0.42071   0.66151   0.00000  Uiso   1.00
N225   N     0.10587   0.05897   0.90870   0.00000  Uiso   1.00
N226   N     0.38103   0.44777   0.41675   0.00000  Uiso   1.00
N227   N     0.59397   0.41328   0.73170   0.00000  Uiso   1.00
N228   N     0.14734   0.98787   0.00011   0.00000  Uiso   1.00
N229   N     0.42251   0.37667   0.50816   0.00000  Uiso   1.00
N230   N     0.63545   0.34217   0.82311   0.00000  Uiso   1.00
C231   C     0.68709   0.04372   0.67761   0.00000  Uiso   1.00
C232   C     0.77445   0.07211   0.67176   0.00000  Uiso   1.00
C233   C     0.80830   0.03327   0.61593   0.00000  Uiso   1.00
C234   C     0.88927   0.06892   0.62056   0.00000  Uiso   1.00
C235   C     0.01800   0.10205   0.60264   0.00000  Uiso   1.00
C236   C     0.66731   0.04079   0.81179   0.00000  Uiso   1.00
C237   C     0.61105   0.97561   0.87369   0.00000  Uiso   1.00
C238   C     0.60182   0.98490   0.99620   0.00000  Uiso   1.00
C239   C     0.56417   0.96942   0.19566   0.00000  Uiso   1.00
C240   C     0.67682   0.10898   0.62298   0.00000  Uiso   1.00
C241   C     0.62855   0.10114   0.52614   0.00000  Uiso   1.00
C242   C     0.62732   0.16785   0.48971   0.00000  Uiso   1.00
C243   C     0.60445   0.25824   0.39601   0.00000  Uiso   1.00
C244   C     0.77071   0.17612   0.78512   0.00000  Uiso   1.00
C245   C     0.81987   0.14403   0.73016   0.00000  Uiso   1.00
C246   C     0.90081   0.17975   0.73487   0.00000  Uiso   1.00
C247   C     0.93477   0.14096   0.67905   0.00000  Uiso   1.00
C248   C     0.71272   0.11270   0.87018   0.00000  Uiso   1.00
C249   C     0.70357   0.12209   0.99263   0.00000  Uiso   1.00
C250   C     0.64732   0.05694   0.05470   0.00000  Uiso   1.00
C251   C     0.72224   0.18090   0.68137   0.00000  Uiso   1.00
C252   C     0.72108   0.24762   0.64508   0.00000  Uiso   1.00
C253   C     0.67282   0.23989   0.54821   0.00000  Uiso   1.00
H254   H     0.65173   0.98774   0.63216   0.00000  Uiso   1.00
H255   H     0.77313   0.97762   0.57076   0.00000  Uiso   1.00
H256   H     0.57591   0.91997   0.82847   0.00000  Uiso   1.00
H257   H     0.59342   0.04549   0.48098   0.00000  Uiso   1.00
H258   H     0.92775   0.99810   0.52847   0.00000  Uiso   1.00
H259   H     0.51188   0.87656   0.07187   0.00000  Uiso   1.00
H260   H     0.54879   0.14122   0.33911   0.00000  Uiso   1.00
H261   H     0.80607   0.23210   0.83058   0.00000  Uiso   1.00
H262   H     0.93595   0.23540   0.78006   0.00000  Uiso   1.00
H263   H     0.73872   0.17775   0.03778   0.00000  Uiso   1.00
H264   H     0.75623   0.30326   0.69029   0.00000  Uiso   1.00
H265   H     0.05989   0.20732   0.69836   0.00000  Uiso   1.00
H266   H     0.64403   0.08578   0.24176   0.00000  Uiso   1.00
H267   H     0.68094   0.35045   0.50900   0.00000  Uiso   1.00
O268   O     0.07647   0.10045   0.57664   0.00000  Uiso   1.00
O269   O     0.53086   0.94100   0.28954   0.00000  Uiso   1.00
O270   O     0.57929   0.28824   0.32818   0.00000  Uiso   1.00
N271   N     0.94103   0.04689   0.57536   0.00000  Uiso   1.00
N272   N     0.55223   0.93326   0.08341   0.00000  Uiso   1.00
N273   N     0.58672   0.18069   0.39837   0.00000  Uiso   1.00
N274   N     0.01213   0.15947   0.66678   0.00000  Uiso   1.00
N275   N     0.62333   0.04584   0.17483   0.00000  Uiso   1.00
N276   N     0.65783   0.29327   0.48978   0.00000  Uiso   1.00
