data_job_03834
_audit_creation_date              2018-12-19
_audit_creation_method            'Materials Studio'
_symmetry_space_group_name_H-M    'P1'
_symmetry_Int_Tables_number       1
_symmetry_cell_setting            triclinic
loop_
_symmetry_equiv_pos_as_xyz
  x,y,z
_cell_length_a                    18.6289
_cell_length_b                    18.6289
_cell_length_c                    19.4750
_cell_angle_alpha                 90.0000
_cell_angle_beta                  90.0000
_cell_angle_gamma                 90.0000
loop_
_atom_site_label
_atom_site_type_symbol
_atom_site_fract_x
_atom_site_fract_y
_atom_site_fract_z
_atom_site_U_iso_or_equiv
_atom_site_adp_type
_atom_site_occupancy
C1     C     0.82526   0.75764   0.93447   0.00000  Uiso   1.00
C2     C     0.79944   0.68830   0.96797   0.00000  Uiso   1.00
C3     C     0.73039   0.66062   0.96414   0.00000  Uiso   1.00
C4     C     0.71753   0.59651   0.99835   0.00000  Uiso   1.00
C5     C     0.66918   0.49420   0.04481   0.00000  Uiso   1.00
C6     C     0.85592   0.80347   0.99234   0.00000  Uiso   1.00
C7     C     0.83437   0.87263   0.00899   0.00000  Uiso   1.00
C8     C     0.86906   0.90547   0.06371   0.00000  Uiso   1.00
C9     C     0.90842   0.98199   0.14798   0.00000  Uiso   1.00
C10    C     0.88889   0.73686   0.88942   0.00000  Uiso   1.00
C11    C     0.89508   0.75003   0.81952   0.00000  Uiso   1.00
C12    C     0.95754   0.72680   0.78759   0.00000  Uiso   1.00
C13    C     0.04811   0.69989   0.71205   0.00000  Uiso   1.00
C14    C     0.92520   0.69301   0.00204   0.00000  Uiso   1.00
C15    C     0.85372   0.65320   0.00467   0.00000  Uiso   1.00
C16    C     0.84096   0.58911   0.03890   0.00000  Uiso   1.00
C17    C     0.77191   0.56134   0.03511   0.00000  Uiso   1.00
C18    C     0.91020   0.76837   0.02904   0.00000  Uiso   1.00
C19    C     0.94494   0.80112   0.08375   0.00000  Uiso   1.00
C20    C     0.92344   0.87030   0.10048   0.00000  Uiso   1.00
C21    C     0.94318   0.70175   0.92612   0.00000  Uiso   1.00
C22    C     0.00565   0.67851   0.89429   0.00000  Uiso   1.00
C23    C     0.01192   0.69163   0.82436   0.00000  Uiso   1.00
H24    H     0.78300   0.78497   0.90590   0.00000  Uiso   1.00
H25    H     0.68840   0.68781   0.93573   0.00000  Uiso   1.00
H26    H     0.79236   0.89978   0.98057   0.00000  Uiso   1.00
H27    H     0.85306   0.77719   0.79114   0.00000  Uiso   1.00
H28    H     0.60745   0.56461   0.98502   0.00000  Uiso   1.00
H29    H     0.82668   0.01158   0.07955   0.00000  Uiso   1.00
H30    H     0.95468   0.75308   0.68009   0.00000  Uiso   1.00
H31    H     0.96746   0.66567   0.03062   0.00000  Uiso   1.00
H32    H     0.88298   0.56196   0.06730   0.00000  Uiso   1.00
H33    H     0.98694   0.77393   0.11214   0.00000  Uiso   1.00
H34    H     0.04764   0.65135   0.92271   0.00000  Uiso   1.00
H35    H     0.76538   0.46247   0.09180   0.00000  Uiso   1.00
H36    H     0.98461   0.90944   0.18634   0.00000  Uiso   1.00
H37    H     0.11261   0.65094   0.78688   0.00000  Uiso   1.00
O38    O     0.62751   0.44748   0.06030   0.00000  Uiso   1.00
O39    O     0.91513   0.03389   0.18432   0.00000  Uiso   1.00
O40    O     0.08307   0.69474   0.66024   0.00000  Uiso   1.00
N41    N     0.65622   0.55480   0.00510   0.00000  Uiso   1.00
N42    N     0.86117   0.97269   0.09349   0.00000  Uiso   1.00
N43    N     0.98085   0.73103   0.72004   0.00000  Uiso   1.00
N44    N     0.74120   0.49984   0.06256   0.00000  Uiso   1.00
N45    N     0.94615   0.91772   0.15095   0.00000  Uiso   1.00
N46    N     0.06583   0.67606   0.77750   0.00000  Uiso   1.00
C47    C     0.17474   0.24236   0.93447   0.00000  Uiso   1.00
C48    C     0.20056   0.31170   0.96797   0.00000  Uiso   1.00
C49    C     0.26961   0.33938   0.96414   0.00000  Uiso   1.00
C50    C     0.28247   0.40349   0.99835   0.00000  Uiso   1.00
C51    C     0.33082   0.50580   0.04481   0.00000  Uiso   1.00
C52    C     0.14408   0.19653   0.99234   0.00000  Uiso   1.00
C53    C     0.16563   0.12737   0.00899   0.00000  Uiso   1.00
C54    C     0.13094   0.09453   0.06371   0.00000  Uiso   1.00
C55    C     0.09158   0.01801   0.14798   0.00000  Uiso   1.00
C56    C     0.11111   0.26314   0.88942   0.00000  Uiso   1.00
C57    C     0.10492   0.24997   0.81952   0.00000  Uiso   1.00
C58    C     0.04246   0.27320   0.78759   0.00000  Uiso   1.00
C59    C     0.95189   0.30011   0.71205   0.00000  Uiso   1.00
C60    C     0.07480   0.30699   0.00204   0.00000  Uiso   1.00
C61    C     0.14628   0.34680   0.00467   0.00000  Uiso   1.00
C62    C     0.15904   0.41089   0.03890   0.00000  Uiso   1.00
C63    C     0.22809   0.43866   0.03511   0.00000  Uiso   1.00
C64    C     0.08980   0.23163   0.02904   0.00000  Uiso   1.00
C65    C     0.05506   0.19888   0.08375   0.00000  Uiso   1.00
C66    C     0.07656   0.12970   0.10048   0.00000  Uiso   1.00
C67    C     0.05682   0.29825   0.92612   0.00000  Uiso   1.00
C68    C     0.99435   0.32149   0.89429   0.00000  Uiso   1.00
C69    C     0.98808   0.30837   0.82436   0.00000  Uiso   1.00
H70    H     0.21700   0.21503   0.90590   0.00000  Uiso   1.00
H71    H     0.31160   0.31219   0.93573   0.00000  Uiso   1.00
H72    H     0.20764   0.10022   0.98057   0.00000  Uiso   1.00
H73    H     0.14694   0.22281   0.79114   0.00000  Uiso   1.00
H74    H     0.39255   0.43539   0.98502   0.00000  Uiso   1.00
H75    H     0.17332   0.98842   0.07955   0.00000  Uiso   1.00
H76    H     0.04532   0.24692   0.68009   0.00000  Uiso   1.00
H77    H     0.03254   0.33433   0.03062   0.00000  Uiso   1.00
H78    H     0.11702   0.43804   0.06730   0.00000  Uiso   1.00
H79    H     0.01306   0.22607   0.11214   0.00000  Uiso   1.00
H80    H     0.95236   0.34865   0.92271   0.00000  Uiso   1.00
H81    H     0.23462   0.53753   0.09180   0.00000  Uiso   1.00
H82    H     0.01539   0.09056   0.18634   0.00000  Uiso   1.00
H83    H     0.88739   0.34906   0.78688   0.00000  Uiso   1.00
O84    O     0.37249   0.55252   0.06030   0.00000  Uiso   1.00
O85    O     0.08487   0.96611   0.18432   0.00000  Uiso   1.00
O86    O     0.91693   0.30526   0.66024   0.00000  Uiso   1.00
N87    N     0.34378   0.44520   0.00510   0.00000  Uiso   1.00
N88    N     0.13883   0.02731   0.09349   0.00000  Uiso   1.00
N89    N     0.01915   0.26897   0.72004   0.00000  Uiso   1.00
N90    N     0.25880   0.50016   0.06256   0.00000  Uiso   1.00
N91    N     0.05385   0.08228   0.15095   0.00000  Uiso   1.00
N92    N     0.93417   0.32394   0.77750   0.00000  Uiso   1.00
C93    C     0.75764   0.17474   0.06553   0.00000  Uiso   1.00
C94    C     0.68830   0.20056   0.03203   0.00000  Uiso   1.00
C95    C     0.66062   0.26961   0.03586   0.00000  Uiso   1.00
C96    C     0.59651   0.28247   0.00165   0.00000  Uiso   1.00
C97    C     0.49420   0.33082   0.95519   0.00000  Uiso   1.00
C98    C     0.80347   0.14408   0.00766   0.00000  Uiso   1.00
C99    C     0.87263   0.16563   0.99101   0.00000  Uiso   1.00
C100   C     0.90547   0.13094   0.93629   0.00000  Uiso   1.00
C101   C     0.98199   0.09158   0.85202   0.00000  Uiso   1.00
C102   C     0.73686   0.11111   0.11058   0.00000  Uiso   1.00
C103   C     0.75003   0.10492   0.18048   0.00000  Uiso   1.00
C104   C     0.72680   0.04246   0.21241   0.00000  Uiso   1.00
C105   C     0.69989   0.95189   0.28795   0.00000  Uiso   1.00
C106   C     0.69301   0.07480   0.99796   0.00000  Uiso   1.00
C107   C     0.65320   0.14628   0.99533   0.00000  Uiso   1.00
C108   C     0.58911   0.15904   0.96110   0.00000  Uiso   1.00
C109   C     0.56134   0.22809   0.96489   0.00000  Uiso   1.00
C110   C     0.76837   0.08980   0.97096   0.00000  Uiso   1.00
C111   C     0.80112   0.05506   0.91625   0.00000  Uiso   1.00
C112   C     0.87030   0.07656   0.89952   0.00000  Uiso   1.00
C113   C     0.70175   0.05682   0.07388   0.00000  Uiso   1.00
C114   C     0.67851   0.99435   0.10571   0.00000  Uiso   1.00
C115   C     0.69163   0.98808   0.17564   0.00000  Uiso   1.00
H116   H     0.78497   0.21700   0.09410   0.00000  Uiso   1.00
H117   H     0.68781   0.31160   0.06427   0.00000  Uiso   1.00
H118   H     0.89978   0.20764   0.01943   0.00000  Uiso   1.00
H119   H     0.77719   0.14694   0.20886   0.00000  Uiso   1.00
H120   H     0.56461   0.39255   0.01498   0.00000  Uiso   1.00
H121   H     0.01158   0.17332   0.92045   0.00000  Uiso   1.00
H122   H     0.75308   0.04532   0.31991   0.00000  Uiso   1.00
H123   H     0.66567   0.03254   0.96938   0.00000  Uiso   1.00
H124   H     0.56196   0.11702   0.93270   0.00000  Uiso   1.00
H125   H     0.77393   0.01306   0.88786   0.00000  Uiso   1.00
H126   H     0.65135   0.95236   0.07729   0.00000  Uiso   1.00
H127   H     0.46247   0.23462   0.90820   0.00000  Uiso   1.00
H128   H     0.90944   0.01539   0.81366   0.00000  Uiso   1.00
H129   H     0.65094   0.88739   0.21312   0.00000  Uiso   1.00
O130   O     0.44748   0.37249   0.93970   0.00000  Uiso   1.00
O131   O     0.03389   0.08487   0.81568   0.00000  Uiso   1.00
O132   O     0.69474   0.91693   0.33976   0.00000  Uiso   1.00
N133   N     0.55480   0.34378   0.99490   0.00000  Uiso   1.00
N134   N     0.97269   0.13883   0.90651   0.00000  Uiso   1.00
N135   N     0.73103   0.01915   0.27996   0.00000  Uiso   1.00
N136   N     0.49984   0.25880   0.93744   0.00000  Uiso   1.00
N137   N     0.91772   0.05385   0.84905   0.00000  Uiso   1.00
N138   N     0.67606   0.93417   0.22250   0.00000  Uiso   1.00
C139   C     0.24236   0.82526   0.06553   0.00000  Uiso   1.00
C140   C     0.31170   0.79944   0.03203   0.00000  Uiso   1.00
C141   C     0.33938   0.73039   0.03586   0.00000  Uiso   1.00
C142   C     0.40349   0.71753   0.00165   0.00000  Uiso   1.00
C143   C     0.50580   0.66918   0.95519   0.00000  Uiso   1.00
C144   C     0.19653   0.85592   0.00766   0.00000  Uiso   1.00
C145   C     0.12737   0.83437   0.99101   0.00000  Uiso   1.00
C146   C     0.09453   0.86906   0.93629   0.00000  Uiso   1.00
C147   C     0.01801   0.90842   0.85202   0.00000  Uiso   1.00
C148   C     0.26314   0.88889   0.11058   0.00000  Uiso   1.00
C149   C     0.24997   0.89508   0.18048   0.00000  Uiso   1.00
C150   C     0.27320   0.95754   0.21241   0.00000  Uiso   1.00
C151   C     0.30011   0.04811   0.28795   0.00000  Uiso   1.00
C152   C     0.30699   0.92520   0.99796   0.00000  Uiso   1.00
C153   C     0.34680   0.85372   0.99533   0.00000  Uiso   1.00
C154   C     0.41089   0.84096   0.96110   0.00000  Uiso   1.00
C155   C     0.43866   0.77191   0.96489   0.00000  Uiso   1.00
C156   C     0.23163   0.91020   0.97096   0.00000  Uiso   1.00
C157   C     0.19888   0.94494   0.91625   0.00000  Uiso   1.00
C158   C     0.12970   0.92344   0.89952   0.00000  Uiso   1.00
C159   C     0.29825   0.94318   0.07388   0.00000  Uiso   1.00
C160   C     0.32149   0.00565   0.10571   0.00000  Uiso   1.00
C161   C     0.30837   0.01192   0.17564   0.00000  Uiso   1.00
H162   H     0.21503   0.78300   0.09410   0.00000  Uiso   1.00
H163   H     0.31219   0.68840   0.06427   0.00000  Uiso   1.00
H164   H     0.10022   0.79236   0.01943   0.00000  Uiso   1.00
H165   H     0.22281   0.85306   0.20886   0.00000  Uiso   1.00
H166   H     0.43539   0.60745   0.01498   0.00000  Uiso   1.00
H167   H     0.98842   0.82668   0.92045   0.00000  Uiso   1.00
H168   H     0.24692   0.95468   0.31991   0.00000  Uiso   1.00
H169   H     0.33433   0.96746   0.96938   0.00000  Uiso   1.00
H170   H     0.43804   0.88298   0.93270   0.00000  Uiso   1.00
H171   H     0.22607   0.98694   0.88786   0.00000  Uiso   1.00
H172   H     0.34865   0.04764   0.07729   0.00000  Uiso   1.00
H173   H     0.53753   0.76538   0.90820   0.00000  Uiso   1.00
H174   H     0.09056   0.98461   0.81366   0.00000  Uiso   1.00
H175   H     0.34906   0.11261   0.21312   0.00000  Uiso   1.00
O176   O     0.55252   0.62751   0.93970   0.00000  Uiso   1.00
O177   O     0.96611   0.91513   0.81568   0.00000  Uiso   1.00
O178   O     0.30526   0.08307   0.33976   0.00000  Uiso   1.00
N179   N     0.44520   0.65622   0.99490   0.00000  Uiso   1.00
N180   N     0.02731   0.86117   0.90651   0.00000  Uiso   1.00
N181   N     0.26897   0.98085   0.27996   0.00000  Uiso   1.00
N182   N     0.50016   0.74120   0.93744   0.00000  Uiso   1.00
N183   N     0.08228   0.94615   0.84905   0.00000  Uiso   1.00
N184   N     0.32394   0.06583   0.22250   0.00000  Uiso   1.00
C185   C     0.67474   0.25764   0.56553   0.00000  Uiso   1.00
C186   C     0.70056   0.18830   0.53203   0.00000  Uiso   1.00
C187   C     0.76961   0.16062   0.53586   0.00000  Uiso   1.00
C188   C     0.78247   0.09651   0.50165   0.00000  Uiso   1.00
C189   C     0.83082   0.99420   0.45519   0.00000  Uiso   1.00
C190   C     0.64408   0.30347   0.50766   0.00000  Uiso   1.00
C191   C     0.66563   0.37263   0.49101   0.00000  Uiso   1.00
C192   C     0.63094   0.40547   0.43629   0.00000  Uiso   1.00
C193   C     0.59158   0.48199   0.35202   0.00000  Uiso   1.00
C194   C     0.61111   0.23686   0.61058   0.00000  Uiso   1.00
C195   C     0.60492   0.25003   0.68048   0.00000  Uiso   1.00
C196   C     0.54246   0.22680   0.71241   0.00000  Uiso   1.00
C197   C     0.45189   0.19989   0.78795   0.00000  Uiso   1.00
C198   C     0.57480   0.19301   0.49796   0.00000  Uiso   1.00
C199   C     0.64628   0.15320   0.49533   0.00000  Uiso   1.00
C200   C     0.65904   0.08911   0.46110   0.00000  Uiso   1.00
C201   C     0.72809   0.06134   0.46489   0.00000  Uiso   1.00
C202   C     0.58980   0.26837   0.47096   0.00000  Uiso   1.00
C203   C     0.55506   0.30112   0.41625   0.00000  Uiso   1.00
C204   C     0.57656   0.37030   0.39952   0.00000  Uiso   1.00
C205   C     0.55682   0.20175   0.57388   0.00000  Uiso   1.00
C206   C     0.49435   0.17851   0.60571   0.00000  Uiso   1.00
C207   C     0.48808   0.19163   0.67564   0.00000  Uiso   1.00
H208   H     0.71700   0.28497   0.59410   0.00000  Uiso   1.00
H209   H     0.81160   0.18781   0.56427   0.00000  Uiso   1.00
H210   H     0.70764   0.39978   0.51943   0.00000  Uiso   1.00
H211   H     0.64694   0.27719   0.70886   0.00000  Uiso   1.00
H212   H     0.89255   0.06461   0.51498   0.00000  Uiso   1.00
H213   H     0.67332   0.51158   0.42045   0.00000  Uiso   1.00
H214   H     0.54532   0.25308   0.81991   0.00000  Uiso   1.00
H215   H     0.53254   0.16567   0.46938   0.00000  Uiso   1.00
H216   H     0.61702   0.06196   0.43270   0.00000  Uiso   1.00
H217   H     0.51306   0.27393   0.38786   0.00000  Uiso   1.00
H218   H     0.45236   0.15135   0.57729   0.00000  Uiso   1.00
H219   H     0.73462   0.96247   0.40820   0.00000  Uiso   1.00
H220   H     0.51539   0.40944   0.31366   0.00000  Uiso   1.00
H221   H     0.38739   0.15094   0.71312   0.00000  Uiso   1.00
O222   O     0.87249   0.94748   0.43970   0.00000  Uiso   1.00
O223   O     0.58487   0.53389   0.31568   0.00000  Uiso   1.00
O224   O     0.41693   0.19474   0.83976   0.00000  Uiso   1.00
N225   N     0.84378   0.05480   0.49490   0.00000  Uiso   1.00
N226   N     0.63883   0.47269   0.40651   0.00000  Uiso   1.00
N227   N     0.51915   0.23103   0.77996   0.00000  Uiso   1.00
N228   N     0.75880   0.99984   0.43744   0.00000  Uiso   1.00
N229   N     0.55385   0.41772   0.34905   0.00000  Uiso   1.00
N230   N     0.43417   0.17606   0.72250   0.00000  Uiso   1.00
C231   C     0.32526   0.74236   0.56553   0.00000  Uiso   1.00
C232   C     0.29944   0.81170   0.53203   0.00000  Uiso   1.00
C233   C     0.23039   0.83938   0.53586   0.00000  Uiso   1.00
C234   C     0.21753   0.90349   0.50165   0.00000  Uiso   1.00
C235   C     0.16918   0.00580   0.45519   0.00000  Uiso   1.00
C236   C     0.35592   0.69653   0.50766   0.00000  Uiso   1.00
C237   C     0.33437   0.62737   0.49101   0.00000  Uiso   1.00
C238   C     0.36906   0.59453   0.43629   0.00000  Uiso   1.00
C239   C     0.40842   0.51801   0.35202   0.00000  Uiso   1.00
C240   C     0.38889   0.76314   0.61058   0.00000  Uiso   1.00
C241   C     0.39508   0.74997   0.68048   0.00000  Uiso   1.00
C242   C     0.45754   0.77320   0.71241   0.00000  Uiso   1.00
C243   C     0.54811   0.80011   0.78795   0.00000  Uiso   1.00
C244   C     0.42520   0.80699   0.49796   0.00000  Uiso   1.00
C245   C     0.35372   0.84680   0.49533   0.00000  Uiso   1.00
C246   C     0.34096   0.91089   0.46110   0.00000  Uiso   1.00
C247   C     0.27191   0.93866   0.46489   0.00000  Uiso   1.00
C248   C     0.41020   0.73163   0.47096   0.00000  Uiso   1.00
C249   C     0.44494   0.69888   0.41625   0.00000  Uiso   1.00
C250   C     0.42344   0.62970   0.39952   0.00000  Uiso   1.00
C251   C     0.44318   0.79825   0.57388   0.00000  Uiso   1.00
C252   C     0.50565   0.82149   0.60571   0.00000  Uiso   1.00
C253   C     0.51192   0.80837   0.67564   0.00000  Uiso   1.00
H254   H     0.28300   0.71503   0.59410   0.00000  Uiso   1.00
H255   H     0.18840   0.81219   0.56427   0.00000  Uiso   1.00
H256   H     0.29236   0.60022   0.51943   0.00000  Uiso   1.00
H257   H     0.35306   0.72281   0.70886   0.00000  Uiso   1.00
H258   H     0.10745   0.93539   0.51498   0.00000  Uiso   1.00
H259   H     0.32668   0.48842   0.42045   0.00000  Uiso   1.00
H260   H     0.45468   0.74692   0.81991   0.00000  Uiso   1.00
H261   H     0.46746   0.83433   0.46938   0.00000  Uiso   1.00
H262   H     0.38298   0.93804   0.43270   0.00000  Uiso   1.00
H263   H     0.48694   0.72607   0.38786   0.00000  Uiso   1.00
H264   H     0.54764   0.84865   0.57729   0.00000  Uiso   1.00
H265   H     0.26538   0.03753   0.40820   0.00000  Uiso   1.00
H266   H     0.48461   0.59056   0.31366   0.00000  Uiso   1.00
H267   H     0.61261   0.84906   0.71312   0.00000  Uiso   1.00
O268   O     0.12751   0.05252   0.43970   0.00000  Uiso   1.00
O269   O     0.41513   0.46611   0.31568   0.00000  Uiso   1.00
O270   O     0.58307   0.80526   0.83976   0.00000  Uiso   1.00
N271   N     0.15622   0.94520   0.49490   0.00000  Uiso   1.00
N272   N     0.36117   0.52731   0.40651   0.00000  Uiso   1.00
N273   N     0.48085   0.76897   0.77996   0.00000  Uiso   1.00
N274   N     0.24120   0.00016   0.43744   0.00000  Uiso   1.00
N275   N     0.44615   0.58228   0.34905   0.00000  Uiso   1.00
N276   N     0.56583   0.82394   0.72250   0.00000  Uiso   1.00
C277   C     0.74236   0.67474   0.43447   0.00000  Uiso   1.00
C278   C     0.81170   0.70056   0.46797   0.00000  Uiso   1.00
C279   C     0.83938   0.76961   0.46414   0.00000  Uiso   1.00
C280   C     0.90349   0.78247   0.49835   0.00000  Uiso   1.00
C281   C     0.00580   0.83082   0.54481   0.00000  Uiso   1.00
C282   C     0.69653   0.64408   0.49234   0.00000  Uiso   1.00
C283   C     0.62737   0.66563   0.50899   0.00000  Uiso   1.00
C284   C     0.59453   0.63094   0.56371   0.00000  Uiso   1.00
C285   C     0.51801   0.59158   0.64798   0.00000  Uiso   1.00
C286   C     0.76314   0.61111   0.38942   0.00000  Uiso   1.00
C287   C     0.74997   0.60492   0.31952   0.00000  Uiso   1.00
C288   C     0.77320   0.54246   0.28759   0.00000  Uiso   1.00
C289   C     0.80011   0.45189   0.21205   0.00000  Uiso   1.00
C290   C     0.80699   0.57480   0.50204   0.00000  Uiso   1.00
C291   C     0.84680   0.64628   0.50467   0.00000  Uiso   1.00
C292   C     0.91089   0.65904   0.53890   0.00000  Uiso   1.00
C293   C     0.93866   0.72809   0.53511   0.00000  Uiso   1.00
C294   C     0.73163   0.58980   0.52904   0.00000  Uiso   1.00
C295   C     0.69888   0.55506   0.58375   0.00000  Uiso   1.00
C296   C     0.62970   0.57656   0.60048   0.00000  Uiso   1.00
C297   C     0.79825   0.55682   0.42612   0.00000  Uiso   1.00
C298   C     0.82149   0.49435   0.39429   0.00000  Uiso   1.00
C299   C     0.80837   0.48808   0.32436   0.00000  Uiso   1.00
H300   H     0.71503   0.71700   0.40590   0.00000  Uiso   1.00
H301   H     0.81219   0.81160   0.43573   0.00000  Uiso   1.00
H302   H     0.60022   0.70764   0.48057   0.00000  Uiso   1.00
H303   H     0.72281   0.64694   0.29114   0.00000  Uiso   1.00
H304   H     0.93539   0.89255   0.48502   0.00000  Uiso   1.00
H305   H     0.48842   0.67332   0.57955   0.00000  Uiso   1.00
H306   H     0.74692   0.54532   0.18009   0.00000  Uiso   1.00
H307   H     0.83433   0.53254   0.53062   0.00000  Uiso   1.00
H308   H     0.93804   0.61702   0.56730   0.00000  Uiso   1.00
H309   H     0.72607   0.51306   0.61214   0.00000  Uiso   1.00
H310   H     0.84865   0.45236   0.42271   0.00000  Uiso   1.00
H311   H     0.03753   0.73462   0.59180   0.00000  Uiso   1.00
H312   H     0.59056   0.51539   0.68634   0.00000  Uiso   1.00
H313   H     0.84906   0.38739   0.28688   0.00000  Uiso   1.00
O314   O     0.05252   0.87249   0.56030   0.00000  Uiso   1.00
O315   O     0.46611   0.58487   0.68432   0.00000  Uiso   1.00
O316   O     0.80526   0.41693   0.16024   0.00000  Uiso   1.00
N317   N     0.94520   0.84378   0.50510   0.00000  Uiso   1.00
N318   N     0.52731   0.63883   0.59349   0.00000  Uiso   1.00
N319   N     0.76897   0.51915   0.22004   0.00000  Uiso   1.00
N320   N     0.00016   0.75880   0.56256   0.00000  Uiso   1.00
N321   N     0.58228   0.55385   0.65095   0.00000  Uiso   1.00
N322   N     0.82394   0.43417   0.27750   0.00000  Uiso   1.00
C323   C     0.25764   0.32526   0.43447   0.00000  Uiso   1.00
C324   C     0.18830   0.29944   0.46797   0.00000  Uiso   1.00
C325   C     0.16062   0.23039   0.46414   0.00000  Uiso   1.00
C326   C     0.09651   0.21753   0.49835   0.00000  Uiso   1.00
C327   C     0.99420   0.16918   0.54481   0.00000  Uiso   1.00
C328   C     0.30347   0.35592   0.49234   0.00000  Uiso   1.00
C329   C     0.37263   0.33437   0.50899   0.00000  Uiso   1.00
C330   C     0.40547   0.36906   0.56371   0.00000  Uiso   1.00
C331   C     0.48199   0.40842   0.64798   0.00000  Uiso   1.00
C332   C     0.23686   0.38889   0.38942   0.00000  Uiso   1.00
C333   C     0.25003   0.39508   0.31952   0.00000  Uiso   1.00
C334   C     0.22680   0.45754   0.28759   0.00000  Uiso   1.00
C335   C     0.19989   0.54811   0.21205   0.00000  Uiso   1.00
C336   C     0.19301   0.42520   0.50204   0.00000  Uiso   1.00
C337   C     0.15320   0.35372   0.50467   0.00000  Uiso   1.00
C338   C     0.08911   0.34096   0.53890   0.00000  Uiso   1.00
C339   C     0.06134   0.27191   0.53511   0.00000  Uiso   1.00
C340   C     0.26837   0.41020   0.52904   0.00000  Uiso   1.00
C341   C     0.30112   0.44494   0.58375   0.00000  Uiso   1.00
C342   C     0.37030   0.42344   0.60048   0.00000  Uiso   1.00
C343   C     0.20175   0.44318   0.42612   0.00000  Uiso   1.00
C344   C     0.17851   0.50565   0.39429   0.00000  Uiso   1.00
C345   C     0.19163   0.51192   0.32436   0.00000  Uiso   1.00
H346   H     0.28497   0.28300   0.40590   0.00000  Uiso   1.00
H347   H     0.18781   0.18840   0.43573   0.00000  Uiso   1.00
H348   H     0.39978   0.29236   0.48057   0.00000  Uiso   1.00
H349   H     0.27719   0.35306   0.29114   0.00000  Uiso   1.00
H350   H     0.06461   0.10745   0.48502   0.00000  Uiso   1.00
H351   H     0.51158   0.32668   0.57955   0.00000  Uiso   1.00
H352   H     0.25308   0.45468   0.18009   0.00000  Uiso   1.00
H353   H     0.16567   0.46746   0.53062   0.00000  Uiso   1.00
H354   H     0.06196   0.38298   0.56730   0.00000  Uiso   1.00
H355   H     0.27393   0.48694   0.61214   0.00000  Uiso   1.00
H356   H     0.15135   0.54764   0.42271   0.00000  Uiso   1.00
H357   H     0.96247   0.26538   0.59180   0.00000  Uiso   1.00
H358   H     0.40944   0.48461   0.68634   0.00000  Uiso   1.00
H359   H     0.15094   0.61261   0.28688   0.00000  Uiso   1.00
O360   O     0.94748   0.12751   0.56030   0.00000  Uiso   1.00
O361   O     0.53389   0.41513   0.68432   0.00000  Uiso   1.00
O362   O     0.19474   0.58307   0.16024   0.00000  Uiso   1.00
N363   N     0.05480   0.15622   0.50510   0.00000  Uiso   1.00
N364   N     0.47269   0.36117   0.59349   0.00000  Uiso   1.00
N365   N     0.23103   0.48085   0.22004   0.00000  Uiso   1.00
N366   N     0.99984   0.24120   0.56256   0.00000  Uiso   1.00
N367   N     0.41772   0.44615   0.65095   0.00000  Uiso   1.00
N368   N     0.17606   0.56583   0.27750   0.00000  Uiso   1.00
