data_job_02427
_audit_creation_date              2018-12-19
_audit_creation_method            'Materials Studio'
_symmetry_space_group_name_H-M    'P1'
_symmetry_Int_Tables_number       1
_symmetry_cell_setting            triclinic
loop_
_symmetry_equiv_pos_as_xyz
  x,y,z
_cell_length_a                    27.3608
_cell_length_b                    12.1736
_cell_length_c                    22.9221
_cell_angle_alpha                 90.0000
_cell_angle_beta                  57.6367
_cell_angle_gamma                 90.0000
loop_
_atom_site_label
_atom_site_type_symbol
_atom_site_fract_x
_atom_site_fract_y
_atom_site_fract_z
_atom_site_U_iso_or_equiv
_atom_site_adp_type
_atom_site_occupancy
C1     C     0.75015   0.77470   0.20907   0.00000  Uiso   1.00
C2     C     0.69931   0.71762   0.27121   0.00000  Uiso   1.00
C3     C     0.68441   0.72700   0.33917   0.00000  Uiso   1.00
C4     C     0.63640   0.66817   0.38854   0.00000  Uiso   1.00
C5     C     0.56234   0.58950   0.48776   0.00000  Uiso   1.00
C6     C     0.78637   0.68370   0.15843   0.00000  Uiso   1.00
C7     C     0.84468   0.66458   0.13155   0.00000  Uiso   1.00
C8     C     0.86995   0.57721   0.08597   0.00000  Uiso   1.00
C9     C     0.93107   0.44594   0.01006   0.00000  Uiso   1.00
C10    C     0.72449   0.83975   0.17484   0.00000  Uiso   1.00
C11    C     0.73077   0.95183   0.16175   0.00000  Uiso   1.00
C12    C     0.70396   0.99583   0.12997   0.00000  Uiso   1.00
C13    C     0.66899   0.10684   0.07953   0.00000  Uiso   1.00
C14    C     0.69138   0.65354   0.17590   0.00000  Uiso   1.00
C15    C     0.66740   0.65181   0.25319   0.00000  Uiso   1.00
C16    C     0.61939   0.59295   0.30247   0.00000  Uiso   1.00
C17    C     0.60442   0.60224   0.37049   0.00000  Uiso   1.00
C18    C     0.75446   0.61789   0.14041   0.00000  Uiso   1.00
C19    C     0.77966   0.53053   0.09485   0.00000  Uiso   1.00
C20    C     0.83798   0.51128   0.06792   0.00000  Uiso   1.00
C21    C     0.69257   0.77394   0.15682   0.00000  Uiso   1.00
C22    C     0.66575   0.81778   0.12505   0.00000  Uiso   1.00
C23    C     0.67198   0.92990   0.11191   0.00000  Uiso   1.00
H24    H     0.77500   0.82594   0.22310   0.00000  Uiso   1.00
H25    H     0.70913   0.77793   0.35309   0.00000  Uiso   1.00
H26    H     0.86936   0.71553   0.14550   0.00000  Uiso   1.00
H27    H     0.75547   0.00273   0.17570   0.00000  Uiso   1.00
H28    H     0.62203   0.69565   0.48927   0.00000  Uiso   1.00
H29    H     0.95991   0.56411   0.05154   0.00000  Uiso   1.00
H30    H     0.71974   0.16972   0.11520   0.00000  Uiso   1.00
H31    H     0.66653   0.60230   0.16187   0.00000  Uiso   1.00
H32    H     0.59470   0.54203   0.28851   0.00000  Uiso   1.00
H33    H     0.75495   0.47963   0.08092   0.00000  Uiso   1.00
H34    H     0.64105   0.76683   0.11111   0.00000  Uiso   1.00
H35    H     0.52916   0.50418   0.43685   0.00000  Uiso   1.00
H36    H     0.86704   0.37264   0.99912   0.00000  Uiso   1.00
H37    H     0.62688   0.97825   0.06278   0.00000  Uiso   1.00
O38    O     0.53031   0.56427   0.54747   0.00000  Uiso   1.00
O39    O     0.97360   0.39170   0.97317   0.00000  Uiso   1.00
O40    O     0.65851   0.18625   0.05670   0.00000  Uiso   1.00
N41    N     0.61002   0.65888   0.45956   0.00000  Uiso   1.00
N42    N     0.92592   0.53588   0.05031   0.00000  Uiso   1.00
N43    N     0.70140   0.10207   0.10981   0.00000  Uiso   1.00
N44    N     0.56005   0.55585   0.43135   0.00000  Uiso   1.00
N45    N     0.87595   0.43285   0.02210   0.00000  Uiso   1.00
N46    N     0.65143   0.99905   0.08161   0.00000  Uiso   1.00
C47    C     0.25015   0.27470   0.20907   0.00000  Uiso   1.00
C48    C     0.19931   0.21762   0.27121   0.00000  Uiso   1.00
C49    C     0.18441   0.22700   0.33917   0.00000  Uiso   1.00
C50    C     0.13640   0.16817   0.38854   0.00000  Uiso   1.00
C51    C     0.06234   0.08950   0.48776   0.00000  Uiso   1.00
C52    C     0.28637   0.18370   0.15843   0.00000  Uiso   1.00
C53    C     0.34468   0.16458   0.13155   0.00000  Uiso   1.00
C54    C     0.36995   0.07721   0.08597   0.00000  Uiso   1.00
C55    C     0.43107   0.94594   0.01006   0.00000  Uiso   1.00
C56    C     0.22449   0.33975   0.17484   0.00000  Uiso   1.00
C57    C     0.23077   0.45183   0.16175   0.00000  Uiso   1.00
C58    C     0.20396   0.49583   0.12997   0.00000  Uiso   1.00
C59    C     0.16899   0.60684   0.07953   0.00000  Uiso   1.00
C60    C     0.19138   0.15354   0.17590   0.00000  Uiso   1.00
C61    C     0.16740   0.15181   0.25319   0.00000  Uiso   1.00
C62    C     0.11939   0.09295   0.30247   0.00000  Uiso   1.00
C63    C     0.10442   0.10224   0.37049   0.00000  Uiso   1.00
C64    C     0.25446   0.11789   0.14041   0.00000  Uiso   1.00
C65    C     0.27966   0.03053   0.09485   0.00000  Uiso   1.00
C66    C     0.33798   0.01128   0.06792   0.00000  Uiso   1.00
C67    C     0.19257   0.27394   0.15682   0.00000  Uiso   1.00
C68    C     0.16575   0.31778   0.12505   0.00000  Uiso   1.00
C69    C     0.17198   0.42990   0.11191   0.00000  Uiso   1.00
H70    H     0.27500   0.32594   0.22310   0.00000  Uiso   1.00
H71    H     0.20913   0.27793   0.35309   0.00000  Uiso   1.00
H72    H     0.36936   0.21553   0.14550   0.00000  Uiso   1.00
H73    H     0.25547   0.50273   0.17570   0.00000  Uiso   1.00
H74    H     0.12203   0.19565   0.48927   0.00000  Uiso   1.00
H75    H     0.45991   0.06411   0.05154   0.00000  Uiso   1.00
H76    H     0.21974   0.66972   0.11520   0.00000  Uiso   1.00
H77    H     0.16653   0.10230   0.16187   0.00000  Uiso   1.00
H78    H     0.09470   0.04203   0.28851   0.00000  Uiso   1.00
H79    H     0.25495   0.97963   0.08092   0.00000  Uiso   1.00
H80    H     0.14105   0.26683   0.11111   0.00000  Uiso   1.00
H81    H     0.02916   0.00418   0.43685   0.00000  Uiso   1.00
H82    H     0.36704   0.87264   0.99912   0.00000  Uiso   1.00
H83    H     0.12688   0.47825   0.06278   0.00000  Uiso   1.00
O84    O     0.03031   0.06427   0.54747   0.00000  Uiso   1.00
O85    O     0.47360   0.89170   0.97317   0.00000  Uiso   1.00
O86    O     0.15851   0.68625   0.05670   0.00000  Uiso   1.00
N87    N     0.11002   0.15888   0.45956   0.00000  Uiso   1.00
N88    N     0.42592   0.03588   0.05031   0.00000  Uiso   1.00
N89    N     0.20140   0.60207   0.10981   0.00000  Uiso   1.00
N90    N     0.06005   0.05585   0.43135   0.00000  Uiso   1.00
N91    N     0.37595   0.93285   0.02210   0.00000  Uiso   1.00
N92    N     0.15143   0.49905   0.08161   0.00000  Uiso   1.00
C93    C     0.24985   0.77470   0.29093   0.00000  Uiso   1.00
C94    C     0.30069   0.71762   0.22879   0.00000  Uiso   1.00
C95    C     0.31559   0.72700   0.16083   0.00000  Uiso   1.00
C96    C     0.36360   0.66817   0.11146   0.00000  Uiso   1.00
C97    C     0.43766   0.58950   0.01224   0.00000  Uiso   1.00
C98    C     0.21363   0.68370   0.34157   0.00000  Uiso   1.00
C99    C     0.15532   0.66458   0.36845   0.00000  Uiso   1.00
C100   C     0.13005   0.57721   0.41403   0.00000  Uiso   1.00
C101   C     0.06893   0.44594   0.48994   0.00000  Uiso   1.00
C102   C     0.27551   0.83975   0.32516   0.00000  Uiso   1.00
C103   C     0.26923   0.95183   0.33825   0.00000  Uiso   1.00
C104   C     0.29604   0.99583   0.37003   0.00000  Uiso   1.00
C105   C     0.33101   0.10684   0.42047   0.00000  Uiso   1.00
C106   C     0.30862   0.65354   0.32410   0.00000  Uiso   1.00
C107   C     0.33260   0.65181   0.24681   0.00000  Uiso   1.00
C108   C     0.38061   0.59295   0.19753   0.00000  Uiso   1.00
C109   C     0.39558   0.60224   0.12951   0.00000  Uiso   1.00
C110   C     0.24554   0.61789   0.35959   0.00000  Uiso   1.00
C111   C     0.22034   0.53053   0.40515   0.00000  Uiso   1.00
C112   C     0.16202   0.51128   0.43208   0.00000  Uiso   1.00
C113   C     0.30743   0.77394   0.34318   0.00000  Uiso   1.00
C114   C     0.33425   0.81778   0.37495   0.00000  Uiso   1.00
C115   C     0.32802   0.92990   0.38809   0.00000  Uiso   1.00
H116   H     0.22500   0.82594   0.27690   0.00000  Uiso   1.00
H117   H     0.29087   0.77793   0.14691   0.00000  Uiso   1.00
H118   H     0.13064   0.71553   0.35450   0.00000  Uiso   1.00
H119   H     0.24453   0.00273   0.32430   0.00000  Uiso   1.00
H120   H     0.37797   0.69565   0.01073   0.00000  Uiso   1.00
H121   H     0.04009   0.56411   0.44846   0.00000  Uiso   1.00
H122   H     0.28026   0.16972   0.38480   0.00000  Uiso   1.00
H123   H     0.33347   0.60230   0.33813   0.00000  Uiso   1.00
H124   H     0.40530   0.54203   0.21149   0.00000  Uiso   1.00
H125   H     0.24505   0.47963   0.41908   0.00000  Uiso   1.00
H126   H     0.35895   0.76683   0.38889   0.00000  Uiso   1.00
H127   H     0.47084   0.50418   0.06315   0.00000  Uiso   1.00
H128   H     0.13296   0.37264   0.50088   0.00000  Uiso   1.00
H129   H     0.37312   0.97825   0.43722   0.00000  Uiso   1.00
O130   O     0.46969   0.56427   0.95253   0.00000  Uiso   1.00
O131   O     0.02640   0.39170   0.52683   0.00000  Uiso   1.00
O132   O     0.34149   0.18625   0.44330   0.00000  Uiso   1.00
N133   N     0.38998   0.65888   0.04044   0.00000  Uiso   1.00
N134   N     0.07408   0.53588   0.44969   0.00000  Uiso   1.00
N135   N     0.29860   0.10207   0.39019   0.00000  Uiso   1.00
N136   N     0.43995   0.55585   0.06865   0.00000  Uiso   1.00
N137   N     0.12405   0.43285   0.47790   0.00000  Uiso   1.00
N138   N     0.34857   0.99905   0.41839   0.00000  Uiso   1.00
C139   C     0.74985   0.27470   0.29093   0.00000  Uiso   1.00
C140   C     0.80069   0.21762   0.22879   0.00000  Uiso   1.00
C141   C     0.81559   0.22700   0.16083   0.00000  Uiso   1.00
C142   C     0.86360   0.16817   0.11146   0.00000  Uiso   1.00
C143   C     0.93766   0.08950   0.01224   0.00000  Uiso   1.00
C144   C     0.71363   0.18370   0.34157   0.00000  Uiso   1.00
C145   C     0.65532   0.16458   0.36845   0.00000  Uiso   1.00
C146   C     0.63005   0.07721   0.41403   0.00000  Uiso   1.00
C147   C     0.56893   0.94594   0.48994   0.00000  Uiso   1.00
C148   C     0.77551   0.33975   0.32516   0.00000  Uiso   1.00
C149   C     0.76923   0.45183   0.33825   0.00000  Uiso   1.00
C150   C     0.79604   0.49583   0.37003   0.00000  Uiso   1.00
C151   C     0.83101   0.60684   0.42047   0.00000  Uiso   1.00
C152   C     0.80862   0.15354   0.32410   0.00000  Uiso   1.00
C153   C     0.83260   0.15181   0.24681   0.00000  Uiso   1.00
C154   C     0.88061   0.09295   0.19753   0.00000  Uiso   1.00
C155   C     0.89558   0.10224   0.12951   0.00000  Uiso   1.00
C156   C     0.74554   0.11789   0.35959   0.00000  Uiso   1.00
C157   C     0.72034   0.03053   0.40515   0.00000  Uiso   1.00
C158   C     0.66202   0.01128   0.43208   0.00000  Uiso   1.00
C159   C     0.80743   0.27394   0.34318   0.00000  Uiso   1.00
C160   C     0.83425   0.31778   0.37495   0.00000  Uiso   1.00
C161   C     0.82802   0.42990   0.38809   0.00000  Uiso   1.00
H162   H     0.72500   0.32594   0.27690   0.00000  Uiso   1.00
H163   H     0.79087   0.27793   0.14691   0.00000  Uiso   1.00
H164   H     0.63064   0.21553   0.35450   0.00000  Uiso   1.00
H165   H     0.74453   0.50273   0.32430   0.00000  Uiso   1.00
H166   H     0.87797   0.19565   0.01073   0.00000  Uiso   1.00
H167   H     0.54009   0.06411   0.44846   0.00000  Uiso   1.00
H168   H     0.78026   0.66972   0.38480   0.00000  Uiso   1.00
H169   H     0.83347   0.10230   0.33813   0.00000  Uiso   1.00
H170   H     0.90530   0.04203   0.21149   0.00000  Uiso   1.00
H171   H     0.74505   0.97963   0.41908   0.00000  Uiso   1.00
H172   H     0.85895   0.26683   0.38889   0.00000  Uiso   1.00
H173   H     0.97084   0.00418   0.06315   0.00000  Uiso   1.00
H174   H     0.63296   0.87264   0.50088   0.00000  Uiso   1.00
H175   H     0.87312   0.47825   0.43722   0.00000  Uiso   1.00
O176   O     0.96969   0.06427   0.95253   0.00000  Uiso   1.00
O177   O     0.52640   0.89170   0.52683   0.00000  Uiso   1.00
O178   O     0.84149   0.68625   0.44330   0.00000  Uiso   1.00
N179   N     0.88998   0.15888   0.04044   0.00000  Uiso   1.00
N180   N     0.57408   0.03588   0.44969   0.00000  Uiso   1.00
N181   N     0.79860   0.60207   0.39019   0.00000  Uiso   1.00
N182   N     0.93995   0.05585   0.06865   0.00000  Uiso   1.00
N183   N     0.62405   0.93285   0.47790   0.00000  Uiso   1.00
N184   N     0.84857   0.49905   0.41839   0.00000  Uiso   1.00
C185   C     0.24985   0.22530   0.79093   0.00000  Uiso   1.00
C186   C     0.30069   0.28238   0.72879   0.00000  Uiso   1.00
C187   C     0.31559   0.27300   0.66083   0.00000  Uiso   1.00
C188   C     0.36360   0.33183   0.61146   0.00000  Uiso   1.00
C189   C     0.43766   0.41050   0.51224   0.00000  Uiso   1.00
C190   C     0.21363   0.31630   0.84157   0.00000  Uiso   1.00
C191   C     0.15532   0.33542   0.86845   0.00000  Uiso   1.00
C192   C     0.13005   0.42279   0.91403   0.00000  Uiso   1.00
C193   C     0.06893   0.55406   0.98994   0.00000  Uiso   1.00
C194   C     0.27551   0.16025   0.82516   0.00000  Uiso   1.00
C195   C     0.26923   0.04817   0.83825   0.00000  Uiso   1.00
C196   C     0.29604   0.00417   0.87003   0.00000  Uiso   1.00
C197   C     0.33101   0.89316   0.92047   0.00000  Uiso   1.00
C198   C     0.30862   0.34646   0.82410   0.00000  Uiso   1.00
C199   C     0.33260   0.34819   0.74681   0.00000  Uiso   1.00
C200   C     0.38061   0.40705   0.69753   0.00000  Uiso   1.00
C201   C     0.39558   0.39776   0.62951   0.00000  Uiso   1.00
C202   C     0.24554   0.38211   0.85959   0.00000  Uiso   1.00
C203   C     0.22034   0.46947   0.90515   0.00000  Uiso   1.00
C204   C     0.16202   0.48872   0.93208   0.00000  Uiso   1.00
C205   C     0.30743   0.22606   0.84318   0.00000  Uiso   1.00
C206   C     0.33425   0.18222   0.87495   0.00000  Uiso   1.00
C207   C     0.32802   0.07010   0.88809   0.00000  Uiso   1.00
H208   H     0.22500   0.17406   0.77690   0.00000  Uiso   1.00
H209   H     0.29087   0.22207   0.64691   0.00000  Uiso   1.00
H210   H     0.13064   0.28447   0.85450   0.00000  Uiso   1.00
H211   H     0.24453   0.99727   0.82430   0.00000  Uiso   1.00
H212   H     0.37797   0.30435   0.51073   0.00000  Uiso   1.00
H213   H     0.04009   0.43589   0.94846   0.00000  Uiso   1.00
H214   H     0.28026   0.83028   0.88480   0.00000  Uiso   1.00
H215   H     0.33347   0.39770   0.83813   0.00000  Uiso   1.00
H216   H     0.40530   0.45797   0.71149   0.00000  Uiso   1.00
H217   H     0.24505   0.52037   0.91908   0.00000  Uiso   1.00
H218   H     0.35895   0.23317   0.88889   0.00000  Uiso   1.00
H219   H     0.47084   0.49582   0.56315   0.00000  Uiso   1.00
H220   H     0.13296   0.62736   0.00088   0.00000  Uiso   1.00
H221   H     0.37312   0.02175   0.93722   0.00000  Uiso   1.00
O222   O     0.46969   0.43573   0.45253   0.00000  Uiso   1.00
O223   O     0.02640   0.60830   0.02683   0.00000  Uiso   1.00
O224   O     0.34149   0.81375   0.94330   0.00000  Uiso   1.00
N225   N     0.38998   0.34112   0.54044   0.00000  Uiso   1.00
N226   N     0.07408   0.46412   0.94969   0.00000  Uiso   1.00
N227   N     0.29860   0.89793   0.89019   0.00000  Uiso   1.00
N228   N     0.43995   0.44415   0.56865   0.00000  Uiso   1.00
N229   N     0.12405   0.56715   0.97790   0.00000  Uiso   1.00
N230   N     0.34857   0.00095   0.91839   0.00000  Uiso   1.00
C231   C     0.74985   0.72530   0.79093   0.00000  Uiso   1.00
C232   C     0.80069   0.78238   0.72879   0.00000  Uiso   1.00
C233   C     0.81559   0.77300   0.66083   0.00000  Uiso   1.00
C234   C     0.86360   0.83183   0.61146   0.00000  Uiso   1.00
C235   C     0.93766   0.91050   0.51224   0.00000  Uiso   1.00
C236   C     0.71363   0.81630   0.84157   0.00000  Uiso   1.00
C237   C     0.65532   0.83542   0.86845   0.00000  Uiso   1.00
C238   C     0.63005   0.92279   0.91403   0.00000  Uiso   1.00
C239   C     0.56893   0.05406   0.98994   0.00000  Uiso   1.00
C240   C     0.77551   0.66025   0.82516   0.00000  Uiso   1.00
C241   C     0.76923   0.54817   0.83825   0.00000  Uiso   1.00
C242   C     0.79604   0.50417   0.87003   0.00000  Uiso   1.00
C243   C     0.83101   0.39316   0.92047   0.00000  Uiso   1.00
C244   C     0.80862   0.84646   0.82410   0.00000  Uiso   1.00
C245   C     0.83260   0.84819   0.74681   0.00000  Uiso   1.00
C246   C     0.88061   0.90705   0.69753   0.00000  Uiso   1.00
C247   C     0.89558   0.89776   0.62951   0.00000  Uiso   1.00
C248   C     0.74554   0.88211   0.85959   0.00000  Uiso   1.00
C249   C     0.72034   0.96947   0.90515   0.00000  Uiso   1.00
C250   C     0.66202   0.98872   0.93208   0.00000  Uiso   1.00
C251   C     0.80743   0.72606   0.84318   0.00000  Uiso   1.00
C252   C     0.83425   0.68222   0.87495   0.00000  Uiso   1.00
C253   C     0.82802   0.57010   0.88809   0.00000  Uiso   1.00
H254   H     0.72500   0.67406   0.77690   0.00000  Uiso   1.00
H255   H     0.79087   0.72207   0.64691   0.00000  Uiso   1.00
H256   H     0.63064   0.78447   0.85450   0.00000  Uiso   1.00
H257   H     0.74453   0.49727   0.82430   0.00000  Uiso   1.00
H258   H     0.87797   0.80435   0.51073   0.00000  Uiso   1.00
H259   H     0.54009   0.93589   0.94846   0.00000  Uiso   1.00
H260   H     0.78026   0.33028   0.88480   0.00000  Uiso   1.00
H261   H     0.83347   0.89770   0.83813   0.00000  Uiso   1.00
H262   H     0.90530   0.95797   0.71149   0.00000  Uiso   1.00
H263   H     0.74505   0.02037   0.91908   0.00000  Uiso   1.00
H264   H     0.85895   0.73317   0.88889   0.00000  Uiso   1.00
H265   H     0.97084   0.99582   0.56315   0.00000  Uiso   1.00
H266   H     0.63296   0.12736   0.00088   0.00000  Uiso   1.00
H267   H     0.87312   0.52175   0.93722   0.00000  Uiso   1.00
O268   O     0.96969   0.93573   0.45253   0.00000  Uiso   1.00
O269   O     0.52640   0.10830   0.02683   0.00000  Uiso   1.00
O270   O     0.84149   0.31375   0.94330   0.00000  Uiso   1.00
N271   N     0.88998   0.84112   0.54044   0.00000  Uiso   1.00
N272   N     0.57408   0.96412   0.94969   0.00000  Uiso   1.00
N273   N     0.79860   0.39793   0.89019   0.00000  Uiso   1.00
N274   N     0.93995   0.94415   0.56865   0.00000  Uiso   1.00
N275   N     0.62405   0.06715   0.97790   0.00000  Uiso   1.00
N276   N     0.84857   0.50095   0.91839   0.00000  Uiso   1.00
C277   C     0.75015   0.22530   0.70907   0.00000  Uiso   1.00
C278   C     0.69931   0.28238   0.77121   0.00000  Uiso   1.00
C279   C     0.68441   0.27300   0.83917   0.00000  Uiso   1.00
C280   C     0.63640   0.33183   0.88854   0.00000  Uiso   1.00
C281   C     0.56234   0.41050   0.98776   0.00000  Uiso   1.00
C282   C     0.78637   0.31630   0.65843   0.00000  Uiso   1.00
C283   C     0.84468   0.33542   0.63155   0.00000  Uiso   1.00
C284   C     0.86995   0.42279   0.58597   0.00000  Uiso   1.00
C285   C     0.93107   0.55406   0.51006   0.00000  Uiso   1.00
C286   C     0.72449   0.16025   0.67484   0.00000  Uiso   1.00
C287   C     0.73077   0.04817   0.66175   0.00000  Uiso   1.00
C288   C     0.70396   0.00417   0.62997   0.00000  Uiso   1.00
C289   C     0.66899   0.89316   0.57953   0.00000  Uiso   1.00
C290   C     0.69138   0.34646   0.67590   0.00000  Uiso   1.00
C291   C     0.66740   0.34819   0.75319   0.00000  Uiso   1.00
C292   C     0.61939   0.40705   0.80247   0.00000  Uiso   1.00
C293   C     0.60442   0.39776   0.87049   0.00000  Uiso   1.00
C294   C     0.75446   0.38211   0.64041   0.00000  Uiso   1.00
C295   C     0.77966   0.46947   0.59485   0.00000  Uiso   1.00
C296   C     0.83798   0.48872   0.56792   0.00000  Uiso   1.00
C297   C     0.69257   0.22606   0.65682   0.00000  Uiso   1.00
C298   C     0.66575   0.18222   0.62505   0.00000  Uiso   1.00
C299   C     0.67198   0.07010   0.61191   0.00000  Uiso   1.00
H300   H     0.77500   0.17406   0.72310   0.00000  Uiso   1.00
H301   H     0.70913   0.22207   0.85309   0.00000  Uiso   1.00
H302   H     0.86936   0.28447   0.64550   0.00000  Uiso   1.00
H303   H     0.75547   0.99727   0.67570   0.00000  Uiso   1.00
H304   H     0.62203   0.30435   0.98927   0.00000  Uiso   1.00
H305   H     0.95991   0.43589   0.55154   0.00000  Uiso   1.00
H306   H     0.71974   0.83028   0.61520   0.00000  Uiso   1.00
H307   H     0.66653   0.39770   0.66187   0.00000  Uiso   1.00
H308   H     0.59470   0.45797   0.78851   0.00000  Uiso   1.00
H309   H     0.75495   0.52037   0.58092   0.00000  Uiso   1.00
H310   H     0.64105   0.23317   0.61111   0.00000  Uiso   1.00
H311   H     0.52916   0.49582   0.93685   0.00000  Uiso   1.00
H312   H     0.86704   0.62736   0.49912   0.00000  Uiso   1.00
H313   H     0.62688   0.02175   0.56278   0.00000  Uiso   1.00
O314   O     0.53031   0.43573   0.04747   0.00000  Uiso   1.00
O315   O     0.97360   0.60830   0.47317   0.00000  Uiso   1.00
O316   O     0.65851   0.81375   0.55670   0.00000  Uiso   1.00
N317   N     0.61002   0.34112   0.95956   0.00000  Uiso   1.00
N318   N     0.92592   0.46412   0.55031   0.00000  Uiso   1.00
N319   N     0.70140   0.89793   0.60981   0.00000  Uiso   1.00
N320   N     0.56005   0.44415   0.93135   0.00000  Uiso   1.00
N321   N     0.87595   0.56715   0.52210   0.00000  Uiso   1.00
N322   N     0.65143   0.00095   0.58161   0.00000  Uiso   1.00
C323   C     0.25015   0.72530   0.70907   0.00000  Uiso   1.00
C324   C     0.19931   0.78238   0.77121   0.00000  Uiso   1.00
C325   C     0.18441   0.77300   0.83917   0.00000  Uiso   1.00
C326   C     0.13640   0.83183   0.88854   0.00000  Uiso   1.00
C327   C     0.06234   0.91050   0.98776   0.00000  Uiso   1.00
C328   C     0.28637   0.81630   0.65843   0.00000  Uiso   1.00
C329   C     0.34468   0.83542   0.63155   0.00000  Uiso   1.00
C330   C     0.36995   0.92279   0.58597   0.00000  Uiso   1.00
C331   C     0.43107   0.05406   0.51006   0.00000  Uiso   1.00
C332   C     0.22449   0.66025   0.67484   0.00000  Uiso   1.00
C333   C     0.23077   0.54817   0.66175   0.00000  Uiso   1.00
C334   C     0.20396   0.50417   0.62997   0.00000  Uiso   1.00
C335   C     0.16899   0.39316   0.57953   0.00000  Uiso   1.00
C336   C     0.19138   0.84646   0.67590   0.00000  Uiso   1.00
C337   C     0.16740   0.84819   0.75319   0.00000  Uiso   1.00
C338   C     0.11939   0.90705   0.80247   0.00000  Uiso   1.00
C339   C     0.10442   0.89776   0.87049   0.00000  Uiso   1.00
C340   C     0.25446   0.88211   0.64041   0.00000  Uiso   1.00
C341   C     0.27966   0.96947   0.59485   0.00000  Uiso   1.00
C342   C     0.33798   0.98872   0.56792   0.00000  Uiso   1.00
C343   C     0.19257   0.72606   0.65682   0.00000  Uiso   1.00
C344   C     0.16575   0.68222   0.62505   0.00000  Uiso   1.00
C345   C     0.17198   0.57010   0.61191   0.00000  Uiso   1.00
H346   H     0.27500   0.67406   0.72310   0.00000  Uiso   1.00
H347   H     0.20913   0.72207   0.85309   0.00000  Uiso   1.00
H348   H     0.36936   0.78447   0.64550   0.00000  Uiso   1.00
H349   H     0.25547   0.49727   0.67570   0.00000  Uiso   1.00
H350   H     0.12203   0.80435   0.98927   0.00000  Uiso   1.00
H351   H     0.45991   0.93589   0.55154   0.00000  Uiso   1.00
H352   H     0.21974   0.33028   0.61520   0.00000  Uiso   1.00
H353   H     0.16653   0.89770   0.66187   0.00000  Uiso   1.00
H354   H     0.09470   0.95797   0.78851   0.00000  Uiso   1.00
H355   H     0.25495   0.02037   0.58092   0.00000  Uiso   1.00
H356   H     0.14105   0.73317   0.61111   0.00000  Uiso   1.00
H357   H     0.02916   0.99582   0.93685   0.00000  Uiso   1.00
H358   H     0.36704   0.12736   0.49912   0.00000  Uiso   1.00
H359   H     0.12688   0.52175   0.56278   0.00000  Uiso   1.00
O360   O     0.03031   0.93573   0.04747   0.00000  Uiso   1.00
O361   O     0.47360   0.10830   0.47317   0.00000  Uiso   1.00
O362   O     0.15851   0.31375   0.55670   0.00000  Uiso   1.00
N363   N     0.11002   0.84112   0.95956   0.00000  Uiso   1.00
N364   N     0.42592   0.96412   0.55031   0.00000  Uiso   1.00
N365   N     0.20140   0.39793   0.60981   0.00000  Uiso   1.00
N366   N     0.06005   0.94415   0.93135   0.00000  Uiso   1.00
N367   N     0.37595   0.06715   0.52210   0.00000  Uiso   1.00
N368   N     0.15143   0.50095   0.58161   0.00000  Uiso   1.00
