data_job_02722
_audit_creation_date              2018-12-19
_audit_creation_method            'Materials Studio'
_symmetry_space_group_name_H-M    'P1'
_symmetry_Int_Tables_number       1
_symmetry_cell_setting            triclinic
loop_
_symmetry_equiv_pos_as_xyz
  x,y,z
_cell_length_a                    12.2630
_cell_length_b                    19.7829
_cell_length_c                    23.9372
_cell_angle_alpha                 90.0000
_cell_angle_beta                  85.0929
_cell_angle_gamma                 90.0000
loop_
_atom_site_label
_atom_site_type_symbol
_atom_site_fract_x
_atom_site_fract_y
_atom_site_fract_z
_atom_site_U_iso_or_equiv
_atom_site_adp_type
_atom_site_occupancy
C1     C     0.69779   0.82295   0.99498   0.00000  Uiso   1.00
C2     C     0.75688   0.75523   0.99644   0.00000  Uiso   1.00
C3     C     0.71122   0.69501   0.01692   0.00000  Uiso   1.00
C4     C     0.77885   0.63862   0.01455   0.00000  Uiso   1.00
C5     C     0.85398   0.53290   0.02020   0.00000  Uiso   1.00
C6     C     0.76489   0.87256   0.02674   0.00000  Uiso   1.00
C7     C     0.72596   0.91099   0.07269   0.00000  Uiso   1.00
C8     C     0.80033   0.95337   0.09582   0.00000  Uiso   1.00
C9     C     0.88789   0.02985   0.14849   0.00000  Uiso   1.00
C10    C     0.70954   0.84581   0.93392   0.00000  Uiso   1.00
C11    C     0.62408   0.86177   0.90183   0.00000  Uiso   1.00
C12    C     0.65185   0.88165   0.84682   0.00000  Uiso   1.00
C13    C     0.65348   0.91659   0.75537   0.00000  Uiso   1.00
C14    C     0.89909   0.82987   0.95435   0.00000  Uiso   1.00
C15    C     0.86622   0.75899   0.97437   0.00000  Uiso   1.00
C16    C     0.93394   0.70267   0.97197   0.00000  Uiso   1.00
C17    C     0.88838   0.64238   0.99244   0.00000  Uiso   1.00
C18    C     0.87423   0.87632   0.00468   0.00000  Uiso   1.00
C19    C     0.94868   0.91866   0.02774   0.00000  Uiso   1.00
C20    C     0.90987   0.95714   0.07372   0.00000  Uiso   1.00
C21    C     0.81888   0.84957   0.91185   0.00000  Uiso   1.00
C22    C     0.84680   0.86943   0.85688   0.00000  Uiso   1.00
C23    C     0.76139   0.88541   0.82472   0.00000  Uiso   1.00
H24    H     0.61266   0.82002   0.01216   0.00000  Uiso   1.00
H25    H     0.62660   0.69212   0.03399   0.00000  Uiso   1.00
H26    H     0.64134   0.90808   0.08975   0.00000  Uiso   1.00
H27    H     0.53948   0.85885   0.91892   0.00000  Uiso   1.00
H28    H     0.69028   0.55199   0.04849   0.00000  Uiso   1.00
H29    H     0.72135   0.00735   0.16605   0.00000  Uiso   1.00
H30    H     0.50655   0.90356   0.80582   0.00000  Uiso   1.00
H31    H     0.98422   0.83280   0.93717   0.00000  Uiso   1.00
H32    H     0.01855   0.70560   0.95489   0.00000  Uiso   1.00
H33    H     0.03328   0.92155   0.01065   0.00000  Uiso   1.00
H34    H     0.93142   0.87233   0.83982   0.00000  Uiso   1.00
H35    H     0.00840   0.56293   0.98429   0.00000  Uiso   1.00
H36    H     0.03947   0.01830   0.10185   0.00000  Uiso   1.00
H37    H     0.82467   0.91450   0.74162   0.00000  Uiso   1.00
O38    O     0.86523   0.47356   0.02941   0.00000  Uiso   1.00
O39    O     0.90598   0.07099   0.18364   0.00000  Uiso   1.00
O40    O     0.62417   0.93481   0.71103   0.00000  Uiso   1.00
N41    N     0.76043   0.57202   0.03094   0.00000  Uiso   1.00
N42    N     0.78948   0.99775   0.14086   0.00000  Uiso   1.00
N43    N     0.58866   0.90073   0.80407   0.00000  Uiso   1.00
N44    N     0.93161   0.57790   0.99639   0.00000  Uiso   1.00
N45    N     0.96066   0.00363   0.10631   0.00000  Uiso   1.00
N46    N     0.75984   0.90662   0.76953   0.00000  Uiso   1.00
C47    C     0.30221   0.82295   0.50502   0.00000  Uiso   1.00
C48    C     0.24312   0.75523   0.50356   0.00000  Uiso   1.00
C49    C     0.28878   0.69501   0.48308   0.00000  Uiso   1.00
C50    C     0.22115   0.63862   0.48545   0.00000  Uiso   1.00
C51    C     0.14602   0.53290   0.47980   0.00000  Uiso   1.00
C52    C     0.23511   0.87256   0.47326   0.00000  Uiso   1.00
C53    C     0.27404   0.91099   0.42731   0.00000  Uiso   1.00
C54    C     0.19967   0.95337   0.40418   0.00000  Uiso   1.00
C55    C     0.11211   0.02985   0.35151   0.00000  Uiso   1.00
C56    C     0.29046   0.84581   0.56608   0.00000  Uiso   1.00
C57    C     0.37592   0.86177   0.59817   0.00000  Uiso   1.00
C58    C     0.34815   0.88165   0.65318   0.00000  Uiso   1.00
C59    C     0.34652   0.91659   0.74463   0.00000  Uiso   1.00
C60    C     0.10091   0.82987   0.54565   0.00000  Uiso   1.00
C61    C     0.13378   0.75899   0.52563   0.00000  Uiso   1.00
C62    C     0.06606   0.70267   0.52803   0.00000  Uiso   1.00
C63    C     0.11162   0.64238   0.50756   0.00000  Uiso   1.00
C64    C     0.12577   0.87632   0.49532   0.00000  Uiso   1.00
C65    C     0.05132   0.91866   0.47226   0.00000  Uiso   1.00
C66    C     0.09013   0.95714   0.42628   0.00000  Uiso   1.00
C67    C     0.18112   0.84957   0.58815   0.00000  Uiso   1.00
C68    C     0.15320   0.86943   0.64312   0.00000  Uiso   1.00
C69    C     0.23861   0.88541   0.67528   0.00000  Uiso   1.00
H70    H     0.38734   0.82002   0.48784   0.00000  Uiso   1.00
H71    H     0.37340   0.69212   0.46601   0.00000  Uiso   1.00
H72    H     0.35866   0.90808   0.41025   0.00000  Uiso   1.00
H73    H     0.46052   0.85885   0.58108   0.00000  Uiso   1.00
H74    H     0.30972   0.55199   0.45151   0.00000  Uiso   1.00
H75    H     0.27865   0.00735   0.33395   0.00000  Uiso   1.00
H76    H     0.49345   0.90356   0.69418   0.00000  Uiso   1.00
H77    H     0.01578   0.83280   0.56283   0.00000  Uiso   1.00
H78    H     0.98145   0.70560   0.54511   0.00000  Uiso   1.00
H79    H     0.96672   0.92155   0.48935   0.00000  Uiso   1.00
H80    H     0.06858   0.87233   0.66018   0.00000  Uiso   1.00
H81    H     0.99160   0.56293   0.51571   0.00000  Uiso   1.00
H82    H     0.96053   0.01830   0.39815   0.00000  Uiso   1.00
H83    H     0.17533   0.91450   0.75838   0.00000  Uiso   1.00
O84    O     0.13477   0.47356   0.47059   0.00000  Uiso   1.00
O85    O     0.09402   0.07099   0.31636   0.00000  Uiso   1.00
O86    O     0.37583   0.93481   0.78897   0.00000  Uiso   1.00
N87    N     0.23957   0.57202   0.46906   0.00000  Uiso   1.00
N88    N     0.21052   0.99775   0.35914   0.00000  Uiso   1.00
N89    N     0.41134   0.90073   0.69593   0.00000  Uiso   1.00
N90    N     0.06839   0.57790   0.50361   0.00000  Uiso   1.00
N91    N     0.03934   0.00363   0.39369   0.00000  Uiso   1.00
N92    N     0.24016   0.90662   0.73047   0.00000  Uiso   1.00
C93    C     0.30221   0.17705   0.00502   0.00000  Uiso   1.00
C94    C     0.24312   0.24477   0.00356   0.00000  Uiso   1.00
C95    C     0.28878   0.30499   0.98308   0.00000  Uiso   1.00
C96    C     0.22115   0.36138   0.98545   0.00000  Uiso   1.00
C97    C     0.14602   0.46710   0.97980   0.00000  Uiso   1.00
C98    C     0.23511   0.12744   0.97326   0.00000  Uiso   1.00
C99    C     0.27404   0.08901   0.92731   0.00000  Uiso   1.00
C100   C     0.19967   0.04663   0.90418   0.00000  Uiso   1.00
C101   C     0.11211   0.97015   0.85151   0.00000  Uiso   1.00
C102   C     0.29046   0.15419   0.06608   0.00000  Uiso   1.00
C103   C     0.37592   0.13823   0.09817   0.00000  Uiso   1.00
C104   C     0.34815   0.11835   0.15318   0.00000  Uiso   1.00
C105   C     0.34652   0.08341   0.24463   0.00000  Uiso   1.00
C106   C     0.10091   0.17013   0.04565   0.00000  Uiso   1.00
C107   C     0.13378   0.24101   0.02563   0.00000  Uiso   1.00
C108   C     0.06606   0.29733   0.02803   0.00000  Uiso   1.00
C109   C     0.11162   0.35762   0.00756   0.00000  Uiso   1.00
C110   C     0.12577   0.12368   0.99532   0.00000  Uiso   1.00
C111   C     0.05132   0.08134   0.97226   0.00000  Uiso   1.00
C112   C     0.09013   0.04286   0.92628   0.00000  Uiso   1.00
C113   C     0.18112   0.15043   0.08815   0.00000  Uiso   1.00
C114   C     0.15320   0.13057   0.14312   0.00000  Uiso   1.00
C115   C     0.23861   0.11459   0.17528   0.00000  Uiso   1.00
H116   H     0.38734   0.17998   0.98784   0.00000  Uiso   1.00
H117   H     0.37340   0.30788   0.96601   0.00000  Uiso   1.00
H118   H     0.35866   0.09192   0.91025   0.00000  Uiso   1.00
H119   H     0.46052   0.14115   0.08108   0.00000  Uiso   1.00
H120   H     0.30972   0.44801   0.95151   0.00000  Uiso   1.00
H121   H     0.27865   0.99265   0.83395   0.00000  Uiso   1.00
H122   H     0.49345   0.09644   0.19418   0.00000  Uiso   1.00
H123   H     0.01578   0.16720   0.06283   0.00000  Uiso   1.00
H124   H     0.98145   0.29440   0.04511   0.00000  Uiso   1.00
H125   H     0.96672   0.07845   0.98935   0.00000  Uiso   1.00
H126   H     0.06858   0.12767   0.16018   0.00000  Uiso   1.00
H127   H     0.99160   0.43707   0.01571   0.00000  Uiso   1.00
H128   H     0.96053   0.98170   0.89815   0.00000  Uiso   1.00
H129   H     0.17533   0.08550   0.25838   0.00000  Uiso   1.00
O130   O     0.13477   0.52644   0.97059   0.00000  Uiso   1.00
O131   O     0.09402   0.92901   0.81636   0.00000  Uiso   1.00
O132   O     0.37583   0.06519   0.28897   0.00000  Uiso   1.00
N133   N     0.23957   0.42798   0.96906   0.00000  Uiso   1.00
N134   N     0.21052   0.00225   0.85914   0.00000  Uiso   1.00
N135   N     0.41134   0.09927   0.19593   0.00000  Uiso   1.00
N136   N     0.06839   0.42210   0.00361   0.00000  Uiso   1.00
N137   N     0.03934   0.99637   0.89369   0.00000  Uiso   1.00
N138   N     0.24016   0.09338   0.23047   0.00000  Uiso   1.00
C139   C     0.69779   0.17705   0.49498   0.00000  Uiso   1.00
C140   C     0.75688   0.24477   0.49644   0.00000  Uiso   1.00
C141   C     0.71122   0.30499   0.51692   0.00000  Uiso   1.00
C142   C     0.77885   0.36138   0.51455   0.00000  Uiso   1.00
C143   C     0.85398   0.46710   0.52020   0.00000  Uiso   1.00
C144   C     0.76489   0.12744   0.52674   0.00000  Uiso   1.00
C145   C     0.72596   0.08901   0.57269   0.00000  Uiso   1.00
C146   C     0.80033   0.04663   0.59582   0.00000  Uiso   1.00
C147   C     0.88789   0.97015   0.64849   0.00000  Uiso   1.00
C148   C     0.70954   0.15419   0.43392   0.00000  Uiso   1.00
C149   C     0.62408   0.13823   0.40183   0.00000  Uiso   1.00
C150   C     0.65185   0.11835   0.34682   0.00000  Uiso   1.00
C151   C     0.65348   0.08341   0.25537   0.00000  Uiso   1.00
C152   C     0.89909   0.17013   0.45435   0.00000  Uiso   1.00
C153   C     0.86622   0.24101   0.47437   0.00000  Uiso   1.00
C154   C     0.93394   0.29733   0.47197   0.00000  Uiso   1.00
C155   C     0.88838   0.35762   0.49244   0.00000  Uiso   1.00
C156   C     0.87423   0.12368   0.50468   0.00000  Uiso   1.00
C157   C     0.94868   0.08134   0.52774   0.00000  Uiso   1.00
C158   C     0.90987   0.04286   0.57372   0.00000  Uiso   1.00
C159   C     0.81888   0.15043   0.41185   0.00000  Uiso   1.00
C160   C     0.84680   0.13057   0.35688   0.00000  Uiso   1.00
C161   C     0.76139   0.11459   0.32472   0.00000  Uiso   1.00
H162   H     0.61266   0.17998   0.51216   0.00000  Uiso   1.00
H163   H     0.62660   0.30788   0.53399   0.00000  Uiso   1.00
H164   H     0.64134   0.09192   0.58975   0.00000  Uiso   1.00
H165   H     0.53948   0.14115   0.41892   0.00000  Uiso   1.00
H166   H     0.69028   0.44801   0.54849   0.00000  Uiso   1.00
H167   H     0.72135   0.99265   0.66605   0.00000  Uiso   1.00
H168   H     0.50655   0.09644   0.30582   0.00000  Uiso   1.00
H169   H     0.98422   0.16720   0.43717   0.00000  Uiso   1.00
H170   H     0.01855   0.29440   0.45489   0.00000  Uiso   1.00
H171   H     0.03328   0.07845   0.51065   0.00000  Uiso   1.00
H172   H     0.93142   0.12767   0.33982   0.00000  Uiso   1.00
H173   H     0.00840   0.43707   0.48429   0.00000  Uiso   1.00
H174   H     0.03947   0.98170   0.60185   0.00000  Uiso   1.00
H175   H     0.82467   0.08550   0.24162   0.00000  Uiso   1.00
O176   O     0.86523   0.52644   0.52941   0.00000  Uiso   1.00
O177   O     0.90598   0.92901   0.68364   0.00000  Uiso   1.00
O178   O     0.62417   0.06519   0.21103   0.00000  Uiso   1.00
N179   N     0.76043   0.42798   0.53094   0.00000  Uiso   1.00
N180   N     0.78948   0.00225   0.64086   0.00000  Uiso   1.00
N181   N     0.58866   0.09927   0.30407   0.00000  Uiso   1.00
N182   N     0.93161   0.42210   0.49639   0.00000  Uiso   1.00
N183   N     0.96066   0.99637   0.60631   0.00000  Uiso   1.00
N184   N     0.75984   0.09338   0.26953   0.00000  Uiso   1.00
