data_job_03655
_audit_creation_date              2018-12-19
_audit_creation_method            'Materials Studio'
_symmetry_space_group_name_H-M    'P1'
_symmetry_Int_Tables_number       1
_symmetry_cell_setting            triclinic
loop_
_symmetry_equiv_pos_as_xyz
  x,y,z
_cell_length_a                    6.9920
_cell_length_b                    12.5001
_cell_length_c                    17.5817
_cell_angle_alpha                 69.6943
_cell_angle_beta                  90.7847
_cell_angle_gamma                 83.1013
loop_
_atom_site_label
_atom_site_type_symbol
_atom_site_fract_x
_atom_site_fract_y
_atom_site_fract_z
_atom_site_U_iso_or_equiv
_atom_site_adp_type
_atom_site_occupancy
C1     C     0.51584   0.46730   0.79215   0.00000  Uiso   1.00
C2     C     0.41201   0.58178   0.73452   0.00000  Uiso   1.00
C3     C     0.49044   0.68428   0.70523   0.00000  Uiso   1.00
C4     C     0.37195   0.77949   0.65313   0.00000  Uiso   1.00
C5     C     0.23961   0.95835   0.56702   0.00000  Uiso   1.00
C6     C     0.39174   0.43008   0.86504   0.00000  Uiso   1.00
C7     C     0.45313   0.40500   0.94549   0.00000  Uiso   1.00
C8     C     0.31756   0.37249   0.00326   0.00000  Uiso   1.00
C9     C     0.15378   0.31574   0.11979   0.00000  Uiso   1.00
C10    C     0.50400   0.38103   0.74920   0.00000  Uiso   1.00
C11    C     0.65977   0.31469   0.73225   0.00000  Uiso   1.00
C12    C     0.61872   0.24087   0.69251   0.00000  Uiso   1.00
C13    C     0.62924   0.10797   0.62917   0.00000  Uiso   1.00
C14    C     0.16596   0.45414   0.75173   0.00000  Uiso   1.00
C15    C     0.22197   0.57463   0.71257   0.00000  Uiso   1.00
C16    C     0.10333   0.66971   0.66050   0.00000  Uiso   1.00
C17    C     0.18156   0.77233   0.63113   0.00000  Uiso   1.00
C18    C     0.20170   0.42292   0.84309   0.00000  Uiso   1.00
C19    C     0.06602   0.39043   0.90076   0.00000  Uiso   1.00
C20    C     0.12718   0.36532   0.98127   0.00000  Uiso   1.00
C21    C     0.31395   0.37388   0.72724   0.00000  Uiso   1.00
C22    C     0.27265   0.30013   0.68752   0.00000  Uiso   1.00
C23    C     0.42833   0.23370   0.67052   0.00000  Uiso   1.00
H24    H     0.66380   0.47287   0.80925   0.00000  Uiso   1.00
H25    H     0.63751   0.68978   0.72224   0.00000  Uiso   1.00
H26    H     0.60021   0.41053   0.96246   0.00000  Uiso   1.00
H27    H     0.80681   0.32025   0.74925   0.00000  Uiso   1.00
H28    H     0.52454   0.92712   0.61611   0.00000  Uiso   1.00
H29    H     0.44590   0.33828   0.12263   0.00000  Uiso   1.00
H30    H     0.88157   0.14789   0.67305   0.00000  Uiso   1.00
H31    H     0.01799   0.44857   0.73463   0.00000  Uiso   1.00
H32    H     0.95626   0.66415   0.64352   0.00000  Uiso   1.00
H33    H     0.91896   0.38490   0.88374   0.00000  Uiso   1.00
H34    H     0.12557   0.29462   0.67054   0.00000  Uiso   1.00
H35    H     0.97161   0.90632   0.55222   0.00000  Uiso   1.00
H36    H     0.89297   0.31747   0.05874   0.00000  Uiso   1.00
H37    H     0.32865   0.12709   0.60916   0.00000  Uiso   1.00
O38    O     0.21910   0.05899   0.52559   0.00000  Uiso   1.00
O39    O     0.11594   0.28642   0.19013   0.00000  Uiso   1.00
O40    O     0.68754   0.03665   0.60029   0.00000  Uiso   1.00
N41    N     0.40289   0.89263   0.61356   0.00000  Uiso   1.00
N42    N     0.32936   0.34212   0.08713   0.00000  Uiso   1.00
N43    N     0.73668   0.16410   0.66683   0.00000  Uiso   1.00
N44    N     0.10536   0.88144   0.57918   0.00000  Uiso   1.00
N45    N     0.03183   0.33092   0.05275   0.00000  Uiso   1.00
N46    N     0.43915   0.15291   0.63245   0.00000  Uiso   1.00
C47    C     0.48416   0.53270   0.20785   0.00000  Uiso   1.00
C48    C     0.58799   0.41822   0.26548   0.00000  Uiso   1.00
C49    C     0.50956   0.31572   0.29477   0.00000  Uiso   1.00
C50    C     0.62805   0.22051   0.34687   0.00000  Uiso   1.00
C51    C     0.76039   0.04165   0.43298   0.00000  Uiso   1.00
C52    C     0.60826   0.56992   0.13496   0.00000  Uiso   1.00
C53    C     0.54687   0.59500   0.05451   0.00000  Uiso   1.00
C54    C     0.68244   0.62751   0.99674   0.00000  Uiso   1.00
C55    C     0.84622   0.68426   0.88021   0.00000  Uiso   1.00
C56    C     0.49600   0.61897   0.25080   0.00000  Uiso   1.00
C57    C     0.34023   0.68531   0.26775   0.00000  Uiso   1.00
C58    C     0.38128   0.75913   0.30749   0.00000  Uiso   1.00
C59    C     0.37076   0.89203   0.37083   0.00000  Uiso   1.00
C60    C     0.83404   0.54586   0.24827   0.00000  Uiso   1.00
C61    C     0.77803   0.42537   0.28743   0.00000  Uiso   1.00
C62    C     0.89667   0.33029   0.33950   0.00000  Uiso   1.00
C63    C     0.81844   0.22767   0.36887   0.00000  Uiso   1.00
C64    C     0.79830   0.57708   0.15691   0.00000  Uiso   1.00
C65    C     0.93398   0.60957   0.09924   0.00000  Uiso   1.00
C66    C     0.87282   0.63468   0.01873   0.00000  Uiso   1.00
C67    C     0.68605   0.62612   0.27276   0.00000  Uiso   1.00
C68    C     0.72735   0.69987   0.31248   0.00000  Uiso   1.00
C69    C     0.57167   0.76630   0.32948   0.00000  Uiso   1.00
H70    H     0.33620   0.52713   0.19075   0.00000  Uiso   1.00
H71    H     0.36249   0.31022   0.27776   0.00000  Uiso   1.00
H72    H     0.39979   0.58947   0.03754   0.00000  Uiso   1.00
H73    H     0.19319   0.67975   0.25075   0.00000  Uiso   1.00
H74    H     0.47546   0.07288   0.38389   0.00000  Uiso   1.00
H75    H     0.55410   0.66172   0.87737   0.00000  Uiso   1.00
H76    H     0.11843   0.85211   0.32695   0.00000  Uiso   1.00
H77    H     0.98201   0.55143   0.26537   0.00000  Uiso   1.00
H78    H     0.04374   0.33585   0.35648   0.00000  Uiso   1.00
H79    H     0.08104   0.61510   0.11626   0.00000  Uiso   1.00
H80    H     0.87443   0.70538   0.32946   0.00000  Uiso   1.00
H81    H     0.02839   0.09368   0.44778   0.00000  Uiso   1.00
H82    H     0.10703   0.68253   0.94126   0.00000  Uiso   1.00
H83    H     0.67135   0.87291   0.39084   0.00000  Uiso   1.00
O84    O     0.78090   0.94101   0.47441   0.00000  Uiso   1.00
O85    O     0.88406   0.71358   0.80987   0.00000  Uiso   1.00
O86    O     0.31246   0.96335   0.39971   0.00000  Uiso   1.00
N87    N     0.59711   0.10737   0.38644   0.00000  Uiso   1.00
N88    N     0.67064   0.65788   0.91287   0.00000  Uiso   1.00
N89    N     0.26332   0.83590   0.33317   0.00000  Uiso   1.00
N90    N     0.89464   0.11856   0.42082   0.00000  Uiso   1.00
N91    N     0.96817   0.66908   0.94725   0.00000  Uiso   1.00
N92    N     0.56085   0.84709   0.36755   0.00000  Uiso   1.00
