data_job_00298
_audit_creation_date              2018-12-19
_audit_creation_method            'Materials Studio'
_symmetry_space_group_name_H-M    'P1'
_symmetry_Int_Tables_number       1
_symmetry_cell_setting            triclinic
loop_
_symmetry_equiv_pos_as_xyz
  x,y,z
_cell_length_a                    12.4787
_cell_length_b                    10.6215
_cell_length_c                    10.2443
_cell_angle_alpha                 116.9080
_cell_angle_beta                  88.1890
_cell_angle_gamma                 89.4006
loop_
_atom_site_label
_atom_site_type_symbol
_atom_site_fract_x
_atom_site_fract_y
_atom_site_fract_z
_atom_site_U_iso_or_equiv
_atom_site_adp_type
_atom_site_occupancy
C1     C     0.22776   0.59757   0.68340   0.00000  Uiso   1.00
C2     C     0.33362   0.58463   0.74733   0.00000  Uiso   1.00
C3     C     0.40017   0.46492   0.69446   0.00000  Uiso   1.00
C4     C     0.49350   0.47442   0.76829   0.00000  Uiso   1.00
C5     C     0.65393   0.43533   0.84901   0.00000  Uiso   1.00
C6     C     0.14342   0.64328   0.80844   0.00000  Uiso   1.00
C7     C     0.05004   0.57288   0.80693   0.00000  Uiso   1.00
C8     C     0.98325   0.63176   0.93220   0.00000  Uiso   1.00
C9     C     0.84836   0.68378   0.10775   0.00000  Uiso   1.00
C10    C     0.23871   0.72225   0.64872   0.00000  Uiso   1.00
C11    C     0.22543   0.71826   0.51291   0.00000  Uiso   1.00
C12    C     0.23884   0.84365   0.50372   0.00000  Uiso   1.00
C13    C     0.25191   0.01827   0.43127   0.00000  Uiso   1.00
C14    C     0.27517   0.82734   0.90854   0.00000  Uiso   1.00
C15    C     0.35937   0.70944   0.86963   0.00000  Uiso   1.00
C16    C     0.45263   0.71913   0.94356   0.00000  Uiso   1.00
C17    C     0.51930   0.59945   0.89080   0.00000  Uiso   1.00
C18    C     0.16917   0.76808   0.93073   0.00000  Uiso   1.00
C19    C     0.10250   0.82709   0.05603   0.00000  Uiso   1.00
C20    C     0.00905   0.75679   0.05472   0.00000  Uiso   1.00
C21    C     0.26447   0.84705   0.77100   0.00000  Uiso   1.00
C22    C     0.27789   0.97247   0.76202   0.00000  Uiso   1.00
C23    C     0.26464   0.96868   0.62623   0.00000  Uiso   1.00
H24    H     0.20770   0.50041   0.58819   0.00000  Uiso   1.00
H25    H     0.38020   0.36835   0.59982   0.00000  Uiso   1.00
H26    H     0.03013   0.47631   0.71228   0.00000  Uiso   1.00
H27    H     0.20550   0.62166   0.41831   0.00000  Uiso   1.00
H28    H     0.58279   0.27696   0.66668   0.00000  Uiso   1.00
H29    H     0.84463   0.50462   0.90377   0.00000  Uiso   1.00
H30    H     0.21442   0.81114   0.28388   0.00000  Uiso   1.00
H31    H     0.29522   0.92451   0.00376   0.00000  Uiso   1.00
H32    H     0.47253   0.81572   0.03819   0.00000  Uiso   1.00
H33    H     0.12245   0.92367   0.15064   0.00000  Uiso   1.00
H34    H     0.29782   0.06903   0.85667   0.00000  Uiso   1.00
H35    H     0.65773   0.64006   0.02248   0.00000  Uiso   1.00
H36    H     0.91955   0.86772   0.25957   0.00000  Uiso   1.00
H37    H     0.28935   0.17424   0.63968   0.00000  Uiso   1.00
O38    O     0.73531   0.37928   0.85976   0.00000  Uiso   1.00
O39    O     0.76685   0.67797   0.17080   0.00000  Uiso   1.00
O40    O     0.25201   0.08011   0.35752   0.00000  Uiso   1.00
N41    N     0.57611   0.37736   0.74567   0.00000  Uiso   1.00
N42    N     0.88597   0.59019   0.96735   0.00000  Uiso   1.00
N43    N     0.23167   0.87676   0.38781   0.00000  Uiso   1.00
N44    N     0.61643   0.57274   0.93713   0.00000  Uiso   1.00
N45    N     0.92629   0.78557   0.15880   0.00000  Uiso   1.00
N46    N     0.27199   0.07215   0.57926   0.00000  Uiso   1.00
C47    C     0.77224   0.40243   0.31660   0.00000  Uiso   1.00
C48    C     0.66638   0.41537   0.25267   0.00000  Uiso   1.00
C49    C     0.59983   0.53508   0.30554   0.00000  Uiso   1.00
C50    C     0.50650   0.52558   0.23171   0.00000  Uiso   1.00
C51    C     0.34607   0.56467   0.15099   0.00000  Uiso   1.00
C52    C     0.85658   0.35672   0.19156   0.00000  Uiso   1.00
C53    C     0.94996   0.42712   0.19307   0.00000  Uiso   1.00
C54    C     0.01675   0.36824   0.06780   0.00000  Uiso   1.00
C55    C     0.15164   0.31622   0.89225   0.00000  Uiso   1.00
C56    C     0.76129   0.27775   0.35128   0.00000  Uiso   1.00
C57    C     0.77457   0.28174   0.48709   0.00000  Uiso   1.00
C58    C     0.76116   0.15635   0.49628   0.00000  Uiso   1.00
C59    C     0.74809   0.98173   0.56873   0.00000  Uiso   1.00
C60    C     0.72483   0.17266   0.09146   0.00000  Uiso   1.00
C61    C     0.64063   0.29056   0.13037   0.00000  Uiso   1.00
C62    C     0.54737   0.28087   0.05644   0.00000  Uiso   1.00
C63    C     0.48070   0.40055   0.10920   0.00000  Uiso   1.00
C64    C     0.83083   0.23192   0.06927   0.00000  Uiso   1.00
C65    C     0.89750   0.17291   0.94397   0.00000  Uiso   1.00
C66    C     0.99095   0.24321   0.94528   0.00000  Uiso   1.00
C67    C     0.73553   0.15295   0.22900   0.00000  Uiso   1.00
C68    C     0.72211   0.02753   0.23798   0.00000  Uiso   1.00
C69    C     0.73536   0.03132   0.37377   0.00000  Uiso   1.00
H70    H     0.79230   0.49959   0.41181   0.00000  Uiso   1.00
H71    H     0.61980   0.63165   0.40018   0.00000  Uiso   1.00
H72    H     0.96987   0.52369   0.28772   0.00000  Uiso   1.00
H73    H     0.79450   0.37834   0.58169   0.00000  Uiso   1.00
H74    H     0.41721   0.72304   0.33332   0.00000  Uiso   1.00
H75    H     0.15537   0.49538   0.09623   0.00000  Uiso   1.00
H76    H     0.78558   0.18886   0.71612   0.00000  Uiso   1.00
H77    H     0.70478   0.07549   0.99624   0.00000  Uiso   1.00
H78    H     0.52747   0.18428   0.96181   0.00000  Uiso   1.00
H79    H     0.87755   0.07633   0.84936   0.00000  Uiso   1.00
H80    H     0.70218   0.93097   0.14333   0.00000  Uiso   1.00
H81    H     0.34227   0.35994   0.97752   0.00000  Uiso   1.00
H82    H     0.08045   0.13228   0.74043   0.00000  Uiso   1.00
H83    H     0.71065   0.82576   0.36032   0.00000  Uiso   1.00
O84    O     0.26469   0.62072   0.14024   0.00000  Uiso   1.00
O85    O     0.23315   0.32203   0.82920   0.00000  Uiso   1.00
O86    O     0.74799   0.91989   0.64248   0.00000  Uiso   1.00
N87    N     0.42389   0.62264   0.25433   0.00000  Uiso   1.00
N88    N     0.11403   0.40981   0.03265   0.00000  Uiso   1.00
N89    N     0.76833   0.12324   0.61219   0.00000  Uiso   1.00
N90    N     0.38357   0.42726   0.06287   0.00000  Uiso   1.00
N91    N     0.07371   0.21443   0.84120   0.00000  Uiso   1.00
N92    N     0.72801   0.92785   0.42074   0.00000  Uiso   1.00
