data_job_00382
_audit_creation_date              2018-12-19
_audit_creation_method            'Materials Studio'
_symmetry_space_group_name_H-M    'P1'
_symmetry_Int_Tables_number       1
_symmetry_cell_setting            triclinic
loop_
_symmetry_equiv_pos_as_xyz
  x,y,z
_cell_length_a                    17.1931
_cell_length_b                    13.9185
_cell_length_c                    10.1925
_cell_angle_alpha                 90.0000
_cell_angle_beta                  87.2436
_cell_angle_gamma                 90.0000
loop_
_atom_site_label
_atom_site_type_symbol
_atom_site_fract_x
_atom_site_fract_y
_atom_site_fract_z
_atom_site_U_iso_or_equiv
_atom_site_adp_type
_atom_site_occupancy
C1     C     0.72353   0.82654   0.67163   0.00000  Uiso   1.00
C2     C     0.79508   0.78615   0.73520   0.00000  Uiso   1.00
C3     C     0.81849   0.69073   0.73267   0.00000  Uiso   1.00
C4     C     0.88560   0.66825   0.79670   0.00000  Uiso   1.00
C5     C     0.99026   0.59482   0.88570   0.00000  Uiso   1.00
C6     C     0.67540   0.87629   0.78133   0.00000  Uiso   1.00
C7     C     0.59819   0.85665   0.81755   0.00000  Uiso   1.00
C8     C     0.56456   0.91006   0.92041   0.00000  Uiso   1.00
C9     C     0.48340   0.97660   0.08094   0.00000  Uiso   1.00
C10    C     0.75326   0.90610   0.57940   0.00000  Uiso   1.00
C11    C     0.74150   0.91156   0.44585   0.00000  Uiso   1.00
C12    C     0.77340   0.99009   0.37870   0.00000  Uiso   1.00
C13    C     0.81314   0.10293   0.22573   0.00000  Uiso   1.00
C14    C     0.80108   0.95632   0.78987   0.00000  Uiso   1.00
C15    C     0.83719   0.85665   0.79943   0.00000  Uiso   1.00
C16    C     0.90429   0.83431   0.86348   0.00000  Uiso   1.00
C17    C     0.92780   0.73887   0.86104   0.00000  Uiso   1.00
C18    C     0.71752   0.94678   0.84555   0.00000  Uiso   1.00
C19    C     0.68399   0.00023   0.94837   0.00000  Uiso   1.00
C20    C     0.60675   0.98068   0.98474   0.00000  Uiso   1.00
C21    C     0.79538   0.97660   0.64362   0.00000  Uiso   1.00
C22    C     0.82730   0.05514   0.57667   0.00000  Uiso   1.00
C23    C     0.81560   0.06071   0.44304   0.00000  Uiso   1.00
H24    H     0.69074   0.77166   0.62164   0.00000  Uiso   1.00
H25    H     0.78587   0.63619   0.68296   0.00000  Uiso   1.00
H26    H     0.56561   0.80210   0.76783   0.00000  Uiso   1.00
H27    H     0.70890   0.85699   0.39619   0.00000  Uiso   1.00
H28    H     0.90991   0.51708   0.77932   0.00000  Uiso   1.00
H29    H     0.44546   0.86692   0.95823   0.00000  Uiso   1.00
H30    H     0.74762   0.98269   0.17455   0.00000  Uiso   1.00
H31    H     0.83387   0.01121   0.83987   0.00000  Uiso   1.00
H32    H     0.93687   0.88888   0.91317   0.00000  Uiso   1.00
H33    H     0.71660   0.05478   0.99804   0.00000  Uiso   1.00
H34    H     0.85990   0.10968   0.62640   0.00000  Uiso   1.00
H35    H     0.03246   0.72218   0.96617   0.00000  Uiso   1.00
H36    H     0.56801   0.07202   0.14507   0.00000  Uiso   1.00
H37    H     0.87017   0.18778   0.36140   0.00000  Uiso   1.00
O38    O     0.03634   0.53483   0.91707   0.00000  Uiso   1.00
O39    O     0.42700   0.99382   0.15176   0.00000  Uiso   1.00
O40    O     0.82343   0.14569   0.12360   0.00000  Uiso   1.00
N41    N     0.92463   0.58214   0.81321   0.00000  Uiso   1.00
N42    N     0.49040   0.90921   0.98049   0.00000  Uiso   1.00
N43    N     0.77287   0.01745   0.24783   0.00000  Uiso   1.00
N44    N     0.99057   0.69250   0.91376   0.00000  Uiso   1.00
N45    N     0.55634   0.01957   0.08104   0.00000  Uiso   1.00
N46    N     0.83882   0.12781   0.34837   0.00000  Uiso   1.00
C47    C     0.26885   0.16276   0.82596   0.00000  Uiso   1.00
C48    C     0.18975   0.19609   0.78189   0.00000  Uiso   1.00
C49    C     0.15231   0.28065   0.81989   0.00000  Uiso   1.00
C50    C     0.08027   0.29812   0.76870   0.00000  Uiso   1.00
C51    C     0.96253   0.35975   0.71330   0.00000  Uiso   1.00
C52    C     0.31922   0.14673   0.70061   0.00000  Uiso   1.00
C53    C     0.39064   0.18980   0.67030   0.00000  Uiso   1.00
C54    C     0.42759   0.16571   0.55069   0.00000  Uiso   1.00
C55    C     0.51087   0.15067   0.36916   0.00000  Uiso   1.00
C56    C     0.25555   0.06366   0.88675   0.00000  Uiso   1.00
C57    C     0.27345   0.03686   0.01294   0.00000  Uiso   1.00
C58    C     0.25681   0.94281   0.05003   0.00000  Uiso   1.00
C59    C     0.24124   0.79879   0.15752   0.00000  Uiso   1.00
C60    C     0.20749   0.04339   0.66746   0.00000  Uiso   1.00
C61    C     0.15642   0.13125   0.69579   0.00000  Uiso   1.00
C62    C     0.08442   0.14858   0.64453   0.00000  Uiso   1.00
C63    C     0.04688   0.23316   0.68245   0.00000  Uiso   1.00
C64    C     0.28589   0.08190   0.61452   0.00000  Uiso   1.00
C65    C     0.32274   0.05773   0.49493   0.00000  Uiso   1.00
C66    C     0.39420   0.10075   0.46444   0.00000  Uiso   1.00
C67    C     0.22221   0.99882   0.80066   0.00000  Uiso   1.00
C68    C     0.20555   0.90479   0.83757   0.00000  Uiso   1.00
C69    C     0.22342   0.87786   0.96379   0.00000  Uiso   1.00
H70    H     0.29481   0.21324   0.89298   0.00000  Uiso   1.00
H71    H     0.17813   0.33082   0.88651   0.00000  Uiso   1.00
H72    H     0.41642   0.23997   0.73694   0.00000  Uiso   1.00
H73    H     0.29924   0.08706   0.07953   0.00000  Uiso   1.00
H74    H     0.03408   0.43260   0.84133   0.00000  Uiso   1.00
H75    H     0.53654   0.24102   0.52598   0.00000  Uiso   1.00
H76    H     0.28946   0.91857   0.24839   0.00000  Uiso   1.00
H77    H     0.18154   0.99290   0.60043   0.00000  Uiso   1.00
H78    H     0.05864   0.09839   0.57791   0.00000  Uiso   1.00
H79    H     0.29693   0.00755   0.42834   0.00000  Uiso   1.00
H80    H     0.17976   0.85463   0.77092   0.00000  Uiso   1.00
H81    H     0.93710   0.24396   0.59085   0.00000  Uiso   1.00
H82    H     0.43957   0.05237   0.27551   0.00000  Uiso   1.00
H83    H     0.19248   0.72992   0.99791   0.00000  Uiso   1.00
O84    O     0.90680   0.41167   0.70652   0.00000  Uiso   1.00
O85    O     0.56602   0.16030   0.29281   0.00000  Uiso   1.00
O86    O     0.24185   0.73726   0.24059   0.00000  Uiso   1.00
N87    N     0.02812   0.37372   0.78549   0.00000  Uiso   1.00
N88    N     0.49788   0.19461   0.49065   0.00000  Uiso   1.00
N89    N     0.26690   0.89314   0.16603   0.00000  Uiso   1.00
N90    N     0.97593   0.27221   0.65071   0.00000  Uiso   1.00
N91    N     0.44570   0.09310   0.35587   0.00000  Uiso   1.00
N92    N     0.21472   0.79163   0.03125   0.00000  Uiso   1.00
C93    C     0.27647   0.32654   0.32837   0.00000  Uiso   1.00
C94    C     0.20492   0.28615   0.26480   0.00000  Uiso   1.00
C95    C     0.18151   0.19073   0.26733   0.00000  Uiso   1.00
C96    C     0.11440   0.16825   0.20330   0.00000  Uiso   1.00
C97    C     0.00974   0.09482   0.11430   0.00000  Uiso   1.00
C98    C     0.32460   0.37629   0.21867   0.00000  Uiso   1.00
C99    C     0.40181   0.35665   0.18245   0.00000  Uiso   1.00
C100   C     0.43544   0.41006   0.07960   0.00000  Uiso   1.00
C101   C     0.51660   0.47660   0.91906   0.00000  Uiso   1.00
C102   C     0.24674   0.40610   0.42060   0.00000  Uiso   1.00
C103   C     0.25850   0.41156   0.55415   0.00000  Uiso   1.00
C104   C     0.22660   0.49009   0.62130   0.00000  Uiso   1.00
C105   C     0.18686   0.60293   0.77427   0.00000  Uiso   1.00
C106   C     0.19892   0.45632   0.21013   0.00000  Uiso   1.00
C107   C     0.16281   0.35665   0.20057   0.00000  Uiso   1.00
C108   C     0.09571   0.33431   0.13652   0.00000  Uiso   1.00
C109   C     0.07220   0.23887   0.13896   0.00000  Uiso   1.00
C110   C     0.28248   0.44678   0.15445   0.00000  Uiso   1.00
C111   C     0.31601   0.50023   0.05163   0.00000  Uiso   1.00
C112   C     0.39325   0.48068   0.01526   0.00000  Uiso   1.00
C113   C     0.20462   0.47660   0.35638   0.00000  Uiso   1.00
C114   C     0.17270   0.55514   0.42333   0.00000  Uiso   1.00
C115   C     0.18440   0.56071   0.55696   0.00000  Uiso   1.00
H116   H     0.30926   0.27166   0.37836   0.00000  Uiso   1.00
H117   H     0.21413   0.13619   0.31704   0.00000  Uiso   1.00
H118   H     0.43439   0.30210   0.23217   0.00000  Uiso   1.00
H119   H     0.29110   0.35699   0.60381   0.00000  Uiso   1.00
H120   H     0.09009   0.01708   0.22068   0.00000  Uiso   1.00
H121   H     0.55454   0.36692   0.04177   0.00000  Uiso   1.00
H122   H     0.25238   0.48269   0.82545   0.00000  Uiso   1.00
H123   H     0.16613   0.51121   0.16013   0.00000  Uiso   1.00
H124   H     0.06313   0.38888   0.08683   0.00000  Uiso   1.00
H125   H     0.28340   0.55478   0.00196   0.00000  Uiso   1.00
H126   H     0.14010   0.60968   0.37360   0.00000  Uiso   1.00
H127   H     0.96754   0.22218   0.03383   0.00000  Uiso   1.00
H128   H     0.43199   0.57202   0.85493   0.00000  Uiso   1.00
H129   H     0.12983   0.68778   0.63860   0.00000  Uiso   1.00
O130   O     0.96366   0.03483   0.08293   0.00000  Uiso   1.00
O131   O     0.57300   0.49382   0.84824   0.00000  Uiso   1.00
O132   O     0.17657   0.64569   0.87640   0.00000  Uiso   1.00
N133   N     0.07537   0.08214   0.18679   0.00000  Uiso   1.00
N134   N     0.50960   0.40921   0.01951   0.00000  Uiso   1.00
N135   N     0.22713   0.51745   0.75217   0.00000  Uiso   1.00
N136   N     0.00943   0.19250   0.08624   0.00000  Uiso   1.00
N137   N     0.44366   0.51957   0.91896   0.00000  Uiso   1.00
N138   N     0.16118   0.62781   0.65163   0.00000  Uiso   1.00
C139   C     0.73115   0.66276   0.17404   0.00000  Uiso   1.00
C140   C     0.81025   0.69609   0.21811   0.00000  Uiso   1.00
C141   C     0.84769   0.78065   0.18011   0.00000  Uiso   1.00
C142   C     0.91973   0.79812   0.23130   0.00000  Uiso   1.00
C143   C     0.03747   0.85975   0.28670   0.00000  Uiso   1.00
C144   C     0.68078   0.64673   0.29939   0.00000  Uiso   1.00
C145   C     0.60936   0.68980   0.32970   0.00000  Uiso   1.00
C146   C     0.57241   0.66571   0.44931   0.00000  Uiso   1.00
C147   C     0.48913   0.65067   0.63084   0.00000  Uiso   1.00
C148   C     0.74445   0.56366   0.11325   0.00000  Uiso   1.00
C149   C     0.72655   0.53686   0.98706   0.00000  Uiso   1.00
C150   C     0.74319   0.44281   0.94997   0.00000  Uiso   1.00
C151   C     0.75876   0.29879   0.84248   0.00000  Uiso   1.00
C152   C     0.79251   0.54339   0.33254   0.00000  Uiso   1.00
C153   C     0.84358   0.63125   0.30421   0.00000  Uiso   1.00
C154   C     0.91558   0.64858   0.35547   0.00000  Uiso   1.00
C155   C     0.95312   0.73316   0.31755   0.00000  Uiso   1.00
C156   C     0.71411   0.58190   0.38548   0.00000  Uiso   1.00
C157   C     0.67726   0.55773   0.50507   0.00000  Uiso   1.00
C158   C     0.60580   0.60075   0.53556   0.00000  Uiso   1.00
C159   C     0.77779   0.49882   0.19934   0.00000  Uiso   1.00
C160   C     0.79445   0.40479   0.16243   0.00000  Uiso   1.00
C161   C     0.77658   0.37786   0.03621   0.00000  Uiso   1.00
H162   H     0.70519   0.71324   0.10702   0.00000  Uiso   1.00
H163   H     0.82187   0.83082   0.11349   0.00000  Uiso   1.00
H164   H     0.58358   0.73997   0.26306   0.00000  Uiso   1.00
H165   H     0.70076   0.58706   0.92047   0.00000  Uiso   1.00
H166   H     0.96592   0.93260   0.15867   0.00000  Uiso   1.00
H167   H     0.46346   0.74102   0.47402   0.00000  Uiso   1.00
H168   H     0.71054   0.41857   0.75161   0.00000  Uiso   1.00
H169   H     0.81846   0.49290   0.39957   0.00000  Uiso   1.00
H170   H     0.94136   0.59839   0.42209   0.00000  Uiso   1.00
H171   H     0.70307   0.50755   0.57166   0.00000  Uiso   1.00
H172   H     0.82024   0.35463   0.22908   0.00000  Uiso   1.00
H173   H     0.06290   0.74396   0.40915   0.00000  Uiso   1.00
H174   H     0.56043   0.55237   0.72449   0.00000  Uiso   1.00
H175   H     0.80752   0.22992   0.00209   0.00000  Uiso   1.00
O176   O     0.09320   0.91167   0.29348   0.00000  Uiso   1.00
O177   O     0.43398   0.66030   0.70719   0.00000  Uiso   1.00
O178   O     0.75815   0.23726   0.75941   0.00000  Uiso   1.00
N179   N     0.97188   0.87372   0.21451   0.00000  Uiso   1.00
N180   N     0.50212   0.69461   0.50935   0.00000  Uiso   1.00
N181   N     0.73310   0.39314   0.83397   0.00000  Uiso   1.00
N182   N     0.02407   0.77221   0.34929   0.00000  Uiso   1.00
N183   N     0.55430   0.59310   0.64413   0.00000  Uiso   1.00
N184   N     0.78528   0.29163   0.96875   0.00000  Uiso   1.00
