data_job_02659
_audit_creation_date              2018-12-19
_audit_creation_method            'Materials Studio'
_symmetry_space_group_name_H-M    'P1'
_symmetry_Int_Tables_number       1
_symmetry_cell_setting            triclinic
loop_
_symmetry_equiv_pos_as_xyz
  x,y,z
_cell_length_a                    12.4039
_cell_length_b                    25.4633
_cell_length_c                    14.8979
_cell_angle_alpha                 90.0000
_cell_angle_beta                  90.0000
_cell_angle_gamma                 90.0000
loop_
_atom_site_label
_atom_site_type_symbol
_atom_site_fract_x
_atom_site_fract_y
_atom_site_fract_z
_atom_site_U_iso_or_equiv
_atom_site_adp_type
_atom_site_occupancy
C1     C     0.72262   0.57118   0.99882   0.00000  Uiso   1.00
C2     C     0.83289   0.58422   0.03821   0.00000  Uiso   1.00
C3     C     0.89851   0.54984   0.08551   0.00000  Uiso   1.00
C4     C     0.99641   0.56933   0.11603   0.00000  Uiso   1.00
C5     C     0.16288   0.58168   0.17970   0.00000  Uiso   1.00
C6     C     0.64432   0.61100   0.03876   0.00000  Uiso   1.00
C7     C     0.55140   0.59912   0.08651   0.00000  Uiso   1.00
C8     C     0.49056   0.64116   0.11748   0.00000  Uiso   1.00
C9     C     0.36425   0.69508   0.18194   0.00000  Uiso   1.00
C10    C     0.72982   0.58393   0.89900   0.00000  Uiso   1.00
C11    C     0.70875   0.54930   0.82923   0.00000  Uiso   1.00
C12    C     0.71987   0.56855   0.74252   0.00000  Uiso   1.00
C13    C     0.72630   0.58045   0.58999   0.00000  Uiso   1.00
C14    C     0.77979   0.66694   0.96889   0.00000  Uiso   1.00
C15    C     0.86394   0.63624   0.02195   0.00000  Uiso   1.00
C16    C     0.96177   0.65579   0.05240   0.00000  Uiso   1.00
C17    C     0.02752   0.62143   0.09974   0.00000  Uiso   1.00
C18    C     0.67538   0.66301   0.02250   0.00000  Uiso   1.00
C19    C     0.61466   0.70507   0.05340   0.00000  Uiso   1.00
C20    C     0.52167   0.69327   0.10119   0.00000  Uiso   1.00
C21    C     0.76088   0.63595   0.88274   0.00000  Uiso   1.00
C22    C     0.77202   0.65525   0.79612   0.00000  Uiso   1.00
C23    C     0.75098   0.62066   0.72624   0.00000  Uiso   1.00
H24    H     0.69843   0.53068   0.01148   0.00000  Uiso   1.00
H25    H     0.87444   0.50959   0.09809   0.00000  Uiso   1.00
H26    H     0.52738   0.55887   0.09908   0.00000  Uiso   1.00
H27    H     0.68472   0.50905   0.84184   0.00000  Uiso   1.00
H28    H     0.08326   0.50914   0.18696   0.00000  Uiso   1.00
H29    H     0.35145   0.61306   0.18903   0.00000  Uiso   1.00
H30    H     0.68322   0.50801   0.64659   0.00000  Uiso   1.00
H31    H     0.80397   0.70744   0.95623   0.00000  Uiso   1.00
H32    H     0.98578   0.69604   0.03981   0.00000  Uiso   1.00
H33    H     0.63871   0.74532   0.04080   0.00000  Uiso   1.00
H34    H     0.79605   0.69550   0.78356   0.00000  Uiso   1.00
H35    H     0.17362   0.66047   0.13967   0.00000  Uiso   1.00
H36    H     0.44180   0.76439   0.14173   0.00000  Uiso   1.00
H37    H     0.77358   0.65934   0.59929   0.00000  Uiso   1.00
O38    O     0.24611   0.57413   0.21932   0.00000  Uiso   1.00
O39    O     0.28600   0.71045   0.22201   0.00000  Uiso   1.00
O40    O     0.72128   0.57264   0.51034   0.00000  Uiso   1.00
N41    N     0.07958   0.54632   0.16435   0.00000  Uiso   1.00
N42    N     0.39539   0.64347   0.16629   0.00000  Uiso   1.00
N43    N     0.70554   0.54527   0.65915   0.00000  Uiso   1.00
N44    N     0.12821   0.62775   0.13890   0.00000  Uiso   1.00
N45    N     0.44402   0.72490   0.14084   0.00000  Uiso   1.00
N46    N     0.75417   0.62670   0.63370   0.00000  Uiso   1.00
C47    C     0.77738   0.92882   0.49882   0.00000  Uiso   1.00
C48    C     0.66711   0.91578   0.53821   0.00000  Uiso   1.00
C49    C     0.60149   0.95016   0.58551   0.00000  Uiso   1.00
C50    C     0.50359   0.93067   0.61603   0.00000  Uiso   1.00
C51    C     0.33712   0.91832   0.67970   0.00000  Uiso   1.00
C52    C     0.85568   0.88900   0.53876   0.00000  Uiso   1.00
C53    C     0.94860   0.90088   0.58651   0.00000  Uiso   1.00
C54    C     0.00944   0.85884   0.61748   0.00000  Uiso   1.00
C55    C     0.13575   0.80492   0.68194   0.00000  Uiso   1.00
C56    C     0.77018   0.91607   0.39900   0.00000  Uiso   1.00
C57    C     0.79125   0.95070   0.32923   0.00000  Uiso   1.00
C58    C     0.78013   0.93145   0.24252   0.00000  Uiso   1.00
C59    C     0.77370   0.91955   0.08999   0.00000  Uiso   1.00
C60    C     0.72021   0.83306   0.46889   0.00000  Uiso   1.00
C61    C     0.63606   0.86376   0.52195   0.00000  Uiso   1.00
C62    C     0.53823   0.84421   0.55240   0.00000  Uiso   1.00
C63    C     0.47248   0.87857   0.59974   0.00000  Uiso   1.00
C64    C     0.82462   0.83699   0.52250   0.00000  Uiso   1.00
C65    C     0.88534   0.79493   0.55340   0.00000  Uiso   1.00
C66    C     0.97833   0.80673   0.60119   0.00000  Uiso   1.00
C67    C     0.73912   0.86405   0.38274   0.00000  Uiso   1.00
C68    C     0.72798   0.84475   0.29612   0.00000  Uiso   1.00
C69    C     0.74902   0.87934   0.22624   0.00000  Uiso   1.00
H70    H     0.80157   0.96932   0.51148   0.00000  Uiso   1.00
H71    H     0.62556   0.99041   0.59809   0.00000  Uiso   1.00
H72    H     0.97262   0.94113   0.59908   0.00000  Uiso   1.00
H73    H     0.81528   0.99095   0.34184   0.00000  Uiso   1.00
H74    H     0.41674   0.99086   0.68696   0.00000  Uiso   1.00
H75    H     0.14855   0.88694   0.68903   0.00000  Uiso   1.00
H76    H     0.81678   0.99199   0.14659   0.00000  Uiso   1.00
H77    H     0.69603   0.79256   0.45623   0.00000  Uiso   1.00
H78    H     0.51422   0.80396   0.53981   0.00000  Uiso   1.00
H79    H     0.86129   0.75468   0.54080   0.00000  Uiso   1.00
H80    H     0.70395   0.80450   0.28356   0.00000  Uiso   1.00
H81    H     0.32638   0.83953   0.63967   0.00000  Uiso   1.00
H82    H     0.05820   0.73561   0.64173   0.00000  Uiso   1.00
H83    H     0.72642   0.84066   0.09929   0.00000  Uiso   1.00
O84    O     0.25389   0.92587   0.71932   0.00000  Uiso   1.00
O85    O     0.21400   0.78955   0.72201   0.00000  Uiso   1.00
O86    O     0.77872   0.92736   0.01034   0.00000  Uiso   1.00
N87    N     0.42042   0.95368   0.66435   0.00000  Uiso   1.00
N88    N     0.10461   0.85653   0.66629   0.00000  Uiso   1.00
N89    N     0.79446   0.95473   0.15915   0.00000  Uiso   1.00
N90    N     0.37179   0.87225   0.63890   0.00000  Uiso   1.00
N91    N     0.05598   0.77510   0.64084   0.00000  Uiso   1.00
N92    N     0.74583   0.87330   0.13370   0.00000  Uiso   1.00
C93    C     0.27738   0.57118   0.50118   0.00000  Uiso   1.00
C94    C     0.16711   0.58422   0.46179   0.00000  Uiso   1.00
C95    C     0.10149   0.54984   0.41449   0.00000  Uiso   1.00
C96    C     0.00359   0.56933   0.38397   0.00000  Uiso   1.00
C97    C     0.83712   0.58168   0.32030   0.00000  Uiso   1.00
C98    C     0.35568   0.61100   0.46124   0.00000  Uiso   1.00
C99    C     0.44860   0.59912   0.41349   0.00000  Uiso   1.00
C100   C     0.50944   0.64116   0.38252   0.00000  Uiso   1.00
C101   C     0.63575   0.69508   0.31806   0.00000  Uiso   1.00
C102   C     0.27018   0.58393   0.60100   0.00000  Uiso   1.00
C103   C     0.29125   0.54930   0.67077   0.00000  Uiso   1.00
C104   C     0.28013   0.56855   0.75748   0.00000  Uiso   1.00
C105   C     0.27370   0.58045   0.91001   0.00000  Uiso   1.00
C106   C     0.22021   0.66694   0.53111   0.00000  Uiso   1.00
C107   C     0.13606   0.63624   0.47805   0.00000  Uiso   1.00
C108   C     0.03823   0.65579   0.44760   0.00000  Uiso   1.00
C109   C     0.97248   0.62143   0.40026   0.00000  Uiso   1.00
C110   C     0.32462   0.66301   0.47750   0.00000  Uiso   1.00
C111   C     0.38534   0.70507   0.44660   0.00000  Uiso   1.00
C112   C     0.47833   0.69327   0.39881   0.00000  Uiso   1.00
C113   C     0.23912   0.63595   0.61726   0.00000  Uiso   1.00
C114   C     0.22798   0.65525   0.70388   0.00000  Uiso   1.00
C115   C     0.24902   0.62066   0.77376   0.00000  Uiso   1.00
H116   H     0.30157   0.53068   0.48852   0.00000  Uiso   1.00
H117   H     0.12556   0.50959   0.40191   0.00000  Uiso   1.00
H118   H     0.47262   0.55887   0.40092   0.00000  Uiso   1.00
H119   H     0.31528   0.50905   0.65816   0.00000  Uiso   1.00
H120   H     0.91674   0.50914   0.31304   0.00000  Uiso   1.00
H121   H     0.64855   0.61306   0.31097   0.00000  Uiso   1.00
H122   H     0.31678   0.50801   0.85341   0.00000  Uiso   1.00
H123   H     0.19603   0.70744   0.54377   0.00000  Uiso   1.00
H124   H     0.01422   0.69604   0.46019   0.00000  Uiso   1.00
H125   H     0.36129   0.74532   0.45920   0.00000  Uiso   1.00
H126   H     0.20395   0.69550   0.71644   0.00000  Uiso   1.00
H127   H     0.82638   0.66047   0.36033   0.00000  Uiso   1.00
H128   H     0.55820   0.76439   0.35827   0.00000  Uiso   1.00
H129   H     0.22642   0.65934   0.90071   0.00000  Uiso   1.00
O130   O     0.75389   0.57413   0.28068   0.00000  Uiso   1.00
O131   O     0.71400   0.71045   0.27799   0.00000  Uiso   1.00
O132   O     0.27872   0.57264   0.98966   0.00000  Uiso   1.00
N133   N     0.92042   0.54632   0.33565   0.00000  Uiso   1.00
N134   N     0.60461   0.64347   0.33371   0.00000  Uiso   1.00
N135   N     0.29446   0.54527   0.84085   0.00000  Uiso   1.00
N136   N     0.87179   0.62775   0.36110   0.00000  Uiso   1.00
N137   N     0.55598   0.72490   0.35916   0.00000  Uiso   1.00
N138   N     0.24583   0.62670   0.86630   0.00000  Uiso   1.00
C139   C     0.22262   0.92882   0.00118   0.00000  Uiso   1.00
C140   C     0.33289   0.91578   0.96179   0.00000  Uiso   1.00
C141   C     0.39851   0.95016   0.91449   0.00000  Uiso   1.00
C142   C     0.49641   0.93067   0.88397   0.00000  Uiso   1.00
C143   C     0.66288   0.91832   0.82030   0.00000  Uiso   1.00
C144   C     0.14432   0.88900   0.96124   0.00000  Uiso   1.00
C145   C     0.05140   0.90088   0.91349   0.00000  Uiso   1.00
C146   C     0.99056   0.85884   0.88252   0.00000  Uiso   1.00
C147   C     0.86425   0.80492   0.81806   0.00000  Uiso   1.00
C148   C     0.22982   0.91607   0.10100   0.00000  Uiso   1.00
C149   C     0.20875   0.95070   0.17077   0.00000  Uiso   1.00
C150   C     0.21987   0.93145   0.25748   0.00000  Uiso   1.00
C151   C     0.22630   0.91955   0.41001   0.00000  Uiso   1.00
C152   C     0.27979   0.83306   0.03111   0.00000  Uiso   1.00
C153   C     0.36394   0.86376   0.97805   0.00000  Uiso   1.00
C154   C     0.46177   0.84421   0.94760   0.00000  Uiso   1.00
C155   C     0.52752   0.87857   0.90026   0.00000  Uiso   1.00
C156   C     0.17538   0.83699   0.97750   0.00000  Uiso   1.00
C157   C     0.11466   0.79493   0.94660   0.00000  Uiso   1.00
C158   C     0.02167   0.80673   0.89881   0.00000  Uiso   1.00
C159   C     0.26088   0.86405   0.11726   0.00000  Uiso   1.00
C160   C     0.27202   0.84475   0.20388   0.00000  Uiso   1.00
C161   C     0.25098   0.87934   0.27376   0.00000  Uiso   1.00
H162   H     0.19843   0.96932   0.98852   0.00000  Uiso   1.00
H163   H     0.37444   0.99041   0.90191   0.00000  Uiso   1.00
H164   H     0.02738   0.94113   0.90092   0.00000  Uiso   1.00
H165   H     0.18472   0.99095   0.15816   0.00000  Uiso   1.00
H166   H     0.58326   0.99086   0.81304   0.00000  Uiso   1.00
H167   H     0.85145   0.88694   0.81097   0.00000  Uiso   1.00
H168   H     0.18322   0.99199   0.35341   0.00000  Uiso   1.00
H169   H     0.30397   0.79256   0.04377   0.00000  Uiso   1.00
H170   H     0.48578   0.80396   0.96019   0.00000  Uiso   1.00
H171   H     0.13871   0.75468   0.95920   0.00000  Uiso   1.00
H172   H     0.29605   0.80450   0.21644   0.00000  Uiso   1.00
H173   H     0.67362   0.83953   0.86033   0.00000  Uiso   1.00
H174   H     0.94180   0.73561   0.85827   0.00000  Uiso   1.00
H175   H     0.27358   0.84066   0.40071   0.00000  Uiso   1.00
O176   O     0.74611   0.92587   0.78068   0.00000  Uiso   1.00
O177   O     0.78600   0.78955   0.77799   0.00000  Uiso   1.00
O178   O     0.22128   0.92736   0.48966   0.00000  Uiso   1.00
N179   N     0.57958   0.95368   0.83565   0.00000  Uiso   1.00
N180   N     0.89539   0.85653   0.83371   0.00000  Uiso   1.00
N181   N     0.20554   0.95473   0.34085   0.00000  Uiso   1.00
N182   N     0.62821   0.87225   0.86110   0.00000  Uiso   1.00
N183   N     0.94402   0.77510   0.85916   0.00000  Uiso   1.00
N184   N     0.25417   0.87330   0.36630   0.00000  Uiso   1.00
C185   C     0.27738   0.42882   0.00118   0.00000  Uiso   1.00
C186   C     0.16711   0.41578   0.96179   0.00000  Uiso   1.00
C187   C     0.10149   0.45016   0.91449   0.00000  Uiso   1.00
C188   C     0.00359   0.43067   0.88397   0.00000  Uiso   1.00
C189   C     0.83712   0.41832   0.82030   0.00000  Uiso   1.00
C190   C     0.35568   0.38900   0.96124   0.00000  Uiso   1.00
C191   C     0.44860   0.40088   0.91349   0.00000  Uiso   1.00
C192   C     0.50944   0.35884   0.88252   0.00000  Uiso   1.00
C193   C     0.63575   0.30492   0.81806   0.00000  Uiso   1.00
C194   C     0.27018   0.41607   0.10100   0.00000  Uiso   1.00
C195   C     0.29125   0.45070   0.17077   0.00000  Uiso   1.00
C196   C     0.28013   0.43145   0.25748   0.00000  Uiso   1.00
C197   C     0.27370   0.41955   0.41001   0.00000  Uiso   1.00
C198   C     0.22021   0.33306   0.03111   0.00000  Uiso   1.00
C199   C     0.13606   0.36376   0.97805   0.00000  Uiso   1.00
C200   C     0.03823   0.34421   0.94760   0.00000  Uiso   1.00
C201   C     0.97248   0.37857   0.90026   0.00000  Uiso   1.00
C202   C     0.32462   0.33699   0.97750   0.00000  Uiso   1.00
C203   C     0.38534   0.29493   0.94660   0.00000  Uiso   1.00
C204   C     0.47833   0.30673   0.89881   0.00000  Uiso   1.00
C205   C     0.23912   0.36405   0.11726   0.00000  Uiso   1.00
C206   C     0.22798   0.34475   0.20388   0.00000  Uiso   1.00
C207   C     0.24902   0.37934   0.27376   0.00000  Uiso   1.00
H208   H     0.30157   0.46932   0.98852   0.00000  Uiso   1.00
H209   H     0.12556   0.49041   0.90191   0.00000  Uiso   1.00
H210   H     0.47262   0.44113   0.90092   0.00000  Uiso   1.00
H211   H     0.31528   0.49095   0.15816   0.00000  Uiso   1.00
H212   H     0.91674   0.49086   0.81304   0.00000  Uiso   1.00
H213   H     0.64855   0.38694   0.81097   0.00000  Uiso   1.00
H214   H     0.31678   0.49199   0.35341   0.00000  Uiso   1.00
H215   H     0.19603   0.29256   0.04377   0.00000  Uiso   1.00
H216   H     0.01422   0.30396   0.96019   0.00000  Uiso   1.00
H217   H     0.36129   0.25468   0.95920   0.00000  Uiso   1.00
H218   H     0.20395   0.30450   0.21644   0.00000  Uiso   1.00
H219   H     0.82638   0.33953   0.86033   0.00000  Uiso   1.00
H220   H     0.55820   0.23561   0.85827   0.00000  Uiso   1.00
H221   H     0.22642   0.34066   0.40071   0.00000  Uiso   1.00
O222   O     0.75389   0.42587   0.78068   0.00000  Uiso   1.00
O223   O     0.71400   0.28955   0.77799   0.00000  Uiso   1.00
O224   O     0.27872   0.42736   0.48966   0.00000  Uiso   1.00
N225   N     0.92042   0.45368   0.83565   0.00000  Uiso   1.00
N226   N     0.60461   0.35653   0.83371   0.00000  Uiso   1.00
N227   N     0.29446   0.45473   0.34085   0.00000  Uiso   1.00
N228   N     0.87179   0.37225   0.86110   0.00000  Uiso   1.00
N229   N     0.55598   0.27510   0.85916   0.00000  Uiso   1.00
N230   N     0.24583   0.37330   0.36630   0.00000  Uiso   1.00
C231   C     0.22262   0.07118   0.50118   0.00000  Uiso   1.00
C232   C     0.33289   0.08422   0.46179   0.00000  Uiso   1.00
C233   C     0.39851   0.04984   0.41449   0.00000  Uiso   1.00
C234   C     0.49641   0.06933   0.38397   0.00000  Uiso   1.00
C235   C     0.66288   0.08168   0.32030   0.00000  Uiso   1.00
C236   C     0.14432   0.11100   0.46124   0.00000  Uiso   1.00
C237   C     0.05140   0.09912   0.41349   0.00000  Uiso   1.00
C238   C     0.99056   0.14116   0.38252   0.00000  Uiso   1.00
C239   C     0.86425   0.19508   0.31806   0.00000  Uiso   1.00
C240   C     0.22982   0.08393   0.60100   0.00000  Uiso   1.00
C241   C     0.20875   0.04930   0.67077   0.00000  Uiso   1.00
C242   C     0.21987   0.06855   0.75748   0.00000  Uiso   1.00
C243   C     0.22630   0.08045   0.91001   0.00000  Uiso   1.00
C244   C     0.27979   0.16694   0.53111   0.00000  Uiso   1.00
C245   C     0.36394   0.13624   0.47805   0.00000  Uiso   1.00
C246   C     0.46177   0.15579   0.44760   0.00000  Uiso   1.00
C247   C     0.52752   0.12143   0.40026   0.00000  Uiso   1.00
C248   C     0.17538   0.16301   0.47750   0.00000  Uiso   1.00
C249   C     0.11466   0.20507   0.44660   0.00000  Uiso   1.00
C250   C     0.02167   0.19327   0.39881   0.00000  Uiso   1.00
C251   C     0.26088   0.13595   0.61726   0.00000  Uiso   1.00
C252   C     0.27202   0.15525   0.70388   0.00000  Uiso   1.00
C253   C     0.25098   0.12066   0.77376   0.00000  Uiso   1.00
H254   H     0.19843   0.03068   0.48852   0.00000  Uiso   1.00
H255   H     0.37444   0.00959   0.40191   0.00000  Uiso   1.00
H256   H     0.02738   0.05887   0.40092   0.00000  Uiso   1.00
H257   H     0.18472   0.00905   0.65816   0.00000  Uiso   1.00
H258   H     0.58326   0.00914   0.31304   0.00000  Uiso   1.00
H259   H     0.85145   0.11306   0.31097   0.00000  Uiso   1.00
H260   H     0.18322   0.00801   0.85341   0.00000  Uiso   1.00
H261   H     0.30397   0.20744   0.54377   0.00000  Uiso   1.00
H262   H     0.48578   0.19604   0.46019   0.00000  Uiso   1.00
H263   H     0.13871   0.24532   0.45920   0.00000  Uiso   1.00
H264   H     0.29605   0.19550   0.71644   0.00000  Uiso   1.00
H265   H     0.67362   0.16047   0.36033   0.00000  Uiso   1.00
H266   H     0.94180   0.26439   0.35827   0.00000  Uiso   1.00
H267   H     0.27358   0.15934   0.90071   0.00000  Uiso   1.00
O268   O     0.74611   0.07413   0.28068   0.00000  Uiso   1.00
O269   O     0.78600   0.21045   0.27799   0.00000  Uiso   1.00
O270   O     0.22128   0.07264   0.98966   0.00000  Uiso   1.00
N271   N     0.57958   0.04632   0.33565   0.00000  Uiso   1.00
N272   N     0.89539   0.14347   0.33371   0.00000  Uiso   1.00
N273   N     0.20554   0.04527   0.84085   0.00000  Uiso   1.00
N274   N     0.62821   0.12775   0.36110   0.00000  Uiso   1.00
N275   N     0.94402   0.22490   0.35916   0.00000  Uiso   1.00
N276   N     0.25417   0.12670   0.86630   0.00000  Uiso   1.00
C277   C     0.72262   0.42882   0.49882   0.00000  Uiso   1.00
C278   C     0.83289   0.41578   0.53821   0.00000  Uiso   1.00
C279   C     0.89851   0.45016   0.58551   0.00000  Uiso   1.00
C280   C     0.99641   0.43067   0.61603   0.00000  Uiso   1.00
C281   C     0.16288   0.41832   0.67970   0.00000  Uiso   1.00
C282   C     0.64432   0.38900   0.53876   0.00000  Uiso   1.00
C283   C     0.55140   0.40088   0.58651   0.00000  Uiso   1.00
C284   C     0.49056   0.35884   0.61748   0.00000  Uiso   1.00
C285   C     0.36425   0.30492   0.68194   0.00000  Uiso   1.00
C286   C     0.72982   0.41607   0.39900   0.00000  Uiso   1.00
C287   C     0.70875   0.45070   0.32923   0.00000  Uiso   1.00
C288   C     0.71987   0.43145   0.24252   0.00000  Uiso   1.00
C289   C     0.72630   0.41955   0.08999   0.00000  Uiso   1.00
C290   C     0.77979   0.33306   0.46889   0.00000  Uiso   1.00
C291   C     0.86394   0.36376   0.52195   0.00000  Uiso   1.00
C292   C     0.96177   0.34421   0.55240   0.00000  Uiso   1.00
C293   C     0.02752   0.37857   0.59974   0.00000  Uiso   1.00
C294   C     0.67538   0.33699   0.52250   0.00000  Uiso   1.00
C295   C     0.61466   0.29493   0.55340   0.00000  Uiso   1.00
C296   C     0.52167   0.30673   0.60119   0.00000  Uiso   1.00
C297   C     0.76088   0.36405   0.38274   0.00000  Uiso   1.00
C298   C     0.77202   0.34475   0.29612   0.00000  Uiso   1.00
C299   C     0.75098   0.37934   0.22624   0.00000  Uiso   1.00
H300   H     0.69843   0.46932   0.51148   0.00000  Uiso   1.00
H301   H     0.87444   0.49041   0.59809   0.00000  Uiso   1.00
H302   H     0.52738   0.44113   0.59908   0.00000  Uiso   1.00
H303   H     0.68472   0.49095   0.34184   0.00000  Uiso   1.00
H304   H     0.08326   0.49086   0.68696   0.00000  Uiso   1.00
H305   H     0.35145   0.38694   0.68903   0.00000  Uiso   1.00
H306   H     0.68322   0.49199   0.14659   0.00000  Uiso   1.00
H307   H     0.80397   0.29256   0.45623   0.00000  Uiso   1.00
H308   H     0.98578   0.30396   0.53981   0.00000  Uiso   1.00
H309   H     0.63871   0.25468   0.54080   0.00000  Uiso   1.00
H310   H     0.79605   0.30450   0.28356   0.00000  Uiso   1.00
H311   H     0.17362   0.33953   0.63967   0.00000  Uiso   1.00
H312   H     0.44180   0.23561   0.64173   0.00000  Uiso   1.00
H313   H     0.77358   0.34066   0.09929   0.00000  Uiso   1.00
O314   O     0.24611   0.42587   0.71932   0.00000  Uiso   1.00
O315   O     0.28600   0.28955   0.72201   0.00000  Uiso   1.00
O316   O     0.72128   0.42736   0.01034   0.00000  Uiso   1.00
N317   N     0.07958   0.45368   0.66435   0.00000  Uiso   1.00
N318   N     0.39539   0.35653   0.66629   0.00000  Uiso   1.00
N319   N     0.70554   0.45473   0.15915   0.00000  Uiso   1.00
N320   N     0.12821   0.37225   0.63890   0.00000  Uiso   1.00
N321   N     0.44402   0.27510   0.64084   0.00000  Uiso   1.00
N322   N     0.75417   0.37330   0.13370   0.00000  Uiso   1.00
C323   C     0.77738   0.07118   0.99882   0.00000  Uiso   1.00
C324   C     0.66711   0.08422   0.03821   0.00000  Uiso   1.00
C325   C     0.60149   0.04984   0.08551   0.00000  Uiso   1.00
C326   C     0.50359   0.06933   0.11603   0.00000  Uiso   1.00
C327   C     0.33712   0.08168   0.17970   0.00000  Uiso   1.00
C328   C     0.85568   0.11100   0.03876   0.00000  Uiso   1.00
C329   C     0.94860   0.09912   0.08651   0.00000  Uiso   1.00
C330   C     0.00944   0.14116   0.11748   0.00000  Uiso   1.00
C331   C     0.13575   0.19508   0.18194   0.00000  Uiso   1.00
C332   C     0.77018   0.08393   0.89900   0.00000  Uiso   1.00
C333   C     0.79125   0.04930   0.82923   0.00000  Uiso   1.00
C334   C     0.78013   0.06855   0.74252   0.00000  Uiso   1.00
C335   C     0.77370   0.08045   0.58999   0.00000  Uiso   1.00
C336   C     0.72021   0.16694   0.96889   0.00000  Uiso   1.00
C337   C     0.63606   0.13624   0.02195   0.00000  Uiso   1.00
C338   C     0.53823   0.15579   0.05240   0.00000  Uiso   1.00
C339   C     0.47248   0.12143   0.09974   0.00000  Uiso   1.00
C340   C     0.82462   0.16301   0.02250   0.00000  Uiso   1.00
C341   C     0.88534   0.20507   0.05340   0.00000  Uiso   1.00
C342   C     0.97833   0.19327   0.10119   0.00000  Uiso   1.00
C343   C     0.73912   0.13595   0.88274   0.00000  Uiso   1.00
C344   C     0.72798   0.15525   0.79612   0.00000  Uiso   1.00
C345   C     0.74902   0.12066   0.72624   0.00000  Uiso   1.00
H346   H     0.80157   0.03068   0.01148   0.00000  Uiso   1.00
H347   H     0.62556   0.00959   0.09809   0.00000  Uiso   1.00
H348   H     0.97262   0.05887   0.09908   0.00000  Uiso   1.00
H349   H     0.81528   0.00905   0.84184   0.00000  Uiso   1.00
H350   H     0.41674   0.00914   0.18696   0.00000  Uiso   1.00
H351   H     0.14855   0.11306   0.18903   0.00000  Uiso   1.00
H352   H     0.81678   0.00801   0.64659   0.00000  Uiso   1.00
H353   H     0.69603   0.20744   0.95623   0.00000  Uiso   1.00
H354   H     0.51422   0.19604   0.03981   0.00000  Uiso   1.00
H355   H     0.86129   0.24532   0.04080   0.00000  Uiso   1.00
H356   H     0.70395   0.19550   0.78356   0.00000  Uiso   1.00
H357   H     0.32638   0.16047   0.13967   0.00000  Uiso   1.00
H358   H     0.05820   0.26439   0.14173   0.00000  Uiso   1.00
H359   H     0.72642   0.15934   0.59929   0.00000  Uiso   1.00
O360   O     0.25389   0.07413   0.21932   0.00000  Uiso   1.00
O361   O     0.21400   0.21045   0.22201   0.00000  Uiso   1.00
O362   O     0.77872   0.07264   0.51034   0.00000  Uiso   1.00
N363   N     0.42042   0.04632   0.16435   0.00000  Uiso   1.00
N364   N     0.10461   0.14347   0.16629   0.00000  Uiso   1.00
N365   N     0.79446   0.04527   0.65915   0.00000  Uiso   1.00
N366   N     0.37179   0.12775   0.13890   0.00000  Uiso   1.00
N367   N     0.05598   0.22490   0.14084   0.00000  Uiso   1.00
N368   N     0.74583   0.12670   0.63370   0.00000  Uiso   1.00
