data_job_05234
_audit_creation_date              2018-12-19
_audit_creation_method            'Materials Studio'
_symmetry_space_group_name_H-M    'P1'
_symmetry_Int_Tables_number       1
_symmetry_cell_setting            triclinic
loop_
_symmetry_equiv_pos_as_xyz
  x,y,z
_cell_length_a                    31.1818
_cell_length_b                    12.5369
_cell_length_c                    22.9275
_cell_angle_alpha                 90.0000
_cell_angle_beta                  45.6718
_cell_angle_gamma                 90.0000
loop_
_atom_site_label
_atom_site_type_symbol
_atom_site_fract_x
_atom_site_fract_y
_atom_site_fract_z
_atom_site_U_iso_or_equiv
_atom_site_adp_type
_atom_site_occupancy
C1     C     0.10657   0.15973   0.78356   0.00000  Uiso   1.00
C2     C     0.12719   0.04936   0.74449   0.00000  Uiso   1.00
C3     C     0.09707   0.98310   0.73448   0.00000  Uiso   1.00
C4     C     0.12332   0.88519   0.69733   0.00000  Uiso   1.00
C5     C     0.14704   0.71842   0.64069   0.00000  Uiso   1.00
C6     C     0.10341   0.15571   0.85296   0.00000  Uiso   1.00
C7     C     0.05330   0.17887   0.93416   0.00000  Uiso   1.00
C8     C     0.05954   0.17050   0.98831   0.00000  Uiso   1.00
C9     C     0.04636   0.16891   0.10006   0.00000  Uiso   1.00
C10    C     0.15776   0.23573   0.72020   0.00000  Uiso   1.00
C11    C     0.15334   0.32619   0.68977   0.00000  Uiso   1.00
C12    C     0.20534   0.38521   0.63215   0.00000  Uiso   1.00
C13    C     0.27654   0.50787   0.53777   0.00000  Uiso   1.00
C14    C     0.20675   0.10370   0.73536   0.00000  Uiso   1.00
C15    C     0.18160   0.01893   0.71831   0.00000  Uiso   1.00
C16    C     0.20790   0.92111   0.68116   0.00000  Uiso   1.00
C17    C     0.17783   0.85471   0.67110   0.00000  Uiso   1.00
C18    C     0.15782   0.12527   0.82679   0.00000  Uiso   1.00
C19    C     0.16413   0.11688   0.88083   0.00000  Uiso   1.00
C20    C     0.11405   0.14002   0.96209   0.00000  Uiso   1.00
C21    C     0.21217   0.20529   0.69401   0.00000  Uiso   1.00
C22    C     0.26418   0.26419   0.63644   0.00000  Uiso   1.00
C23    C     0.25985   0.35473   0.60593   0.00000  Uiso   1.00
H24    H     0.06421   0.18343   0.80394   0.00000  Uiso   1.00
H25    H     0.05496   0.00667   0.75476   0.00000  Uiso   1.00
H26    H     0.01120   0.20243   0.95440   0.00000  Uiso   1.00
H27    H     0.11123   0.34972   0.71004   0.00000  Uiso   1.00
H28    H     0.06869   0.79727   0.68871   0.00000  Uiso   1.00
H29    H     0.97643   0.21006   0.10965   0.00000  Uiso   1.00
H30    H     0.18736   0.52066   0.59439   0.00000  Uiso   1.00
H31    H     0.24911   0.08001   0.71498   0.00000  Uiso   1.00
H32    H     0.25001   0.89758   0.66091   0.00000  Uiso   1.00
H33    H     0.20625   0.09333   0.86055   0.00000  Uiso   1.00
H34    H     0.30628   0.24062   0.61620   0.00000  Uiso   1.00
H35    H     0.22700   0.70872   0.61254   0.00000  Uiso   1.00
H36    H     0.13474   0.12152   0.03349   0.00000  Uiso   1.00
H37    H     0.34567   0.43211   0.51822   0.00000  Uiso   1.00
O38    O     0.14509   0.63484   0.61669   0.00000  Uiso   1.00
O39    O     0.02405   0.17643   0.16894   0.00000  Uiso   1.00
O40    O     0.30078   0.58392   0.49293   0.00000  Uiso   1.00
N41    N     0.10583   0.80148   0.67819   0.00000  Uiso   1.00
N42    N     0.01957   0.18740   0.07175   0.00000  Uiso   1.00
N43    N     0.21677   0.47780   0.59004   0.00000  Uiso   1.00
N44    N     0.19101   0.75383   0.63720   0.00000  Uiso   1.00
N45    N     0.10475   0.13975   0.03076   0.00000  Uiso   1.00
N46    N     0.30195   0.43015   0.54905   0.00000  Uiso   1.00
C47    C     0.60657   0.65973   0.78356   0.00000  Uiso   1.00
C48    C     0.62719   0.54936   0.74449   0.00000  Uiso   1.00
C49    C     0.59707   0.48310   0.73448   0.00000  Uiso   1.00
C50    C     0.62332   0.38519   0.69733   0.00000  Uiso   1.00
C51    C     0.64704   0.21842   0.64069   0.00000  Uiso   1.00
C52    C     0.60341   0.65571   0.85296   0.00000  Uiso   1.00
C53    C     0.55330   0.67887   0.93416   0.00000  Uiso   1.00
C54    C     0.55954   0.67050   0.98831   0.00000  Uiso   1.00
C55    C     0.54636   0.66891   0.10006   0.00000  Uiso   1.00
C56    C     0.65776   0.73573   0.72020   0.00000  Uiso   1.00
C57    C     0.65334   0.82619   0.68977   0.00000  Uiso   1.00
C58    C     0.70534   0.88521   0.63215   0.00000  Uiso   1.00
C59    C     0.77654   0.00787   0.53777   0.00000  Uiso   1.00
C60    C     0.70675   0.60370   0.73536   0.00000  Uiso   1.00
C61    C     0.68160   0.51893   0.71831   0.00000  Uiso   1.00
C62    C     0.70790   0.42111   0.68116   0.00000  Uiso   1.00
C63    C     0.67783   0.35471   0.67110   0.00000  Uiso   1.00
C64    C     0.65782   0.62527   0.82679   0.00000  Uiso   1.00
C65    C     0.66413   0.61688   0.88083   0.00000  Uiso   1.00
C66    C     0.61405   0.64002   0.96209   0.00000  Uiso   1.00
C67    C     0.71217   0.70529   0.69401   0.00000  Uiso   1.00
C68    C     0.76418   0.76419   0.63644   0.00000  Uiso   1.00
C69    C     0.75985   0.85473   0.60593   0.00000  Uiso   1.00
H70    H     0.56421   0.68343   0.80394   0.00000  Uiso   1.00
H71    H     0.55496   0.50667   0.75476   0.00000  Uiso   1.00
H72    H     0.51120   0.70243   0.95440   0.00000  Uiso   1.00
H73    H     0.61123   0.84972   0.71004   0.00000  Uiso   1.00
H74    H     0.56869   0.29727   0.68871   0.00000  Uiso   1.00
H75    H     0.47643   0.71006   0.10965   0.00000  Uiso   1.00
H76    H     0.68736   0.02066   0.59439   0.00000  Uiso   1.00
H77    H     0.74911   0.58001   0.71498   0.00000  Uiso   1.00
H78    H     0.75001   0.39758   0.66091   0.00000  Uiso   1.00
H79    H     0.70625   0.59333   0.86055   0.00000  Uiso   1.00
H80    H     0.80628   0.74062   0.61620   0.00000  Uiso   1.00
H81    H     0.72700   0.20872   0.61254   0.00000  Uiso   1.00
H82    H     0.63474   0.62152   0.03349   0.00000  Uiso   1.00
H83    H     0.84567   0.93211   0.51822   0.00000  Uiso   1.00
O84    O     0.64509   0.13484   0.61669   0.00000  Uiso   1.00
O85    O     0.52405   0.67643   0.16894   0.00000  Uiso   1.00
O86    O     0.80078   0.08392   0.49293   0.00000  Uiso   1.00
N87    N     0.60583   0.30148   0.67819   0.00000  Uiso   1.00
N88    N     0.51957   0.68740   0.07175   0.00000  Uiso   1.00
N89    N     0.71677   0.97780   0.59004   0.00000  Uiso   1.00
N90    N     0.69101   0.25383   0.63720   0.00000  Uiso   1.00
N91    N     0.60475   0.63975   0.03076   0.00000  Uiso   1.00
N92    N     0.80195   0.93015   0.54905   0.00000  Uiso   1.00
C93    C     0.89343   0.15973   0.71644   0.00000  Uiso   1.00
C94    C     0.87281   0.04936   0.75551   0.00000  Uiso   1.00
C95    C     0.90293   0.98310   0.76552   0.00000  Uiso   1.00
C96    C     0.87668   0.88519   0.80267   0.00000  Uiso   1.00
C97    C     0.85296   0.71842   0.85931   0.00000  Uiso   1.00
C98    C     0.89659   0.15571   0.64704   0.00000  Uiso   1.00
C99    C     0.94670   0.17887   0.56584   0.00000  Uiso   1.00
C100   C     0.94046   0.17050   0.51169   0.00000  Uiso   1.00
C101   C     0.95364   0.16891   0.39994   0.00000  Uiso   1.00
C102   C     0.84224   0.23573   0.77980   0.00000  Uiso   1.00
C103   C     0.84666   0.32619   0.81023   0.00000  Uiso   1.00
C104   C     0.79466   0.38521   0.86785   0.00000  Uiso   1.00
C105   C     0.72346   0.50787   0.96223   0.00000  Uiso   1.00
C106   C     0.79325   0.10370   0.76464   0.00000  Uiso   1.00
C107   C     0.81840   0.01893   0.78169   0.00000  Uiso   1.00
C108   C     0.79210   0.92111   0.81884   0.00000  Uiso   1.00
C109   C     0.82217   0.85471   0.82890   0.00000  Uiso   1.00
C110   C     0.84218   0.12527   0.67321   0.00000  Uiso   1.00
C111   C     0.83587   0.11688   0.61917   0.00000  Uiso   1.00
C112   C     0.88595   0.14002   0.53791   0.00000  Uiso   1.00
C113   C     0.78783   0.20529   0.80599   0.00000  Uiso   1.00
C114   C     0.73582   0.26419   0.86356   0.00000  Uiso   1.00
C115   C     0.74015   0.35473   0.89407   0.00000  Uiso   1.00
H116   H     0.93579   0.18343   0.69606   0.00000  Uiso   1.00
H117   H     0.94504   0.00667   0.74524   0.00000  Uiso   1.00
H118   H     0.98880   0.20243   0.54560   0.00000  Uiso   1.00
H119   H     0.88877   0.34972   0.78996   0.00000  Uiso   1.00
H120   H     0.93131   0.79727   0.81129   0.00000  Uiso   1.00
H121   H     0.02357   0.21006   0.39035   0.00000  Uiso   1.00
H122   H     0.81264   0.52066   0.90561   0.00000  Uiso   1.00
H123   H     0.75089   0.08001   0.78502   0.00000  Uiso   1.00
H124   H     0.74999   0.89758   0.83909   0.00000  Uiso   1.00
H125   H     0.79375   0.09333   0.63945   0.00000  Uiso   1.00
H126   H     0.69372   0.24062   0.88380   0.00000  Uiso   1.00
H127   H     0.77300   0.70872   0.88746   0.00000  Uiso   1.00
H128   H     0.86526   0.12152   0.46651   0.00000  Uiso   1.00
H129   H     0.65433   0.43211   0.98178   0.00000  Uiso   1.00
O130   O     0.85491   0.63484   0.88331   0.00000  Uiso   1.00
O131   O     0.97595   0.17643   0.33106   0.00000  Uiso   1.00
O132   O     0.69922   0.58392   0.00707   0.00000  Uiso   1.00
N133   N     0.89417   0.80148   0.82181   0.00000  Uiso   1.00
N134   N     0.98043   0.18740   0.42825   0.00000  Uiso   1.00
N135   N     0.78323   0.47780   0.90996   0.00000  Uiso   1.00
N136   N     0.80899   0.75383   0.86280   0.00000  Uiso   1.00
N137   N     0.89525   0.13975   0.46924   0.00000  Uiso   1.00
N138   N     0.69805   0.43015   0.95095   0.00000  Uiso   1.00
C139   C     0.39343   0.65973   0.71644   0.00000  Uiso   1.00
C140   C     0.37281   0.54936   0.75551   0.00000  Uiso   1.00
C141   C     0.40293   0.48310   0.76552   0.00000  Uiso   1.00
C142   C     0.37668   0.38519   0.80267   0.00000  Uiso   1.00
C143   C     0.35296   0.21842   0.85931   0.00000  Uiso   1.00
C144   C     0.39659   0.65571   0.64704   0.00000  Uiso   1.00
C145   C     0.44670   0.67887   0.56584   0.00000  Uiso   1.00
C146   C     0.44046   0.67050   0.51169   0.00000  Uiso   1.00
C147   C     0.45364   0.66891   0.39994   0.00000  Uiso   1.00
C148   C     0.34224   0.73573   0.77980   0.00000  Uiso   1.00
C149   C     0.34666   0.82619   0.81023   0.00000  Uiso   1.00
C150   C     0.29466   0.88521   0.86785   0.00000  Uiso   1.00
C151   C     0.22346   0.00787   0.96223   0.00000  Uiso   1.00
C152   C     0.29325   0.60370   0.76464   0.00000  Uiso   1.00
C153   C     0.31840   0.51893   0.78169   0.00000  Uiso   1.00
C154   C     0.29210   0.42111   0.81884   0.00000  Uiso   1.00
C155   C     0.32217   0.35471   0.82890   0.00000  Uiso   1.00
C156   C     0.34218   0.62527   0.67321   0.00000  Uiso   1.00
C157   C     0.33587   0.61688   0.61917   0.00000  Uiso   1.00
C158   C     0.38595   0.64002   0.53791   0.00000  Uiso   1.00
C159   C     0.28783   0.70529   0.80599   0.00000  Uiso   1.00
C160   C     0.23582   0.76419   0.86356   0.00000  Uiso   1.00
C161   C     0.24015   0.85473   0.89407   0.00000  Uiso   1.00
H162   H     0.43579   0.68343   0.69606   0.00000  Uiso   1.00
H163   H     0.44504   0.50667   0.74524   0.00000  Uiso   1.00
H164   H     0.48880   0.70243   0.54560   0.00000  Uiso   1.00
H165   H     0.38877   0.84972   0.78996   0.00000  Uiso   1.00
H166   H     0.43131   0.29727   0.81129   0.00000  Uiso   1.00
H167   H     0.52357   0.71006   0.39035   0.00000  Uiso   1.00
H168   H     0.31264   0.02066   0.90561   0.00000  Uiso   1.00
H169   H     0.25089   0.58001   0.78502   0.00000  Uiso   1.00
H170   H     0.24999   0.39758   0.83909   0.00000  Uiso   1.00
H171   H     0.29375   0.59333   0.63945   0.00000  Uiso   1.00
H172   H     0.19372   0.74062   0.88380   0.00000  Uiso   1.00
H173   H     0.27300   0.20872   0.88746   0.00000  Uiso   1.00
H174   H     0.36526   0.62152   0.46651   0.00000  Uiso   1.00
H175   H     0.15433   0.93211   0.98178   0.00000  Uiso   1.00
O176   O     0.35491   0.13484   0.88331   0.00000  Uiso   1.00
O177   O     0.47595   0.67643   0.33106   0.00000  Uiso   1.00
O178   O     0.19922   0.08392   0.00707   0.00000  Uiso   1.00
N179   N     0.39417   0.30148   0.82181   0.00000  Uiso   1.00
N180   N     0.48043   0.68740   0.42825   0.00000  Uiso   1.00
N181   N     0.28323   0.97780   0.90996   0.00000  Uiso   1.00
N182   N     0.30899   0.25383   0.86280   0.00000  Uiso   1.00
N183   N     0.39525   0.63975   0.46924   0.00000  Uiso   1.00
N184   N     0.19805   0.93015   0.95095   0.00000  Uiso   1.00
C185   C     0.89343   0.84027   0.21644   0.00000  Uiso   1.00
C186   C     0.87281   0.95064   0.25551   0.00000  Uiso   1.00
C187   C     0.90293   0.01690   0.26552   0.00000  Uiso   1.00
C188   C     0.87668   0.11481   0.30267   0.00000  Uiso   1.00
C189   C     0.85296   0.28158   0.35931   0.00000  Uiso   1.00
C190   C     0.89659   0.84429   0.14704   0.00000  Uiso   1.00
C191   C     0.94670   0.82113   0.06584   0.00000  Uiso   1.00
C192   C     0.94046   0.82950   0.01169   0.00000  Uiso   1.00
C193   C     0.95364   0.83109   0.89994   0.00000  Uiso   1.00
C194   C     0.84224   0.76427   0.27980   0.00000  Uiso   1.00
C195   C     0.84666   0.67381   0.31023   0.00000  Uiso   1.00
C196   C     0.79466   0.61479   0.36785   0.00000  Uiso   1.00
C197   C     0.72346   0.49213   0.46223   0.00000  Uiso   1.00
C198   C     0.79325   0.89630   0.26464   0.00000  Uiso   1.00
C199   C     0.81840   0.98107   0.28169   0.00000  Uiso   1.00
C200   C     0.79210   0.07889   0.31884   0.00000  Uiso   1.00
C201   C     0.82217   0.14529   0.32890   0.00000  Uiso   1.00
C202   C     0.84218   0.87473   0.17321   0.00000  Uiso   1.00
C203   C     0.83587   0.88312   0.11917   0.00000  Uiso   1.00
C204   C     0.88595   0.85998   0.03791   0.00000  Uiso   1.00
C205   C     0.78783   0.79471   0.30599   0.00000  Uiso   1.00
C206   C     0.73582   0.73581   0.36356   0.00000  Uiso   1.00
C207   C     0.74015   0.64527   0.39407   0.00000  Uiso   1.00
H208   H     0.93579   0.81657   0.19606   0.00000  Uiso   1.00
H209   H     0.94504   0.99333   0.24524   0.00000  Uiso   1.00
H210   H     0.98880   0.79757   0.04560   0.00000  Uiso   1.00
H211   H     0.88877   0.65028   0.28996   0.00000  Uiso   1.00
H212   H     0.93131   0.20273   0.31129   0.00000  Uiso   1.00
H213   H     0.02357   0.78994   0.89035   0.00000  Uiso   1.00
H214   H     0.81264   0.47934   0.40561   0.00000  Uiso   1.00
H215   H     0.75089   0.91999   0.28502   0.00000  Uiso   1.00
H216   H     0.74999   0.10242   0.33909   0.00000  Uiso   1.00
H217   H     0.79375   0.90667   0.13945   0.00000  Uiso   1.00
H218   H     0.69372   0.75938   0.38380   0.00000  Uiso   1.00
H219   H     0.77300   0.29128   0.38746   0.00000  Uiso   1.00
H220   H     0.86526   0.87848   0.96651   0.00000  Uiso   1.00
H221   H     0.65433   0.56789   0.48178   0.00000  Uiso   1.00
O222   O     0.85491   0.36516   0.38331   0.00000  Uiso   1.00
O223   O     0.97595   0.82357   0.83106   0.00000  Uiso   1.00
O224   O     0.69922   0.41608   0.50707   0.00000  Uiso   1.00
N225   N     0.89417   0.19852   0.32181   0.00000  Uiso   1.00
N226   N     0.98043   0.81260   0.92825   0.00000  Uiso   1.00
N227   N     0.78323   0.52220   0.40996   0.00000  Uiso   1.00
N228   N     0.80899   0.24617   0.36280   0.00000  Uiso   1.00
N229   N     0.89525   0.86025   0.96924   0.00000  Uiso   1.00
N230   N     0.69805   0.56985   0.45095   0.00000  Uiso   1.00
C231   C     0.39343   0.34027   0.21644   0.00000  Uiso   1.00
C232   C     0.37281   0.45064   0.25551   0.00000  Uiso   1.00
C233   C     0.40293   0.51690   0.26552   0.00000  Uiso   1.00
C234   C     0.37668   0.61481   0.30267   0.00000  Uiso   1.00
C235   C     0.35296   0.78158   0.35931   0.00000  Uiso   1.00
C236   C     0.39659   0.34429   0.14704   0.00000  Uiso   1.00
C237   C     0.44670   0.32113   0.06584   0.00000  Uiso   1.00
C238   C     0.44046   0.32950   0.01169   0.00000  Uiso   1.00
C239   C     0.45364   0.33109   0.89994   0.00000  Uiso   1.00
C240   C     0.34224   0.26427   0.27980   0.00000  Uiso   1.00
C241   C     0.34666   0.17381   0.31023   0.00000  Uiso   1.00
C242   C     0.29466   0.11479   0.36785   0.00000  Uiso   1.00
C243   C     0.22346   0.99213   0.46223   0.00000  Uiso   1.00
C244   C     0.29325   0.39630   0.26464   0.00000  Uiso   1.00
C245   C     0.31840   0.48107   0.28169   0.00000  Uiso   1.00
C246   C     0.29210   0.57889   0.31884   0.00000  Uiso   1.00
C247   C     0.32217   0.64529   0.32890   0.00000  Uiso   1.00
C248   C     0.34218   0.37473   0.17321   0.00000  Uiso   1.00
C249   C     0.33587   0.38312   0.11917   0.00000  Uiso   1.00
C250   C     0.38595   0.35998   0.03791   0.00000  Uiso   1.00
C251   C     0.28783   0.29471   0.30599   0.00000  Uiso   1.00
C252   C     0.23582   0.23581   0.36356   0.00000  Uiso   1.00
C253   C     0.24015   0.14527   0.39407   0.00000  Uiso   1.00
H254   H     0.43579   0.31657   0.19606   0.00000  Uiso   1.00
H255   H     0.44504   0.49333   0.24524   0.00000  Uiso   1.00
H256   H     0.48880   0.29757   0.04560   0.00000  Uiso   1.00
H257   H     0.38877   0.15028   0.28996   0.00000  Uiso   1.00
H258   H     0.43131   0.70273   0.31129   0.00000  Uiso   1.00
H259   H     0.52357   0.28994   0.89035   0.00000  Uiso   1.00
H260   H     0.31264   0.97934   0.40561   0.00000  Uiso   1.00
H261   H     0.25089   0.41999   0.28502   0.00000  Uiso   1.00
H262   H     0.24999   0.60242   0.33909   0.00000  Uiso   1.00
H263   H     0.29375   0.40667   0.13945   0.00000  Uiso   1.00
H264   H     0.19372   0.25938   0.38380   0.00000  Uiso   1.00
H265   H     0.27300   0.79128   0.38746   0.00000  Uiso   1.00
H266   H     0.36526   0.37848   0.96651   0.00000  Uiso   1.00
H267   H     0.15433   0.06789   0.48178   0.00000  Uiso   1.00
O268   O     0.35491   0.86516   0.38331   0.00000  Uiso   1.00
O269   O     0.47595   0.32357   0.83106   0.00000  Uiso   1.00
O270   O     0.19922   0.91608   0.50707   0.00000  Uiso   1.00
N271   N     0.39417   0.69852   0.32181   0.00000  Uiso   1.00
N272   N     0.48043   0.31260   0.92825   0.00000  Uiso   1.00
N273   N     0.28323   0.02220   0.40996   0.00000  Uiso   1.00
N274   N     0.30899   0.74617   0.36280   0.00000  Uiso   1.00
N275   N     0.39525   0.36025   0.96924   0.00000  Uiso   1.00
N276   N     0.19805   0.06985   0.45095   0.00000  Uiso   1.00
C277   C     0.10657   0.84027   0.28356   0.00000  Uiso   1.00
C278   C     0.12719   0.95064   0.24449   0.00000  Uiso   1.00
C279   C     0.09707   0.01690   0.23448   0.00000  Uiso   1.00
C280   C     0.12332   0.11481   0.19733   0.00000  Uiso   1.00
C281   C     0.14704   0.28158   0.14069   0.00000  Uiso   1.00
C282   C     0.10341   0.84429   0.35296   0.00000  Uiso   1.00
C283   C     0.05330   0.82113   0.43416   0.00000  Uiso   1.00
C284   C     0.05954   0.82950   0.48831   0.00000  Uiso   1.00
C285   C     0.04636   0.83109   0.60006   0.00000  Uiso   1.00
C286   C     0.15776   0.76427   0.22020   0.00000  Uiso   1.00
C287   C     0.15334   0.67381   0.18977   0.00000  Uiso   1.00
C288   C     0.20534   0.61479   0.13215   0.00000  Uiso   1.00
C289   C     0.27654   0.49213   0.03777   0.00000  Uiso   1.00
C290   C     0.20675   0.89630   0.23536   0.00000  Uiso   1.00
C291   C     0.18160   0.98107   0.21831   0.00000  Uiso   1.00
C292   C     0.20790   0.07889   0.18116   0.00000  Uiso   1.00
C293   C     0.17783   0.14529   0.17110   0.00000  Uiso   1.00
C294   C     0.15782   0.87473   0.32679   0.00000  Uiso   1.00
C295   C     0.16413   0.88312   0.38083   0.00000  Uiso   1.00
C296   C     0.11405   0.85998   0.46209   0.00000  Uiso   1.00
C297   C     0.21217   0.79471   0.19401   0.00000  Uiso   1.00
C298   C     0.26418   0.73581   0.13644   0.00000  Uiso   1.00
C299   C     0.25985   0.64527   0.10593   0.00000  Uiso   1.00
H300   H     0.06421   0.81657   0.30394   0.00000  Uiso   1.00
H301   H     0.05496   0.99333   0.25476   0.00000  Uiso   1.00
H302   H     0.01120   0.79757   0.45440   0.00000  Uiso   1.00
H303   H     0.11123   0.65028   0.21004   0.00000  Uiso   1.00
H304   H     0.06869   0.20273   0.18871   0.00000  Uiso   1.00
H305   H     0.97643   0.78994   0.60965   0.00000  Uiso   1.00
H306   H     0.18736   0.47934   0.09439   0.00000  Uiso   1.00
H307   H     0.24911   0.91999   0.21498   0.00000  Uiso   1.00
H308   H     0.25001   0.10242   0.16091   0.00000  Uiso   1.00
H309   H     0.20625   0.90667   0.36055   0.00000  Uiso   1.00
H310   H     0.30628   0.75938   0.11620   0.00000  Uiso   1.00
H311   H     0.22700   0.29128   0.11254   0.00000  Uiso   1.00
H312   H     0.13474   0.87848   0.53349   0.00000  Uiso   1.00
H313   H     0.34567   0.56789   0.01822   0.00000  Uiso   1.00
O314   O     0.14509   0.36516   0.11669   0.00000  Uiso   1.00
O315   O     0.02405   0.82357   0.66894   0.00000  Uiso   1.00
O316   O     0.30078   0.41608   0.99293   0.00000  Uiso   1.00
N317   N     0.10583   0.19852   0.17819   0.00000  Uiso   1.00
N318   N     0.01957   0.81260   0.57175   0.00000  Uiso   1.00
N319   N     0.21677   0.52220   0.09004   0.00000  Uiso   1.00
N320   N     0.19101   0.24617   0.13720   0.00000  Uiso   1.00
N321   N     0.10475   0.86025   0.53076   0.00000  Uiso   1.00
N322   N     0.30195   0.56985   0.04905   0.00000  Uiso   1.00
C323   C     0.60657   0.34027   0.28356   0.00000  Uiso   1.00
C324   C     0.62719   0.45064   0.24449   0.00000  Uiso   1.00
C325   C     0.59707   0.51690   0.23448   0.00000  Uiso   1.00
C326   C     0.62332   0.61481   0.19733   0.00000  Uiso   1.00
C327   C     0.64704   0.78158   0.14069   0.00000  Uiso   1.00
C328   C     0.60341   0.34429   0.35296   0.00000  Uiso   1.00
C329   C     0.55330   0.32113   0.43416   0.00000  Uiso   1.00
C330   C     0.55954   0.32950   0.48831   0.00000  Uiso   1.00
C331   C     0.54636   0.33109   0.60006   0.00000  Uiso   1.00
C332   C     0.65776   0.26427   0.22020   0.00000  Uiso   1.00
C333   C     0.65334   0.17381   0.18977   0.00000  Uiso   1.00
C334   C     0.70534   0.11479   0.13215   0.00000  Uiso   1.00
C335   C     0.77654   0.99213   0.03777   0.00000  Uiso   1.00
C336   C     0.70675   0.39630   0.23536   0.00000  Uiso   1.00
C337   C     0.68160   0.48107   0.21831   0.00000  Uiso   1.00
C338   C     0.70790   0.57889   0.18116   0.00000  Uiso   1.00
C339   C     0.67783   0.64529   0.17110   0.00000  Uiso   1.00
C340   C     0.65782   0.37473   0.32679   0.00000  Uiso   1.00
C341   C     0.66413   0.38312   0.38083   0.00000  Uiso   1.00
C342   C     0.61405   0.35998   0.46209   0.00000  Uiso   1.00
C343   C     0.71217   0.29471   0.19401   0.00000  Uiso   1.00
C344   C     0.76418   0.23581   0.13644   0.00000  Uiso   1.00
C345   C     0.75985   0.14527   0.10593   0.00000  Uiso   1.00
H346   H     0.56421   0.31657   0.30394   0.00000  Uiso   1.00
H347   H     0.55496   0.49333   0.25476   0.00000  Uiso   1.00
H348   H     0.51120   0.29757   0.45440   0.00000  Uiso   1.00
H349   H     0.61123   0.15028   0.21004   0.00000  Uiso   1.00
H350   H     0.56869   0.70273   0.18871   0.00000  Uiso   1.00
H351   H     0.47643   0.28994   0.60965   0.00000  Uiso   1.00
H352   H     0.68736   0.97934   0.09439   0.00000  Uiso   1.00
H353   H     0.74911   0.41999   0.21498   0.00000  Uiso   1.00
H354   H     0.75001   0.60242   0.16091   0.00000  Uiso   1.00
H355   H     0.70625   0.40667   0.36055   0.00000  Uiso   1.00
H356   H     0.80628   0.25938   0.11620   0.00000  Uiso   1.00
H357   H     0.72700   0.79128   0.11254   0.00000  Uiso   1.00
H358   H     0.63474   0.37848   0.53349   0.00000  Uiso   1.00
H359   H     0.84567   0.06789   0.01822   0.00000  Uiso   1.00
O360   O     0.64509   0.86516   0.11669   0.00000  Uiso   1.00
O361   O     0.52405   0.32357   0.66894   0.00000  Uiso   1.00
O362   O     0.80078   0.91608   0.99293   0.00000  Uiso   1.00
N363   N     0.60583   0.69852   0.17819   0.00000  Uiso   1.00
N364   N     0.51957   0.31260   0.57175   0.00000  Uiso   1.00
N365   N     0.71677   0.02220   0.09004   0.00000  Uiso   1.00
N366   N     0.69101   0.74617   0.13720   0.00000  Uiso   1.00
N367   N     0.60475   0.36025   0.53076   0.00000  Uiso   1.00
N368   N     0.80195   0.06985   0.04905   0.00000  Uiso   1.00
