data_job_06880
_audit_creation_date              2018-12-19
_audit_creation_method            'Materials Studio'
_symmetry_space_group_name_H-M    'P1'
_symmetry_Int_Tables_number       1
_symmetry_cell_setting            triclinic
loop_
_symmetry_equiv_pos_as_xyz
  x,y,z
_cell_length_a                    18.9853
_cell_length_b                    20.6575
_cell_length_c                    24.2159
_cell_angle_alpha                 107.3165
_cell_angle_beta                  82.1731
_cell_angle_gamma                 66.1249
loop_
_atom_site_label
_atom_site_type_symbol
_atom_site_fract_x
_atom_site_fract_y
_atom_site_fract_z
_atom_site_U_iso_or_equiv
_atom_site_adp_type
_atom_site_occupancy
C1     C     0.06485   0.79479   0.32942   0.00000  Uiso   1.00
C2     C     0.07210   0.85946   0.37476   0.00000  Uiso   1.00
C3     C     0.09686   0.85750   0.42585   0.00000  Uiso   1.00
C4     C     0.09944   0.92250   0.46160   0.00000  Uiso   1.00
C5     C     0.11390   0.01310   0.53429   0.00000  Uiso   1.00
C6     C     0.97812   0.82950   0.32697   0.00000  Uiso   1.00
C7     C     0.92387   0.80236   0.33786   0.00000  Uiso   1.00
C8     C     0.84735   0.84214   0.33337   0.00000  Uiso   1.00
C9     C     0.71593   0.88620   0.33181   0.00000  Uiso   1.00
C10    C     0.11731   0.77691   0.26778   0.00000  Uiso   1.00
C11    C     0.18008   0.70554   0.22890   0.00000  Uiso   1.00
C12    C     0.22073   0.70104   0.17456   0.00000  Uiso   1.00
C13    C     0.30543   0.66344   0.08111   0.00000  Uiso   1.00
C14    C     0.02541   0.91370   0.30206   0.00000  Uiso   1.00
C15    C     0.05067   0.92404   0.35990   0.00000  Uiso   1.00
C16    C     0.05321   0.98906   0.39558   0.00000  Uiso   1.00
C17    C     0.07798   0.98720   0.44671   0.00000  Uiso   1.00
C18    C     0.95669   0.89409   0.31211   0.00000  Uiso   1.00
C19    C     0.88023   0.93391   0.30759   0.00000  Uiso   1.00
C20    C     0.82588   0.90684   0.31848   0.00000  Uiso   1.00
C21    C     0.09588   0.84150   0.25292   0.00000  Uiso   1.00
C22    C     0.13644   0.83710   0.19863   0.00000  Uiso   1.00
C23    C     0.19926   0.76574   0.15968   0.00000  Uiso   1.00
H24    H     0.08153   0.74451   0.34098   0.00000  Uiso   1.00
H25    H     0.11343   0.80752   0.43734   0.00000  Uiso   1.00
H26    H     0.94047   0.75238   0.34935   0.00000  Uiso   1.00
H27    H     0.19664   0.65558   0.24041   0.00000  Uiso   1.00
H28    H     0.13931   0.90586   0.53762   0.00000  Uiso   1.00
H29    H     0.77464   0.78958   0.35208   0.00000  Uiso   1.00
H30    H     0.31482   0.58546   0.12235   0.00000  Uiso   1.00
H31    H     0.00873   0.96398   0.29049   0.00000  Uiso   1.00
H32    H     0.03663   0.03903   0.38407   0.00000  Uiso   1.00
H33    H     0.86367   0.98389   0.29609   0.00000  Uiso   1.00
H34    H     0.11984   0.88709   0.18715   0.00000  Uiso   1.00
H35    H     0.07698   0.09376   0.49439   0.00000  Uiso   1.00
H36    H     0.71230   0.97748   0.30885   0.00000  Uiso   1.00
H37    H     0.25249   0.77336   0.07912   0.00000  Uiso   1.00
O38    O     0.12779   0.04523   0.57849   0.00000  Uiso   1.00
O39    O     0.64936   0.89266   0.33506   0.00000  Uiso   1.00
O40    O     0.35807   0.62487   0.03366   0.00000  Uiso   1.00
N41    N     0.12083   0.93978   0.51460   0.00000  Uiso   1.00
N42    N     0.77988   0.83107   0.34114   0.00000  Uiso   1.00
N43    N     0.28489   0.64023   0.12635   0.00000  Uiso   1.00
N44    N     0.08729   0.04088   0.49133   0.00000  Uiso   1.00
N45    N     0.74633   0.93218   0.31788   0.00000  Uiso   1.00
N46    N     0.25135   0.74134   0.10309   0.00000  Uiso   1.00
C47    C     0.56398   0.34247   0.37286   0.00000  Uiso   1.00
C48    C     0.61432   0.30224   0.40796   0.00000  Uiso   1.00
C49    C     0.58442   0.29382   0.45949   0.00000  Uiso   1.00
C50    C     0.64033   0.25520   0.48493   0.00000  Uiso   1.00
C51    C     0.70589   0.19720   0.54329   0.00000  Uiso   1.00
C52    C     0.58661   0.40482   0.37085   0.00000  Uiso   1.00
C53    C     0.53341   0.48265   0.39116   0.00000  Uiso   1.00
C54    C     0.56600   0.53038   0.38534   0.00000  Uiso   1.00
C55    C     0.58853   0.63163   0.38603   0.00000  Uiso   1.00
C56    C     0.59551   0.28362   0.30793   0.00000  Uiso   1.00
C57    C     0.54979   0.25955   0.27533   0.00000  Uiso   1.00
C58    C     0.58987   0.20525   0.21653   0.00000  Uiso   1.00
C59    C     0.62621   0.11831   0.11954   0.00000  Uiso   1.00
C60    C     0.71645   0.28886   0.32639   0.00000  Uiso   1.00
C61    C     0.69713   0.27313   0.38272   0.00000  Uiso   1.00
C62    C     0.75311   0.23451   0.40808   0.00000  Uiso   1.00
C63    C     0.72330   0.22603   0.45964   0.00000  Uiso   1.00
C64    C     0.66942   0.37571   0.34561   0.00000  Uiso   1.00
C65    C     0.70209   0.42334   0.33975   0.00000  Uiso   1.00
C66    C     0.64896   0.50121   0.36005   0.00000  Uiso   1.00
C67    C     0.67832   0.25450   0.28269   0.00000  Uiso   1.00
C68    C     0.71848   0.20023   0.22393   0.00000  Uiso   1.00
C69    C     0.67283   0.17608   0.19125   0.00000  Uiso   1.00
H70    H     0.49951   0.36515   0.39251   0.00000  Uiso   1.00
H71    H     0.52032   0.31637   0.47902   0.00000  Uiso   1.00
H72    H     0.46932   0.50516   0.41068   0.00000  Uiso   1.00
H73    H     0.48570   0.28210   0.29488   0.00000  Uiso   1.00
H74    H     0.57992   0.24948   0.56381   0.00000  Uiso   1.00
H75    H     0.47238   0.64755   0.41971   0.00000  Uiso   1.00
H76    H     0.50692   0.17718   0.17551   0.00000  Uiso   1.00
H77    H     0.78093   0.26619   0.30674   0.00000  Uiso   1.00
H78    H     0.81719   0.21198   0.38854   0.00000  Uiso   1.00
H79    H     0.76618   0.40078   0.32021   0.00000  Uiso   1.00
H80    H     0.78256   0.17771   0.20441   0.00000  Uiso   1.00
H81    H     0.82087   0.16475   0.49038   0.00000  Uiso   1.00
H82    H     0.71332   0.56283   0.34627   0.00000  Uiso   1.00
H83    H     0.74786   0.09245   0.10208   0.00000  Uiso   1.00
O84    O     0.71917   0.17326   0.58246   0.00000  Uiso   1.00
O85    O     0.57807   0.69552   0.39340   0.00000  Uiso   1.00
O86    O     0.62339   0.07839   0.07302   0.00000  Uiso   1.00
N87    N     0.63165   0.23696   0.53529   0.00000  Uiso   1.00
N88    N     0.53111   0.60914   0.40058   0.00000  Uiso   1.00
N89    N     0.56340   0.16939   0.17227   0.00000  Uiso   1.00
N90    N     0.76130   0.19137   0.49578   0.00000  Uiso   1.00
N91    N     0.66076   0.56356   0.36106   0.00000  Uiso   1.00
N92    N     0.69305   0.12381   0.13275   0.00000  Uiso   1.00
C93    C     0.05891   0.35233   0.37850   0.00000  Uiso   1.00
C94    C     0.96954   0.38211   0.40762   0.00000  Uiso   1.00
C95    C     0.91613   0.45588   0.44939   0.00000  Uiso   1.00
C96    C     0.83682   0.47181   0.47067   0.00000  Uiso   1.00
C97    C     0.70185   0.52653   0.51892   0.00000  Uiso   1.00
C98    C     0.10374   0.28196   0.39255   0.00000  Uiso   1.00
C99    C     0.16317   0.27152   0.42165   0.00000  Uiso   1.00
C100   C     0.19684   0.20313   0.43023   0.00000  Uiso   1.00
C101   C     0.27026   0.10233   0.45505   0.00000  Uiso   1.00
C102   C     0.07201   0.32242   0.31034   0.00000  Uiso   1.00
C103   C     0.10479   0.34599   0.27030   0.00000  Uiso   1.00
C104   C     0.11176   0.31165   0.20966   0.00000  Uiso   1.00
C105   C     0.13593   0.27369   0.10682   0.00000  Uiso   1.00
C106   C     0.01304   0.24944   0.34201   0.00000  Uiso   1.00
C107   C     0.94463   0.32622   0.38779   0.00000  Uiso   1.00
C108   C     0.86538   0.34204   0.40901   0.00000  Uiso   1.00
C109   C     0.81186   0.41582   0.45081   0.00000  Uiso   1.00
C110   C     0.07883   0.22607   0.37273   0.00000  Uiso   1.00
C111   C     0.11242   0.15767   0.38127   0.00000  Uiso   1.00
C112   C     0.17188   0.14713   0.41037   0.00000  Uiso   1.00
C113   C     0.04710   0.26653   0.29051   0.00000  Uiso   1.00
C114   C     0.05403   0.23215   0.22992   0.00000  Uiso   1.00
C115   C     0.08681   0.25566   0.18980   0.00000  Uiso   1.00
H116   H     0.07831   0.39584   0.39394   0.00000  Uiso   1.00
H117   H     0.93544   0.49912   0.46473   0.00000  Uiso   1.00
H118   H     0.18245   0.31477   0.43698   0.00000  Uiso   1.00
H119   H     0.12406   0.38924   0.28566   0.00000  Uiso   1.00
H120   H     0.76605   0.58896   0.53448   0.00000  Uiso   1.00
H121   H     0.28690   0.20025   0.47596   0.00000  Uiso   1.00
H122   H     0.16380   0.35727   0.15686   0.00000  Uiso   1.00
H123   H     0.99364   0.20592   0.32657   0.00000  Uiso   1.00
H124   H     0.84611   0.29877   0.39366   0.00000  Uiso   1.00
H125   H     0.09313   0.11443   0.36592   0.00000  Uiso   1.00
H126   H     0.03474   0.18890   0.21459   0.00000  Uiso   1.00
H127   H     0.69356   0.42635   0.47681   0.00000  Uiso   1.00
H128   H     0.21441   0.03764   0.41828   0.00000  Uiso   1.00
H129   H     0.09130   0.19467   0.09919   0.00000  Uiso   1.00
O130   O     0.63429   0.57215   0.55101   0.00000  Uiso   1.00
O131   O     0.31764   0.06219   0.47422   0.00000  Uiso   1.00
O132   O     0.15612   0.26819   0.05558   0.00000  Uiso   1.00
N133   N     0.76923   0.53795   0.51169   0.00000  Uiso   1.00
N134   N     0.25619   0.17454   0.45698   0.00000  Uiso   1.00
N135   N     0.14112   0.32132   0.15865   0.00000  Uiso   1.00
N136   N     0.73022   0.45045   0.48066   0.00000  Uiso   1.00
N137   N     0.21718   0.08704   0.42595   0.00000  Uiso   1.00
N138   N     0.10211   0.23383   0.12762   0.00000  Uiso   1.00
C139   C     0.64981   0.24911   0.80914   0.00000  Uiso   1.00
C140   C     0.66530   0.22885   0.86346   0.00000  Uiso   1.00
C141   C     0.71274   0.24704   0.89756   0.00000  Uiso   1.00
C142   C     0.71931   0.22340   0.94547   0.00000  Uiso   1.00
C143   C     0.74933   0.19812   0.02782   0.00000  Uiso   1.00
C144   C     0.55853   0.29426   0.82389   0.00000  Uiso   1.00
C145   C     0.51620   0.36745   0.82471   0.00000  Uiso   1.00
C146   C     0.43290   0.39886   0.83930   0.00000  Uiso   1.00
C147   C     0.29717   0.47511   0.86017   0.00000  Uiso   1.00
C148   C     0.67579   0.17327   0.75683   0.00000  Uiso   1.00
C149   C     0.73204   0.14473   0.70125   0.00000  Uiso   1.00
C150   C     0.74745   0.07429   0.65937   0.00000  Uiso   1.00
C151   C     0.79378   0.96268   0.57611   0.00000  Uiso   1.00
C152   C     0.57713   0.17476   0.83359   0.00000  Uiso   1.00
C153   C     0.62582   0.18847   0.87674   0.00000  Uiso   1.00
C154   C     0.63233   0.16479   0.92461   0.00000  Uiso   1.00
C155   C     0.67977   0.18294   0.95877   0.00000  Uiso   1.00
C156   C     0.51905   0.25388   0.83717   0.00000  Uiso   1.00
C157   C     0.43579   0.28519   0.85176   0.00000  Uiso   1.00
C158   C     0.39335   0.35840   0.85261   0.00000  Uiso   1.00
C159   C     0.63632   0.13289   0.77011   0.00000  Uiso   1.00
C160   C     0.65163   0.06247   0.72830   0.00000  Uiso   1.00
C161   C     0.70790   0.03383   0.67267   0.00000  Uiso   1.00
H162   H     0.68054   0.28055   0.79880   0.00000  Uiso   1.00
H163   H     0.74327   0.27830   0.88727   0.00000  Uiso   1.00
H164   H     0.54677   0.39868   0.81443   0.00000  Uiso   1.00
H165   H     0.76258   0.17600   0.69099   0.00000  Uiso   1.00
H166   H     0.79538   0.25802   0.99123   0.00000  Uiso   1.00
H167   H     0.38106   0.51184   0.83761   0.00000  Uiso   1.00
H168   H     0.83613   0.04227   0.57731   0.00000  Uiso   1.00
H169   H     0.54639   0.14332   0.84393   0.00000  Uiso   1.00
H170   H     0.60177   0.13354   0.93488   0.00000  Uiso   1.00
H171   H     0.40527   0.25392   0.86203   0.00000  Uiso   1.00
H172   H     0.62107   0.03124   0.73860   0.00000  Uiso   1.00
H173   H     0.68053   0.14053   0.02987   0.00000  Uiso   1.00
H174   H     0.26620   0.39434   0.87625   0.00000  Uiso   1.00
H175   H     0.72128   0.92478   0.61595   0.00000  Uiso   1.00
O176   O     0.77678   0.19534   0.06957   0.00000  Uiso   1.00
O177   O     0.23320   0.52833   0.86802   0.00000  Uiso   1.00
O178   O     0.83025   0.91227   0.52652   0.00000  Uiso   1.00
N179   N     0.76077   0.23170   0.98783   0.00000  Uiso   1.00
N180   N     0.37339   0.46901   0.84422   0.00000  Uiso   1.00
N181   N     0.79883   0.03001   0.60086   0.00000  Uiso   1.00
N182   N     0.69897   0.16848   0.00862   0.00000  Uiso   1.00
N183   N     0.31159   0.40578   0.86501   0.00000  Uiso   1.00
N184   N     0.73703   0.96679   0.62165   0.00000  Uiso   1.00
C185   C     0.07976   0.20324   0.85026   0.00000  Uiso   1.00
C186   C     0.12303   0.24304   0.88332   0.00000  Uiso   1.00
C187   C     0.08657   0.31058   0.93475   0.00000  Uiso   1.00
C188   C     0.13665   0.33769   0.95817   0.00000  Uiso   1.00
C189   C     0.19112   0.40541   0.01365   0.00000  Uiso   1.00
C190   C     0.11873   0.12162   0.84829   0.00000  Uiso   1.00
C191   C     0.07866   0.08707   0.87025   0.00000  Uiso   1.00
C192   C     0.12512   0.01196   0.86416   0.00000  Uiso   1.00
C193   C     0.17292   0.89115   0.86521   0.00000  Uiso   1.00
C194   C     0.10290   0.19575   0.78499   0.00000  Uiso   1.00
C195   C     0.04953   0.22351   0.75372   0.00000  Uiso   1.00
C196   C     0.08266   0.21080   0.69434   0.00000  Uiso   1.00
C197   C     0.10588   0.20509   0.59710   0.00000  Uiso   1.00
C198   C     0.23352   0.13128   0.80038   0.00000  Uiso   1.00
C199   C     0.20654   0.20395   0.85623   0.00000  Uiso   1.00
C200   C     0.25668   0.23096   0.87957   0.00000  Uiso   1.00
C201   C     0.22031   0.29854   0.93103   0.00000  Uiso   1.00
C202   C     0.20224   0.08253   0.82120   0.00000  Uiso   1.00
C203   C     0.24877   0.00745   0.81507   0.00000  Uiso   1.00
C204   C     0.20879   0.97280   0.83703   0.00000  Uiso   1.00
C205   C     0.18641   0.15666   0.75790   0.00000  Uiso   1.00
C206   C     0.21964   0.14389   0.69855   0.00000  Uiso   1.00
C207   C     0.16632   0.17164   0.66720   0.00000  Uiso   1.00
H208   H     0.01475   0.23367   0.87135   0.00000  Uiso   1.00
H209   H     0.02194   0.34081   0.95571   0.00000  Uiso   1.00
H210   H     0.01404   0.11733   0.89121   0.00000  Uiso   1.00
H211   H     0.98490   0.25376   0.77470   0.00000  Uiso   1.00
H212   H     0.06675   0.44235   0.03730   0.00000  Uiso   1.00
H213   H     0.05007   0.97112   0.90128   0.00000  Uiso   1.00
H214   H     0.98864   0.25879   0.65560   0.00000  Uiso   1.00
H215   H     0.29854   0.10084   0.77929   0.00000  Uiso   1.00
H216   H     0.32131   0.20070   0.85860   0.00000  Uiso   1.00
H217   H     0.31340   0.97722   0.79410   0.00000  Uiso   1.00
H218   H     0.28427   0.11364   0.67760   0.00000  Uiso   1.00
H219   H     0.30973   0.32863   0.95849   0.00000  Uiso   1.00
H220   H     0.29305   0.85739   0.82247   0.00000  Uiso   1.00
H221   H     0.23162   0.14507   0.57679   0.00000  Uiso   1.00
O222   O     0.19810   0.45356   0.05174   0.00000  Uiso   1.00
O223   O     0.17621   0.83532   0.87328   0.00000  Uiso   1.00
O224   O     0.09562   0.21274   0.55096   0.00000  Uiso   1.00
N225   N     0.12081   0.40189   0.00786   0.00000  Uiso   1.00
N226   N     0.10522   0.96132   0.88070   0.00000  Uiso   1.00
N227   N     0.04778   0.23025   0.65101   0.00000  Uiso   1.00
N228   N     0.25155   0.34069   0.96545   0.00000  Uiso   1.00
N229   N     0.23596   0.90013   0.83829   0.00000  Uiso   1.00
N230   N     0.17853   0.16906   0.60860   0.00000  Uiso   1.00
C231   C     0.50576   0.82727   0.84248   0.00000  Uiso   1.00
C232   C     0.42705   0.89865   0.88298   0.00000  Uiso   1.00
C233   C     0.36397   0.89983   0.92047   0.00000  Uiso   1.00
C234   C     0.29714   0.97097   0.95392   0.00000  Uiso   1.00
C235   C     0.17548   0.07155   0.01743   0.00000  Uiso   1.00
C236   C     0.57301   0.84250   0.86093   0.00000  Uiso   1.00
C237   C     0.63265   0.79646   0.87986   0.00000  Uiso   1.00
C238   C     0.68868   0.82032   0.89475   0.00000  Uiso   1.00
C239   C     0.79366   0.83369   0.92397   0.00000  Uiso   1.00
C240   C     0.51275   0.82578   0.77859   0.00000  Uiso   1.00
C241   C     0.52175   0.76567   0.72828   0.00000  Uiso   1.00
C242   C     0.52708   0.77544   0.67384   0.00000  Uiso   1.00
C243   C     0.53850   0.76285   0.57521   0.00000  Uiso   1.00
C244   C     0.49924   0.95149   0.83524   0.00000  Uiso   1.00
C245   C     0.42351   0.96613   0.87905   0.00000  Uiso   1.00
C246   C     0.35675   0.03727   0.91246   0.00000  Uiso   1.00
C247   C     0.29358   0.03856   0.94998   0.00000  Uiso   1.00
C248   C     0.56947   0.90997   0.85700   0.00000  Uiso   1.00
C249   C     0.62543   0.93390   0.87185   0.00000  Uiso   1.00
C250   C     0.68514   0.88791   0.89081   0.00000  Uiso   1.00
C251   C     0.50921   0.89325   0.77465   0.00000  Uiso   1.00
C252   C     0.51453   0.90311   0.72027   0.00000  Uiso   1.00
C253   C     0.52353   0.84303   0.66990   0.00000  Uiso   1.00
H254   H     0.50852   0.77474   0.84555   0.00000  Uiso   1.00
H255   H     0.36674   0.84761   0.92350   0.00000  Uiso   1.00
H256   H     0.63538   0.74425   0.88290   0.00000  Uiso   1.00
H257   H     0.52449   0.71346   0.73134   0.00000  Uiso   1.00
H258   H     0.20800   0.95816   0.00821   0.00000  Uiso   1.00
H259   H     0.77445   0.74020   0.92258   0.00000  Uiso   1.00
H260   H     0.54063   0.67529   0.60299   0.00000  Uiso   1.00
H261   H     0.49648   0.00402   0.83218   0.00000  Uiso   1.00
H262   H     0.35403   0.08948   0.90940   0.00000  Uiso   1.00
H263   H     0.62267   0.98611   0.86880   0.00000  Uiso   1.00
H264   H     0.51179   0.95533   0.71725   0.00000  Uiso   1.00
H265   H     0.19768   0.15447   0.99677   0.00000  Uiso   1.00
H266   H     0.76415   0.93651   0.91114   0.00000  Uiso   1.00
H267   H     0.53032   0.87160   0.59155   0.00000  Uiso   1.00
O268   O     0.10936   0.10839   0.05355   0.00000  Uiso   1.00
O269   O     0.85254   0.82243   0.94119   0.00000  Uiso   1.00
O270   O     0.54577   0.73727   0.52190   0.00000  Uiso   1.00
N271   N     0.22511   0.99263   0.99491   0.00000  Uiso   1.00
N272   N     0.75471   0.78886   0.91486   0.00000  Uiso   1.00
N273   N     0.53613   0.72816   0.61607   0.00000  Uiso   1.00
N274   N     0.21956   0.09826   0.98876   0.00000  Uiso   1.00
N275   N     0.74916   0.89449   0.90870   0.00000  Uiso   1.00
N276   N     0.53058   0.83380   0.60991   0.00000  Uiso   1.00
C277   C     0.98707   0.91433   0.71617   0.00000  Uiso   1.00
C278   C     0.99168   0.83945   0.67569   0.00000  Uiso   1.00
C279   C     0.94618   0.83275   0.63614   0.00000  Uiso   1.00
C280   C     0.95933   0.75917   0.60308   0.00000  Uiso   1.00
C281   C     0.95790   0.65272   0.53924   0.00000  Uiso   1.00
C282   C     0.07232   0.90444   0.70022   0.00000  Uiso   1.00
C283   C     0.09461   0.95238   0.68132   0.00000  Uiso   1.00
C284   C     0.17564   0.93351   0.66892   0.00000  Uiso   1.00
C285   C     0.29939   0.92798   0.64321   0.00000  Uiso   1.00
C286   C     0.96868   0.91770   0.78056   0.00000  Uiso   1.00
C287   C     0.90383   0.97681   0.82921   0.00000  Uiso   1.00
C288   C     0.89761   0.96911   0.88445   0.00000  Uiso   1.00
C289   C     0.86044   0.98418   0.98348   0.00000  Uiso   1.00
C290   C     0.09134   0.79557   0.72779   0.00000  Uiso   1.00
C291   C     0.04832   0.77495   0.68200   0.00000  Uiso   1.00
C292   C     0.06154   0.70136   0.64899   0.00000  Uiso   1.00
C293   C     0.01606   0.69455   0.60940   0.00000  Uiso   1.00
C294   C     0.12895   0.83994   0.70653   0.00000  Uiso   1.00
C295   C     0.20997   0.82099   0.69417   0.00000  Uiso   1.00
C296   C     0.23238   0.86889   0.67524   0.00000  Uiso   1.00
C297   C     0.02531   0.85320   0.78687   0.00000  Uiso   1.00
C298   C     0.01919   0.84541   0.84206   0.00000  Uiso   1.00
C299   C     0.95435   0.90449   0.89077   0.00000  Uiso   1.00
H300   H     0.94298   0.96455   0.71126   0.00000  Uiso   1.00
H301   H     0.90236   0.88269   0.63127   0.00000  Uiso   1.00
H302   H     0.05077   0.00230   0.67644   0.00000  Uiso   1.00
H303   H     0.86002   0.02672   0.82431   0.00000  Uiso   1.00
H304   H     0.88232   0.76348   0.54535   0.00000  Uiso   1.00
H305   H     0.19524   0.01571   0.64062   0.00000  Uiso   1.00
H306   H     0.79301   0.06720   0.95242   0.00000  Uiso   1.00
H307   H     0.13544   0.74535   0.73270   0.00000  Uiso   1.00
H308   H     0.10537   0.65145   0.65388   0.00000  Uiso   1.00
H309   H     0.25378   0.77107   0.69906   0.00000  Uiso   1.00
H310   H     0.06303   0.79549   0.84692   0.00000  Uiso   1.00
H311   H     0.04709   0.57580   0.56370   0.00000  Uiso   1.00
H312   H     0.36001   0.82803   0.65898   0.00000  Uiso   1.00
H313   H     0.95778   0.87952   0.97078   0.00000  Uiso   1.00
O314   O     0.94147   0.61182   0.50227   0.00000  Uiso   1.00
O315   O     0.35200   0.94275   0.62728   0.00000  Uiso   1.00
O316   O     0.82429   0.01031   0.03635   0.00000  Uiso   1.00
N317   N     0.92521   0.73219   0.56049   0.00000  Uiso   1.00
N318   N     0.21777   0.96801   0.64956   0.00000  Uiso   1.00
N319   N     0.84174   0.01616   0.94107   0.00000  Uiso   1.00
N320   N     0.01387   0.63121   0.57037   0.00000  Uiso   1.00
N321   N     0.30644   0.86702   0.65944   0.00000  Uiso   1.00
N322   N     0.93040   0.91517   0.95095   0.00000  Uiso   1.00
C323   C     0.46979   0.52895   0.70742   0.00000  Uiso   1.00
C324   C     0.43153   0.56267   0.66442   0.00000  Uiso   1.00
C325   C     0.46945   0.57806   0.62055   0.00000  Uiso   1.00
C326   C     0.42410   0.60887   0.58579   0.00000  Uiso   1.00
C327   C     0.37693   0.65893   0.51766   0.00000  Uiso   1.00
C328   C     0.46028   0.45690   0.69784   0.00000  Uiso   1.00
C329   C     0.52237   0.38335   0.68209   0.00000  Uiso   1.00
C330   C     0.50122   0.32512   0.67547   0.00000  Uiso   1.00
C331   C     0.49867   0.21098   0.65928   0.00000  Uiso   1.00
C332   C     0.41617   0.58602   0.77114   0.00000  Uiso   1.00
C333   C     0.44118   0.62103   0.81702   0.00000  Uiso   1.00
C334   C     0.38289   0.67149   0.87213   0.00000  Uiso   1.00
C335   C     0.31186   0.75784   0.96974   0.00000  Uiso   1.00
C336   C     0.32182   0.55631   0.72370   0.00000  Uiso   1.00
C337   C     0.35116   0.57753   0.67326   0.00000  Uiso   1.00
C338   C     0.30574   0.60833   0.63856   0.00000  Uiso   1.00
C339   C     0.34358   0.62376   0.59465   0.00000  Uiso   1.00
C340   C     0.37991   0.47176   0.70669   0.00000  Uiso   1.00
C341   C     0.35866   0.41362   0.70010   0.00000  Uiso   1.00
C342   C     0.42070   0.34001   0.68433   0.00000  Uiso   1.00
C343   C     0.33580   0.60088   0.77999   0.00000  Uiso   1.00
C344   C     0.27746   0.65130   0.83504   0.00000  Uiso   1.00
C345   C     0.30237   0.68638   0.88099   0.00000  Uiso   1.00
H346   H     0.53237   0.51737   0.70053   0.00000  Uiso   1.00
H347   H     0.53166   0.56654   0.61371   0.00000  Uiso   1.00
H348   H     0.58457   0.37187   0.67525   0.00000  Uiso   1.00
H349   H     0.50338   0.60951   0.81016   0.00000  Uiso   1.00
H350   H     0.49543   0.62758   0.52134   0.00000  Uiso   1.00
H351   H     0.60699   0.21710   0.65112   0.00000  Uiso   1.00
H352   H     0.43580   0.71822   0.93561   0.00000  Uiso   1.00
H353   H     0.25924   0.56788   0.73059   0.00000  Uiso   1.00
H354   H     0.24354   0.61982   0.64542   0.00000  Uiso   1.00
H355   H     0.29645   0.42514   0.70695   0.00000  Uiso   1.00
H356   H     0.21527   0.66279   0.84186   0.00000  Uiso   1.00
H357   H     0.26158   0.67082   0.54708   0.00000  Uiso   1.00
H358   H     0.37315   0.26034   0.67685   0.00000  Uiso   1.00
H359   H     0.20196   0.76146   0.96134   0.00000  Uiso   1.00
O360   O     0.37311   0.68243   0.47763   0.00000  Uiso   1.00
O361   O     0.51948   0.14391   0.64790   0.00000  Uiso   1.00
O362   O     0.29488   0.80136   0.02114   0.00000  Uiso   1.00
N363   N     0.44254   0.63064   0.53910   0.00000  Uiso   1.00
N364   N     0.54685   0.24687   0.66042   0.00000  Uiso   1.00
N365   N     0.38681   0.71535   0.92640   0.00000  Uiso   1.00
N366   N     0.31671   0.65391   0.55294   0.00000  Uiso   1.00
N367   N     0.42102   0.27014   0.67426   0.00000  Uiso   1.00
N368   N     0.26097   0.73862   0.94024   0.00000  Uiso   1.00
C369   C     0.87065   0.52743   0.70231   0.00000  Uiso   1.00
C370   C     0.96234   0.48690   0.67797   0.00000  Uiso   1.00
C371   C     0.00926   0.41674   0.62962   0.00000  Uiso   1.00
C372   C     0.09210   0.38939   0.61435   0.00000  Uiso   1.00
C373   C     0.22920   0.32018   0.57167   0.00000  Uiso   1.00
C374   C     0.84204   0.60680   0.70008   0.00000  Uiso   1.00
C375   C     0.78780   0.63743   0.67033   0.00000  Uiso   1.00
C376   C     0.76937   0.71101   0.67368   0.00000  Uiso   1.00
C377   C     0.71966   0.82796   0.66537   0.00000  Uiso   1.00
C378   C     0.85123   0.54083   0.76921   0.00000  Uiso   1.00
C379   C     0.80470   0.51602   0.79759   0.00000  Uiso   1.00
C380   C     0.79400   0.53408   0.85916   0.00000  Uiso   1.00
C381   C     0.75855   0.54861   0.95818   0.00000  Uiso   1.00
C382   C     0.93435   0.60364   0.76118   0.00000  Uiso   1.00
C383   C     0.99694   0.52830   0.70995   0.00000  Uiso   1.00
C384   C     0.07973   0.50105   0.69475   0.00000  Uiso   1.00
C385   C     0.12676   0.43085   0.64638   0.00000  Uiso   1.00
C386   C     0.87664   0.64819   0.73205   0.00000  Uiso   1.00
C387   C     0.85828   0.72175   0.73545   0.00000  Uiso   1.00
C388   C     0.80403   0.75248   0.70571   0.00000  Uiso   1.00
C389   C     0.88583   0.58222   0.80119   0.00000  Uiso   1.00
C390   C     0.87519   0.60033   0.86272   0.00000  Uiso   1.00
C391   C     0.82865   0.57555   0.89119   0.00000  Uiso   1.00
H392   H     0.84372   0.49521   0.67742   0.00000  Uiso   1.00
H393   H     0.98246   0.38472   0.60488   0.00000  Uiso   1.00
H394   H     0.76103   0.60539   0.64559   0.00000  Uiso   1.00
H395   H     0.77794   0.48399   0.77284   0.00000  Uiso   1.00
H396   H     0.15153   0.28049   0.53855   0.00000  Uiso   1.00
H397   H     0.68463   0.74578   0.62440   0.00000  Uiso   1.00
H398   H     0.72027   0.48980   0.89273   0.00000  Uiso   1.00
H399   H     0.96129   0.63587   0.78607   0.00000  Uiso   1.00
H400   H     0.10649   0.53310   0.71950   0.00000  Uiso   1.00
H401   H     0.88506   0.75376   0.76021   0.00000  Uiso   1.00
H402   H     0.90197   0.63237   0.88745   0.00000  Uiso   1.00
H403   H     0.25220   0.40092   0.63157   0.00000  Uiso   1.00
H404   H     0.78529   0.86621   0.71743   0.00000  Uiso   1.00
H405   H     0.82094   0.61023   0.98575   0.00000  Uiso   1.00
O406   O     0.29526   0.27057   0.53929   0.00000  Uiso   1.00
O407   O     0.68268   0.88102   0.65194   0.00000  Uiso   1.00
O408   O     0.72946   0.54517   0.00397   0.00000  Uiso   1.00
N409   N     0.15530   0.32293   0.56959   0.00000  Uiso   1.00
N410   N     0.71878   0.75795   0.64985   0.00000  Uiso   1.00
N411   N     0.75209   0.51864   0.90071   0.00000  Uiso   1.00
N412   N     0.20947   0.38773   0.61964   0.00000  Uiso   1.00
N413   N     0.77295   0.82275   0.69990   0.00000  Uiso   1.00
N414   N     0.80626   0.58344   0.95077   0.00000  Uiso   1.00
C415   C     0.52564   0.49923   0.15250   0.00000  Uiso   1.00
C416   C     0.52579   0.55697   0.12532   0.00000  Uiso   1.00
C417   C     0.51362   0.55585   0.06989   0.00000  Uiso   1.00
C418   C     0.51606   0.61376   0.05311   0.00000  Uiso   1.00
C419   C     0.51418   0.69473   0.00521   0.00000  Uiso   1.00
C420   C     0.60667   0.46639   0.16507   0.00000  Uiso   1.00
C421   C     0.66251   0.38910   0.14308   0.00000  Uiso   1.00
C422   C     0.73304   0.37077   0.15977   0.00000  Uiso   1.00
C423   C     0.85671   0.31110   0.17363   0.00000  Uiso   1.00
C424   C     0.46227   0.54617   0.21423   0.00000  Uiso   1.00
C425   C     0.39670   0.53597   0.23357   0.00000  Uiso   1.00
C426   C     0.34565   0.58480   0.29166   0.00000  Uiso   1.00
C427   C     0.24512   0.64901   0.38183   0.00000  Uiso   1.00
C428   C     0.55161   0.60407   0.22127   0.00000  Uiso   1.00
C429   C     0.53989   0.61391   0.16267   0.00000  Uiso   1.00
C430   C     0.54235   0.67184   0.14597   0.00000  Uiso   1.00
C431   C     0.53019   0.67081   0.09053   0.00000  Uiso   1.00
C432   C     0.62078   0.52333   0.20242   0.00000  Uiso   1.00
C433   C     0.69124   0.50510   0.21916   0.00000  Uiso   1.00
C434   C     0.74717   0.42781   0.19719   0.00000  Uiso   1.00
C435   C     0.47637   0.60312   0.25158   0.00000  Uiso   1.00
C436   C     0.42543   0.65197   0.30965   0.00000  Uiso   1.00
C437   C     0.35979   0.64184   0.32907   0.00000  Uiso   1.00
H438   H     0.51467   0.45489   0.12342   0.00000  Uiso   1.00
H439   H     0.50272   0.51176   0.04099   0.00000  Uiso   1.00
H440   H     0.65157   0.34505   0.11418   0.00000  Uiso   1.00
H441   H     0.38580   0.49189   0.20465   0.00000  Uiso   1.00
H442   H     0.49572   0.59991   0.96607   0.00000  Uiso   1.00
H443   H     0.80958   0.24838   0.12040   0.00000  Uiso   1.00
H444   H     0.24915   0.55803   0.31119   0.00000  Uiso   1.00
H445   H     0.56259   0.64841   0.25035   0.00000  Uiso   1.00
H446   H     0.55327   0.71590   0.17488   0.00000  Uiso   1.00
H447   H     0.70213   0.54918   0.24807   0.00000  Uiso   1.00
H448   H     0.43636   0.69603   0.33854   0.00000  Uiso   1.00
H449   H     0.53675   0.76560   0.07474   0.00000  Uiso   1.00
H450   H     0.85062   0.41407   0.22907   0.00000  Uiso   1.00
H451   H     0.29018   0.72372   0.41985   0.00000  Uiso   1.00
O452   O     0.50926   0.72365   0.96846   0.00000  Uiso   1.00
O453   O     0.92103   0.26246   0.17094   0.00000  Uiso   1.00
O454   O     0.18576   0.66871   0.42125   0.00000  Uiso   1.00
N455   N     0.50664   0.62965   0.00201   0.00000  Uiso   1.00
N456   N     0.80009   0.30099   0.14629   0.00000  Uiso   1.00
N457   N     0.27614   0.59048   0.32466   0.00000  Uiso   1.00
N458   N     0.52872   0.71881   0.06048   0.00000  Uiso   1.00
N459   N     0.82217   0.39015   0.20476   0.00000  Uiso   1.00
N460   N     0.29822   0.67963   0.38314   0.00000  Uiso   1.00
C461   C     0.93935   0.57033   0.21020   0.00000  Uiso   1.00
C462   C     0.90574   0.52871   0.16714   0.00000  Uiso   1.00
C463   C     0.94590   0.45149   0.12896   0.00000  Uiso   1.00
C464   C     0.90478   0.42437   0.09307   0.00000  Uiso   1.00
C465   C     0.86455   0.35238   0.02584   0.00000  Uiso   1.00
C466   C     0.93373   0.63740   0.19336   0.00000  Uiso   1.00
C467   C     0.99742   0.65157   0.17724   0.00000  Uiso   1.00
C468   C     0.97986   0.71594   0.16343   0.00000  Uiso   1.00
C469   C     0.98307   0.81272   0.13695   0.00000  Uiso   1.00
C470   C     0.87960   0.60598   0.27293   0.00000  Uiso   1.00
C471   C     0.89779   0.59376   0.32373   0.00000  Uiso   1.00
C472   C     0.83466   0.63170   0.37692   0.00000  Uiso   1.00
C473   C     0.75383   0.67971   0.47399   0.00000  Uiso   1.00
C474   C     0.79492   0.65947   0.21434   0.00000  Uiso   1.00
C475   C     0.82729   0.57713   0.16938   0.00000  Uiso   1.00
C476   C     0.78610   0.55011   0.13354   0.00000  Uiso   1.00
C477   C     0.82619   0.47287   0.09533   0.00000  Uiso   1.00
C478   C     0.85528   0.68581   0.19560   0.00000  Uiso   1.00
C479   C     0.83762   0.75019   0.18182   0.00000  Uiso   1.00
C480   C     0.90127   0.76445   0.16568   0.00000  Uiso   1.00
C481   C     0.80115   0.65440   0.27518   0.00000  Uiso   1.00
C482   C     0.73799   0.69237   0.32830   0.00000  Uiso   1.00
C483   C     0.75607   0.68021   0.37917   0.00000  Uiso   1.00
H484   H     0.00042   0.53264   0.20845   0.00000  Uiso   1.00
H485   H     0.00661   0.41405   0.12723   0.00000  Uiso   1.00
H486   H     0.05812   0.61409   0.17551   0.00000  Uiso   1.00
H487   H     0.95850   0.55629   0.32197   0.00000  Uiso   1.00
H488   H     0.97888   0.30392   0.03817   0.00000  Uiso   1.00
H489   H     0.08749   0.72574   0.13998   0.00000  Uiso   1.00
H490   H     0.87743   0.60385   0.44883   0.00000  Uiso   1.00
H491   H     0.73384   0.69717   0.21609   0.00000  Uiso   1.00
H492   H     0.72539   0.58760   0.13529   0.00000  Uiso   1.00
H493   H     0.77691   0.78764   0.18357   0.00000  Uiso   1.00
H494   H     0.67729   0.72984   0.33003   0.00000  Uiso   1.00
H495   H     0.75064   0.44478   0.04471   0.00000  Uiso   1.00
H496   H     0.85925   0.86660   0.14652   0.00000  Uiso   1.00
H497   H     0.64918   0.74471   0.45536   0.00000  Uiso   1.00
O498   O     0.86403   0.29930   0.98814   0.00000  Uiso   1.00
O499   O     0.00651   0.85272   0.12172   0.00000  Uiso   1.00
O500   O     0.73091   0.69280   0.52691   0.00000  Uiso   1.00
N501   N     0.92632   0.35210   0.05081   0.00000  Uiso   1.00
N502   N     0.02786   0.74647   0.14598   0.00000  Uiso   1.00
N503   N     0.83147   0.63253   0.43473   0.00000  Uiso   1.00
N504   N     0.80350   0.42790   0.05432   0.00000  Uiso   1.00
N505   N     0.90505   0.82227   0.14950   0.00000  Uiso   1.00
N506   N     0.70866   0.70833   0.43825   0.00000  Uiso   1.00
C507   C     0.44600   0.04192   0.23824   0.00000  Uiso   1.00
C508   C     0.51939   0.96450   0.19958   0.00000  Uiso   1.00
C509   C     0.57286   0.94802   0.14605   0.00000  Uiso   1.00
C510   C     0.63619   0.87372   0.11744   0.00000  Uiso   1.00
C511   C     0.74870   0.76197   0.05374   0.00000  Uiso   1.00
C512   C     0.37394   0.02636   0.24425   0.00000  Uiso   1.00
C513   C     0.30512   0.06190   0.22828   0.00000  Uiso   1.00
C514   C     0.24600   0.03968   0.23728   0.00000  Uiso   1.00
C515   C     0.13267   0.02402   0.24296   0.00000  Uiso   1.00
C516   C     0.45656   0.06457   0.30130   0.00000  Uiso   1.00
C517   C     0.45718   0.13224   0.33331   0.00000  Uiso   1.00
C518   C     0.46761   0.14220   0.39035   0.00000  Uiso   1.00
C519   C     0.48256   0.18585   0.48461   0.00000  Uiso   1.00
C520   C     0.46339   0.93928   0.28263   0.00000  Uiso   1.00
C521   C     0.52884   0.90875   0.22369   0.00000  Uiso   1.00
C522   C     0.59210   0.83445   0.19516   0.00000  Uiso   1.00
C523   C     0.64566   0.81786   0.14160   0.00000  Uiso   1.00
C524   C     0.38339   0.97061   0.26836   0.00000  Uiso   1.00
C525   C     0.32436   0.94834   0.27739   0.00000  Uiso   1.00
C526   C     0.25546   0.98383   0.26144   0.00000  Uiso   1.00
C527   C     0.46601   0.00881   0.32541   0.00000  Uiso   1.00
C528   C     0.47643   0.01867   0.38242   0.00000  Uiso   1.00
C529   C     0.47707   0.08634   0.41451   0.00000  Uiso   1.00
H530   H     0.43864   0.08533   0.21947   0.00000  Uiso   1.00
H531   H     0.56553   0.99118   0.12740   0.00000  Uiso   1.00
H532   H     0.29782   0.10505   0.20963   0.00000  Uiso   1.00
H533   H     0.44987   0.17537   0.31464   0.00000  Uiso   1.00
H534   H     0.71035   0.86220   0.03595   0.00000  Uiso   1.00
H535   H     0.14587   0.10233   0.20935   0.00000  Uiso   1.00
H536   H     0.46649   0.25062   0.43078   0.00000  Uiso   1.00
H537   H     0.47074   0.89587   0.30140   0.00000  Uiso   1.00
H538   H     0.59940   0.79132   0.21383   0.00000  Uiso   1.00
H539   H     0.33169   0.90519   0.29605   0.00000  Uiso   1.00
H540   H     0.48374   0.97551   0.40106   0.00000  Uiso   1.00
H541   H     0.73784   0.69998   0.10610   0.00000  Uiso   1.00
H542   H     0.17335   0.94011   0.27949   0.00000  Uiso   1.00
H543   H     0.49398   0.08840   0.50093   0.00000  Uiso   1.00
O544   O     0.80814   0.71573   0.01193   0.00000  Uiso   1.00
O545   O     0.06755   0.03077   0.23943   0.00000  Uiso   1.00
O546   O     0.48820   0.22532   0.52994   0.00000  Uiso   1.00
N547   N     0.69918   0.83837   0.06449   0.00000  Uiso   1.00
N548   N     0.17142   0.06287   0.22659   0.00000  Uiso   1.00
N549   N     0.47116   0.20152   0.43362   0.00000  Uiso   1.00
N550   N     0.71397   0.75109   0.10223   0.00000  Uiso   1.00
N551   N     0.18622   0.97558   0.26433   0.00000  Uiso   1.00
N552   N     0.48595   0.11423   0.47136   0.00000  Uiso   1.00
