data_job_05503
_audit_creation_date              2018-12-19
_audit_creation_method            'Materials Studio'
_symmetry_space_group_name_H-M    'P1'
_symmetry_Int_Tables_number       1
_symmetry_cell_setting            triclinic
loop_
_symmetry_equiv_pos_as_xyz
  x,y,z
_cell_length_a                    17.7123
_cell_length_b                    17.6742
_cell_length_c                    11.0776
_cell_angle_alpha                 90.0000
_cell_angle_beta                  77.6512
_cell_angle_gamma                 90.0000
loop_
_atom_site_label
_atom_site_type_symbol
_atom_site_fract_x
_atom_site_fract_y
_atom_site_fract_z
_atom_site_U_iso_or_equiv
_atom_site_adp_type
_atom_site_occupancy
C1     C     0.86756   0.66385   0.84123   0.00000  Uiso   1.00
C2     C     0.86004   0.65059   0.70829   0.00000  Uiso   1.00
C3     C     0.91289   0.61249   0.61822   0.00000  Uiso   1.00
C4     C     0.89548   0.60639   0.50222   0.00000  Uiso   1.00
C5     C     0.89414   0.58113   0.29957   0.00000  Uiso   1.00
C6     C     0.86230   0.74923   0.86110   0.00000  Uiso   1.00
C7     C     0.91705   0.79405   0.89954   0.00000  Uiso   1.00
C8     C     0.90153   0.87099   0.91219   0.00000  Uiso   1.00
C9     C     0.90368   0.99886   0.94686   0.00000  Uiso   1.00
C10    C     0.79473   0.63075   0.92288   0.00000  Uiso   1.00
C11    C     0.79267   0.57598   0.01329   0.00000  Uiso   1.00
C12    C     0.72025   0.55317   0.07798   0.00000  Uiso   1.00
C13    C     0.61749   0.49709   0.20858   0.00000  Uiso   1.00
C14    C     0.74263   0.72078   0.79537   0.00000  Uiso   1.00
C15    C     0.79218   0.68152   0.68338   0.00000  Uiso   1.00
C16    C     0.77467   0.67547   0.56749   0.00000  Uiso   1.00
C17    C     0.82750   0.63736   0.47727   0.00000  Uiso   1.00
C18    C     0.79444   0.78015   0.83619   0.00000  Uiso   1.00
C19    C     0.77883   0.85704   0.84880   0.00000  Uiso   1.00
C20    C     0.83355   0.90197   0.88724   0.00000  Uiso   1.00
C21    C     0.72687   0.66167   0.89797   0.00000  Uiso   1.00
C22    C     0.65445   0.63896   0.96254   0.00000  Uiso   1.00
C23    C     0.65227   0.58415   0.05303   0.00000  Uiso   1.00
H24    H     0.92039   0.63978   0.86063   0.00000  Uiso   1.00
H25    H     0.96540   0.58857   0.63753   0.00000  Uiso   1.00
H26    H     0.96955   0.77011   0.91882   0.00000  Uiso   1.00
H27    H     0.84519   0.55206   0.03254   0.00000  Uiso   1.00
H28    H     0.98540   0.54545   0.37920   0.00000  Uiso   1.00
H29    H     0.99414   0.92823   0.97234   0.00000  Uiso   1.00
H30    H     0.73189   0.46844   0.21215   0.00000  Uiso   1.00
H31    H     0.68980   0.74486   0.77598   0.00000  Uiso   1.00
H32    H     0.72216   0.69941   0.54824   0.00000  Uiso   1.00
H33    H     0.72631   0.88095   0.82952   0.00000  Uiso   1.00
H34    H     0.60195   0.66290   0.94325   0.00000  Uiso   1.00
H35    H     0.78798   0.63542   0.30672   0.00000  Uiso   1.00
H36    H     0.79672   0.01819   0.89987   0.00000  Uiso   1.00
H37    H     0.53447   0.55840   0.13967   0.00000  Uiso   1.00
O38    O     0.91215   0.55866   0.19466   0.00000  Uiso   1.00
O39    O     0.92361   0.06085   0.97286   0.00000  Uiso   1.00
O40    O     0.57955   0.45761   0.28748   0.00000  Uiso   1.00
N41    N     0.93449   0.57285   0.39340   0.00000  Uiso   1.00
N42    N     0.94267   0.93073   0.94793   0.00000  Uiso   1.00
N43    N     0.69749   0.50087   0.17216   0.00000  Uiso   1.00
N44    N     0.82826   0.62126   0.35440   0.00000  Uiso   1.00
N45    N     0.83643   0.97913   0.90893   0.00000  Uiso   1.00
N46    N     0.59125   0.54928   0.13316   0.00000  Uiso   1.00
C47    C     0.13244   0.66385   0.65877   0.00000  Uiso   1.00
C48    C     0.13996   0.65059   0.79171   0.00000  Uiso   1.00
C49    C     0.08711   0.61249   0.88178   0.00000  Uiso   1.00
C50    C     0.10452   0.60639   0.99778   0.00000  Uiso   1.00
C51    C     0.10586   0.58113   0.20043   0.00000  Uiso   1.00
C52    C     0.13770   0.74923   0.63890   0.00000  Uiso   1.00
C53    C     0.08295   0.79405   0.60046   0.00000  Uiso   1.00
C54    C     0.09847   0.87099   0.58781   0.00000  Uiso   1.00
C55    C     0.09632   0.99886   0.55314   0.00000  Uiso   1.00
C56    C     0.20527   0.63075   0.57712   0.00000  Uiso   1.00
C57    C     0.20733   0.57598   0.48671   0.00000  Uiso   1.00
C58    C     0.27975   0.55317   0.42202   0.00000  Uiso   1.00
C59    C     0.38251   0.49709   0.29142   0.00000  Uiso   1.00
C60    C     0.25737   0.72078   0.70463   0.00000  Uiso   1.00
C61    C     0.20782   0.68152   0.81662   0.00000  Uiso   1.00
C62    C     0.22533   0.67547   0.93251   0.00000  Uiso   1.00
C63    C     0.17250   0.63736   0.02273   0.00000  Uiso   1.00
C64    C     0.20556   0.78015   0.66381   0.00000  Uiso   1.00
C65    C     0.22117   0.85704   0.65120   0.00000  Uiso   1.00
C66    C     0.16645   0.90197   0.61276   0.00000  Uiso   1.00
C67    C     0.27313   0.66167   0.60203   0.00000  Uiso   1.00
C68    C     0.34555   0.63896   0.53746   0.00000  Uiso   1.00
C69    C     0.34773   0.58415   0.44697   0.00000  Uiso   1.00
H70    H     0.07961   0.63978   0.63937   0.00000  Uiso   1.00
H71    H     0.03460   0.58857   0.86247   0.00000  Uiso   1.00
H72    H     0.03045   0.77011   0.58118   0.00000  Uiso   1.00
H73    H     0.15481   0.55206   0.46746   0.00000  Uiso   1.00
H74    H     0.01460   0.54545   0.12080   0.00000  Uiso   1.00
H75    H     0.00586   0.92823   0.52766   0.00000  Uiso   1.00
H76    H     0.26811   0.46844   0.28785   0.00000  Uiso   1.00
H77    H     0.31020   0.74486   0.72402   0.00000  Uiso   1.00
H78    H     0.27784   0.69941   0.95176   0.00000  Uiso   1.00
H79    H     0.27369   0.88095   0.67048   0.00000  Uiso   1.00
H80    H     0.39805   0.66290   0.55675   0.00000  Uiso   1.00
H81    H     0.21202   0.63542   0.19328   0.00000  Uiso   1.00
H82    H     0.20328   0.01819   0.60013   0.00000  Uiso   1.00
H83    H     0.46553   0.55840   0.36033   0.00000  Uiso   1.00
O84    O     0.08785   0.55866   0.30534   0.00000  Uiso   1.00
O85    O     0.07639   0.06085   0.52714   0.00000  Uiso   1.00
O86    O     0.42045   0.45761   0.21252   0.00000  Uiso   1.00
N87    N     0.06551   0.57285   0.10660   0.00000  Uiso   1.00
N88    N     0.05733   0.93073   0.55207   0.00000  Uiso   1.00
N89    N     0.30251   0.50087   0.32784   0.00000  Uiso   1.00
N90    N     0.17174   0.62126   0.14560   0.00000  Uiso   1.00
N91    N     0.16357   0.97913   0.59107   0.00000  Uiso   1.00
N92    N     0.40875   0.54928   0.36684   0.00000  Uiso   1.00
C93    C     0.13244   0.33615   0.15877   0.00000  Uiso   1.00
C94    C     0.13996   0.34941   0.29171   0.00000  Uiso   1.00
C95    C     0.08711   0.38751   0.38178   0.00000  Uiso   1.00
C96    C     0.10452   0.39361   0.49778   0.00000  Uiso   1.00
C97    C     0.10586   0.41887   0.70043   0.00000  Uiso   1.00
C98    C     0.13770   0.25077   0.13890   0.00000  Uiso   1.00
C99    C     0.08295   0.20595   0.10046   0.00000  Uiso   1.00
C100   C     0.09847   0.12901   0.08781   0.00000  Uiso   1.00
C101   C     0.09632   0.00114   0.05314   0.00000  Uiso   1.00
C102   C     0.20527   0.36925   0.07712   0.00000  Uiso   1.00
C103   C     0.20733   0.42402   0.98671   0.00000  Uiso   1.00
C104   C     0.27975   0.44683   0.92202   0.00000  Uiso   1.00
C105   C     0.38251   0.50291   0.79142   0.00000  Uiso   1.00
C106   C     0.25737   0.27922   0.20463   0.00000  Uiso   1.00
C107   C     0.20782   0.31848   0.31662   0.00000  Uiso   1.00
C108   C     0.22533   0.32453   0.43251   0.00000  Uiso   1.00
C109   C     0.17250   0.36264   0.52273   0.00000  Uiso   1.00
C110   C     0.20556   0.21985   0.16381   0.00000  Uiso   1.00
C111   C     0.22117   0.14296   0.15120   0.00000  Uiso   1.00
C112   C     0.16645   0.09803   0.11276   0.00000  Uiso   1.00
C113   C     0.27313   0.33833   0.10203   0.00000  Uiso   1.00
C114   C     0.34555   0.36104   0.03746   0.00000  Uiso   1.00
C115   C     0.34773   0.41585   0.94697   0.00000  Uiso   1.00
H116   H     0.07961   0.36022   0.13937   0.00000  Uiso   1.00
H117   H     0.03460   0.41143   0.36247   0.00000  Uiso   1.00
H118   H     0.03045   0.22989   0.08118   0.00000  Uiso   1.00
H119   H     0.15481   0.44794   0.96746   0.00000  Uiso   1.00
H120   H     0.01460   0.45455   0.62080   0.00000  Uiso   1.00
H121   H     0.00586   0.07177   0.02766   0.00000  Uiso   1.00
H122   H     0.26811   0.53156   0.78785   0.00000  Uiso   1.00
H123   H     0.31020   0.25514   0.22402   0.00000  Uiso   1.00
H124   H     0.27784   0.30059   0.45176   0.00000  Uiso   1.00
H125   H     0.27369   0.11905   0.17048   0.00000  Uiso   1.00
H126   H     0.39805   0.33710   0.05675   0.00000  Uiso   1.00
H127   H     0.21202   0.36458   0.69328   0.00000  Uiso   1.00
H128   H     0.20328   0.98181   0.10013   0.00000  Uiso   1.00
H129   H     0.46553   0.44160   0.86033   0.00000  Uiso   1.00
O130   O     0.08785   0.44134   0.80534   0.00000  Uiso   1.00
O131   O     0.07639   0.93915   0.02714   0.00000  Uiso   1.00
O132   O     0.42045   0.54239   0.71252   0.00000  Uiso   1.00
N133   N     0.06551   0.42715   0.60660   0.00000  Uiso   1.00
N134   N     0.05733   0.06927   0.05207   0.00000  Uiso   1.00
N135   N     0.30251   0.49913   0.82784   0.00000  Uiso   1.00
N136   N     0.17174   0.37874   0.64560   0.00000  Uiso   1.00
N137   N     0.16357   0.02087   0.09107   0.00000  Uiso   1.00
N138   N     0.40875   0.45072   0.86684   0.00000  Uiso   1.00
C139   C     0.86756   0.33615   0.34123   0.00000  Uiso   1.00
C140   C     0.86004   0.34941   0.20829   0.00000  Uiso   1.00
C141   C     0.91289   0.38751   0.11822   0.00000  Uiso   1.00
C142   C     0.89548   0.39361   0.00222   0.00000  Uiso   1.00
C143   C     0.89414   0.41887   0.79957   0.00000  Uiso   1.00
C144   C     0.86230   0.25077   0.36110   0.00000  Uiso   1.00
C145   C     0.91705   0.20595   0.39954   0.00000  Uiso   1.00
C146   C     0.90153   0.12901   0.41219   0.00000  Uiso   1.00
C147   C     0.90368   0.00114   0.44686   0.00000  Uiso   1.00
C148   C     0.79473   0.36925   0.42288   0.00000  Uiso   1.00
C149   C     0.79267   0.42402   0.51329   0.00000  Uiso   1.00
C150   C     0.72025   0.44683   0.57798   0.00000  Uiso   1.00
C151   C     0.61749   0.50291   0.70858   0.00000  Uiso   1.00
C152   C     0.74263   0.27922   0.29537   0.00000  Uiso   1.00
C153   C     0.79218   0.31848   0.18338   0.00000  Uiso   1.00
C154   C     0.77467   0.32453   0.06749   0.00000  Uiso   1.00
C155   C     0.82750   0.36264   0.97727   0.00000  Uiso   1.00
C156   C     0.79444   0.21985   0.33619   0.00000  Uiso   1.00
C157   C     0.77883   0.14296   0.34880   0.00000  Uiso   1.00
C158   C     0.83355   0.09803   0.38724   0.00000  Uiso   1.00
C159   C     0.72687   0.33833   0.39797   0.00000  Uiso   1.00
C160   C     0.65445   0.36104   0.46254   0.00000  Uiso   1.00
C161   C     0.65227   0.41585   0.55303   0.00000  Uiso   1.00
H162   H     0.92039   0.36022   0.36063   0.00000  Uiso   1.00
H163   H     0.96540   0.41143   0.13753   0.00000  Uiso   1.00
H164   H     0.96955   0.22989   0.41882   0.00000  Uiso   1.00
H165   H     0.84519   0.44794   0.53254   0.00000  Uiso   1.00
H166   H     0.98540   0.45455   0.87920   0.00000  Uiso   1.00
H167   H     0.99414   0.07177   0.47234   0.00000  Uiso   1.00
H168   H     0.73189   0.53156   0.71215   0.00000  Uiso   1.00
H169   H     0.68980   0.25514   0.27598   0.00000  Uiso   1.00
H170   H     0.72216   0.30059   0.04824   0.00000  Uiso   1.00
H171   H     0.72631   0.11905   0.32952   0.00000  Uiso   1.00
H172   H     0.60195   0.33710   0.44325   0.00000  Uiso   1.00
H173   H     0.78798   0.36458   0.80672   0.00000  Uiso   1.00
H174   H     0.79672   0.98181   0.39987   0.00000  Uiso   1.00
H175   H     0.53447   0.44160   0.63967   0.00000  Uiso   1.00
O176   O     0.91215   0.44134   0.69466   0.00000  Uiso   1.00
O177   O     0.92361   0.93915   0.47286   0.00000  Uiso   1.00
O178   O     0.57955   0.54239   0.78748   0.00000  Uiso   1.00
N179   N     0.93449   0.42715   0.89340   0.00000  Uiso   1.00
N180   N     0.94267   0.06927   0.44793   0.00000  Uiso   1.00
N181   N     0.69749   0.49913   0.67216   0.00000  Uiso   1.00
N182   N     0.82826   0.37874   0.85440   0.00000  Uiso   1.00
N183   N     0.83643   0.02087   0.40893   0.00000  Uiso   1.00
N184   N     0.59125   0.45072   0.63316   0.00000  Uiso   1.00
