data_job_05967
_audit_creation_date              2018-12-19
_audit_creation_method            'Materials Studio'
_symmetry_space_group_name_H-M    'P1'
_symmetry_Int_Tables_number       1
_symmetry_cell_setting            triclinic
loop_
_symmetry_equiv_pos_as_xyz
  x,y,z
_cell_length_a                    16.4655
_cell_length_b                    15.4579
_cell_length_c                    15.0194
_cell_angle_alpha                 82.9727
_cell_angle_beta                  82.5810
_cell_angle_gamma                 83.3117
loop_
_atom_site_label
_atom_site_type_symbol
_atom_site_fract_x
_atom_site_fract_y
_atom_site_fract_z
_atom_site_U_iso_or_equiv
_atom_site_adp_type
_atom_site_occupancy
C1     C     0.61551   0.28036   0.02154   0.00000  Uiso   1.00
C2     C     0.61780   0.30305   0.11712   0.00000  Uiso   1.00
C3     C     0.66836   0.35963   0.14190   0.00000  Uiso   1.00
C4     C     0.66118   0.37168   0.23279   0.00000  Uiso   1.00
C5     C     0.67325   0.41342   0.37151   0.00000  Uiso   1.00
C6     C     0.63188   0.18086   0.02615   0.00000  Uiso   1.00
C7     C     0.69427   0.13472   0.97443   0.00000  Uiso   1.00
C8     C     0.69894   0.04391   0.98874   0.00000  Uiso   1.00
C9     C     0.73283   0.89595   0.98618   0.00000  Uiso   1.00
C10    C     0.52650   0.30288   0.00177   0.00000  Uiso   1.00
C11    C     0.50029   0.35932   0.92954   0.00000  Uiso   1.00
C12    C     0.41624   0.37123   0.92330   0.00000  Uiso   1.00
C13    C     0.28652   0.41273   0.88289   0.00000  Uiso   1.00
C14    C     0.51286   0.20114   0.13889   0.00000  Uiso   1.00
C15    C     0.56205   0.26001   0.18086   0.00000  Uiso   1.00
C16    C     0.55479   0.27198   0.27173   0.00000  Uiso   1.00
C17    C     0.60532   0.32858   0.29664   0.00000  Uiso   1.00
C18    C     0.57613   0.13783   0.08989   0.00000  Uiso   1.00
C19    C     0.58070   0.04707   0.10427   0.00000  Uiso   1.00
C20    C     0.64309   0.00080   0.05259   0.00000  Uiso   1.00
C21    C     0.47075   0.25985   0.06551   0.00000  Uiso   1.00
C22    C     0.38672   0.27167   0.05938   0.00000  Uiso   1.00
C23    C     0.36038   0.32812   0.98716   0.00000  Uiso   1.00
H24    H     0.65891   0.31386   0.97191   0.00000  Uiso   1.00
H25    H     0.71150   0.39292   0.09255   0.00000  Uiso   1.00
H26    H     0.73740   0.16804   0.92511   0.00000  Uiso   1.00
H27    H     0.54345   0.39261   0.88022   0.00000  Uiso   1.00
H28    H     0.74523   0.46157   0.25441   0.00000  Uiso   1.00
H29    H     0.79983   0.98740   0.90133   0.00000  Uiso   1.00
H30    H     0.39085   0.46095   0.80668   0.00000  Uiso   1.00
H31    H     0.46945   0.16763   0.18851   0.00000  Uiso   1.00
H32    H     0.51164   0.23867   0.32104   0.00000  Uiso   1.00
H33    H     0.53754   0.01379   0.15360   0.00000  Uiso   1.00
H34    H     0.34359   0.23836   0.10872   0.00000  Uiso   1.00
H35    H     0.58302   0.33637   0.43987   0.00000  Uiso   1.00
H36    H     0.63762   0.86220   0.08678   0.00000  Uiso   1.00
H37    H     0.22864   0.33575   0.99213   0.00000  Uiso   1.00
O38    O     0.69532   0.44831   0.43042   0.00000  Uiso   1.00
O39    O     0.76694   0.82623   0.96717   0.00000  Uiso   1.00
O40    O     0.23037   0.44752   0.84300   0.00000  Uiso   1.00
N41    N     0.70126   0.42237   0.27987   0.00000  Uiso   1.00
N42    N     0.75231   0.97905   0.94976   0.00000  Uiso   1.00
N43    N     0.36995   0.42176   0.86126   0.00000  Uiso   1.00
N44    N     0.61397   0.35500   0.37966   0.00000  Uiso   1.00
N45    N     0.66503   0.91168   0.04956   0.00000  Uiso   1.00
N46    N     0.28266   0.35439   0.96105   0.00000  Uiso   1.00
C47    C     0.03591   0.61577   0.27986   0.00000  Uiso   1.00
C48    C     0.12323   0.61814   0.30249   0.00000  Uiso   1.00
C49    C     0.14659   0.67161   0.36046   0.00000  Uiso   1.00
C50    C     0.22949   0.66397   0.37219   0.00000  Uiso   1.00
C51    C     0.35634   0.67665   0.41409   0.00000  Uiso   1.00
C52    C     0.04023   0.63376   0.17733   0.00000  Uiso   1.00
C53    C     0.99378   0.70035   0.13007   0.00000  Uiso   1.00
C54    C     0.00681   0.70584   0.03645   0.00000  Uiso   1.00
C55    C     0.00475   0.74274   0.88403   0.00000  Uiso   1.00
C56    C     0.01671   0.52096   0.30339   0.00000  Uiso   1.00
C57    C     0.95048   0.49271   0.36211   0.00000  Uiso   1.00
C58    C     0.94368   0.40323   0.37460   0.00000  Uiso   1.00
C59    C     0.90511   0.26499   0.41791   0.00000  Uiso   1.00
C60    C     0.14160   0.50711   0.19761   0.00000  Uiso   1.00
C61    C     0.18063   0.55912   0.25780   0.00000  Uiso   1.00
C62    C     0.26352   0.55139   0.26946   0.00000  Uiso   1.00
C63    C     0.28700   0.60483   0.32744   0.00000  Uiso   1.00
C64    C     0.09763   0.57474   0.13265   0.00000  Uiso   1.00
C65    C     0.11072   0.58013   0.03907   0.00000  Uiso   1.00
C66    C     0.06431   0.64672   0.99169   0.00000  Uiso   1.00
C67    C     0.07411   0.46194   0.25871   0.00000  Uiso   1.00
C68    C     0.06741   0.37249   0.27111   0.00000  Uiso   1.00
C69    C     0.00119   0.34411   0.32984   0.00000  Uiso   1.00
H70    H     0.99122   0.66173   0.31463   0.00000  Uiso   1.00
H71    H     0.10214   0.71729   0.39502   0.00000  Uiso   1.00
H72    H     0.94936   0.74601   0.16467   0.00000  Uiso   1.00
H73    H     0.90607   0.53840   0.39667   0.00000  Uiso   1.00
H74    H     0.25045   0.75288   0.46440   0.00000  Uiso   1.00
H75    H     0.92828   0.81343   0.97870   0.00000  Uiso   1.00
H76    H     0.83697   0.37565   0.46792   0.00000  Uiso   1.00
H77    H     0.18629   0.46116   0.16282   0.00000  Uiso   1.00
H78    H     0.30793   0.50571   0.23487   0.00000  Uiso   1.00
H79    H     0.15514   0.53444   0.00452   0.00000  Uiso   1.00
H80    H     0.11185   0.32683   0.23652   0.00000  Uiso   1.00
H81    H     0.41747   0.58115   0.33442   0.00000  Uiso   1.00
H82    H     0.09529   0.64171   0.84872   0.00000  Uiso   1.00
H83    H     0.00400   0.20393   0.33794   0.00000  Uiso   1.00
O84    O     0.41046   0.69996   0.44953   0.00000  Uiso   1.00
O85    O     0.98777   0.77940   0.81231   0.00000  Uiso   1.00
O86    O     0.86799   0.20504   0.45416   0.00000  Uiso   1.00
N87    N     0.27306   0.70633   0.42394   0.00000  Uiso   1.00
N88    N     0.97186   0.76296   0.96983   0.00000  Uiso   1.00
N89    N     0.88649   0.35367   0.42720   0.00000  Uiso   1.00
N90    N     0.36294   0.61393   0.35400   0.00000  Uiso   1.00
N91    N     0.06173   0.67056   0.89989   0.00000  Uiso   1.00
N92    N     0.97636   0.26127   0.35726   0.00000  Uiso   1.00
C93    C     0.28259   0.02621   0.61676   0.00000  Uiso   1.00
C94    C     0.30441   0.11909   0.61884   0.00000  Uiso   1.00
C95    C     0.35771   0.14367   0.67341   0.00000  Uiso   1.00
C96    C     0.36952   0.23190   0.66527   0.00000  Uiso   1.00
C97    C     0.40946   0.36679   0.67775   0.00000  Uiso   1.00
C98    C     0.18906   0.03064   0.63605   0.00000  Uiso   1.00
C99    C     0.14538   0.98083   0.70508   0.00000  Uiso   1.00
C100   C     0.06008   0.99459   0.71142   0.00000  Uiso   1.00
C101   C     0.92095   0.99211   0.75057   0.00000  Uiso   1.00
C102   C     0.30371   0.00634   0.51899   0.00000  Uiso   1.00
C103   C     0.35641   0.93608   0.48960   0.00000  Uiso   1.00
C104   C     0.36763   0.92937   0.39738   0.00000  Uiso   1.00
C105   C     0.40651   0.88916   0.25479   0.00000  Uiso   1.00
C106   C     0.20878   0.13920   0.50526   0.00000  Uiso   1.00
C107   C     0.26432   0.18046   0.55828   0.00000  Uiso   1.00
C108   C     0.27604   0.26868   0.55005   0.00000  Uiso   1.00
C109   C     0.32935   0.29338   0.60460   0.00000  Uiso   1.00
C110   C     0.14897   0.09201   0.57549   0.00000  Uiso   1.00
C111   C     0.06371   0.10584   0.58172   0.00000  Uiso   1.00
C112   C     0.01991   0.05608   0.65075   0.00000  Uiso   1.00
C113   C     0.26362   0.06771   0.45843   0.00000  Uiso   1.00
C114   C     0.27475   0.06110   0.36624   0.00000  Uiso   1.00
C115   C     0.32746   0.99085   0.33672   0.00000  Uiso   1.00
H116   H     0.31380   0.97843   0.66391   0.00000  Uiso   1.00
H117   H     0.38872   0.09616   0.72028   0.00000  Uiso   1.00
H118   H     0.17642   0.93334   0.75193   0.00000  Uiso   1.00
H119   H     0.38743   0.88861   0.53649   0.00000  Uiso   1.00
H120   H     0.45408   0.25375   0.75608   0.00000  Uiso   1.00
H121   H     0.00644   0.91042   0.82281   0.00000  Uiso   1.00
H122   H     0.45138   0.81608   0.36850   0.00000  Uiso   1.00
H123   H     0.17756   0.18698   0.45811   0.00000  Uiso   1.00
H124   H     0.24501   0.31616   0.50318   0.00000  Uiso   1.00
H125   H     0.03271   0.15334   0.53484   0.00000  Uiso   1.00
H126   H     0.24371   0.10860   0.31940   0.00000  Uiso   1.00
H127   H     0.33743   0.43231   0.57988   0.00000  Uiso   1.00
H128   H     0.88979   0.08897   0.64661   0.00000  Uiso   1.00
H129   H     0.33473   0.99464   0.19230   0.00000  Uiso   1.00
O130   O     0.44256   0.42424   0.70137   0.00000  Uiso   1.00
O131   O     0.85528   0.97379   0.78890   0.00000  Uiso   1.00
O132   O     0.43903   0.85003   0.19286   0.00000  Uiso   1.00
N133   N     0.41739   0.27804   0.70842   0.00000  Uiso   1.00
N134   N     0.99887   0.95706   0.77082   0.00000  Uiso   1.00
N135   N     0.41483   0.86885   0.34608   0.00000  Uiso   1.00
N136   N     0.35462   0.37412   0.61360   0.00000  Uiso   1.00
N137   N     0.93610   0.05314   0.67600   0.00000  Uiso   1.00
N138   N     0.35207   0.96493   0.25126   0.00000  Uiso   1.00
C139   C     0.38449   0.71964   0.97846   0.00000  Uiso   1.00
C140   C     0.38220   0.69695   0.88288   0.00000  Uiso   1.00
C141   C     0.33164   0.64036   0.85810   0.00000  Uiso   1.00
C142   C     0.33882   0.62832   0.76721   0.00000  Uiso   1.00
C143   C     0.32675   0.58658   0.62849   0.00000  Uiso   1.00
C144   C     0.36812   0.81914   0.97385   0.00000  Uiso   1.00
C145   C     0.30573   0.86528   0.02557   0.00000  Uiso   1.00
C146   C     0.30106   0.95609   0.01126   0.00000  Uiso   1.00
C147   C     0.26717   0.10405   0.01382   0.00000  Uiso   1.00
C148   C     0.47350   0.69712   0.99823   0.00000  Uiso   1.00
C149   C     0.49971   0.64068   0.07046   0.00000  Uiso   1.00
C150   C     0.58376   0.62877   0.07670   0.00000  Uiso   1.00
C151   C     0.71348   0.58727   0.11711   0.00000  Uiso   1.00
C152   C     0.48714   0.79886   0.86111   0.00000  Uiso   1.00
C153   C     0.43795   0.73999   0.81914   0.00000  Uiso   1.00
C154   C     0.44521   0.72802   0.72827   0.00000  Uiso   1.00
C155   C     0.39468   0.67142   0.70336   0.00000  Uiso   1.00
C156   C     0.42387   0.86217   0.91011   0.00000  Uiso   1.00
C157   C     0.41930   0.95293   0.89573   0.00000  Uiso   1.00
C158   C     0.35691   0.99920   0.94741   0.00000  Uiso   1.00
C159   C     0.52925   0.74015   0.93449   0.00000  Uiso   1.00
C160   C     0.61328   0.72833   0.94062   0.00000  Uiso   1.00
C161   C     0.63962   0.67188   0.01284   0.00000  Uiso   1.00
H162   H     0.34109   0.68614   0.02809   0.00000  Uiso   1.00
H163   H     0.28850   0.60708   0.90745   0.00000  Uiso   1.00
H164   H     0.26260   0.83196   0.07489   0.00000  Uiso   1.00
H165   H     0.45655   0.60739   0.11978   0.00000  Uiso   1.00
H166   H     0.25477   0.53843   0.74559   0.00000  Uiso   1.00
H167   H     0.20017   0.01260   0.09867   0.00000  Uiso   1.00
H168   H     0.60915   0.53905   0.19332   0.00000  Uiso   1.00
H169   H     0.53055   0.83237   0.81148   0.00000  Uiso   1.00
H170   H     0.48836   0.76133   0.67896   0.00000  Uiso   1.00
H171   H     0.46246   0.98621   0.84640   0.00000  Uiso   1.00
H172   H     0.65641   0.76164   0.89128   0.00000  Uiso   1.00
H173   H     0.41698   0.66363   0.56013   0.00000  Uiso   1.00
H174   H     0.36238   0.13780   0.91322   0.00000  Uiso   1.00
H175   H     0.77136   0.66425   0.00787   0.00000  Uiso   1.00
O176   O     0.30468   0.55169   0.56958   0.00000  Uiso   1.00
O177   O     0.23306   0.17377   0.03283   0.00000  Uiso   1.00
O178   O     0.76963   0.55248   0.15700   0.00000  Uiso   1.00
N179   N     0.29874   0.57763   0.72013   0.00000  Uiso   1.00
N180   N     0.24769   0.02095   0.05024   0.00000  Uiso   1.00
N181   N     0.63005   0.57824   0.13874   0.00000  Uiso   1.00
N182   N     0.38603   0.64500   0.62034   0.00000  Uiso   1.00
N183   N     0.33497   0.08832   0.95044   0.00000  Uiso   1.00
N184   N     0.71734   0.64561   0.03895   0.00000  Uiso   1.00
C185   C     0.96409   0.38423   0.72014   0.00000  Uiso   1.00
C186   C     0.87677   0.38186   0.69751   0.00000  Uiso   1.00
C187   C     0.85341   0.32839   0.63954   0.00000  Uiso   1.00
C188   C     0.77051   0.33603   0.62781   0.00000  Uiso   1.00
C189   C     0.64366   0.32335   0.58591   0.00000  Uiso   1.00
C190   C     0.95977   0.36624   0.82267   0.00000  Uiso   1.00
C191   C     0.00622   0.29965   0.86993   0.00000  Uiso   1.00
C192   C     0.99319   0.29416   0.96355   0.00000  Uiso   1.00
C193   C     0.99525   0.25726   0.11597   0.00000  Uiso   1.00
C194   C     0.98329   0.47904   0.69661   0.00000  Uiso   1.00
C195   C     0.04952   0.50729   0.63789   0.00000  Uiso   1.00
C196   C     0.05632   0.59677   0.62540   0.00000  Uiso   1.00
C197   C     0.09489   0.73501   0.58208   0.00000  Uiso   1.00
C198   C     0.85840   0.49289   0.80239   0.00000  Uiso   1.00
C199   C     0.81937   0.44088   0.74220   0.00000  Uiso   1.00
C200   C     0.73648   0.44861   0.73054   0.00000  Uiso   1.00
C201   C     0.71300   0.39517   0.67256   0.00000  Uiso   1.00
C202   C     0.90237   0.42526   0.86735   0.00000  Uiso   1.00
C203   C     0.88928   0.41987   0.96093   0.00000  Uiso   1.00
C204   C     0.93569   0.35328   0.00831   0.00000  Uiso   1.00
C205   C     0.92589   0.53806   0.74129   0.00000  Uiso   1.00
C206   C     0.93259   0.62751   0.72889   0.00000  Uiso   1.00
C207   C     0.99881   0.65589   0.67016   0.00000  Uiso   1.00
H208   H     0.00878   0.33827   0.68537   0.00000  Uiso   1.00
H209   H     0.89786   0.28271   0.60498   0.00000  Uiso   1.00
H210   H     0.05064   0.25399   0.83533   0.00000  Uiso   1.00
H211   H     0.09393   0.46160   0.60333   0.00000  Uiso   1.00
H212   H     0.74955   0.24712   0.53560   0.00000  Uiso   1.00
H213   H     0.07172   0.18657   0.02130   0.00000  Uiso   1.00
H214   H     0.16303   0.62435   0.53208   0.00000  Uiso   1.00
H215   H     0.81371   0.53884   0.83718   0.00000  Uiso   1.00
H216   H     0.69207   0.49429   0.76513   0.00000  Uiso   1.00
H217   H     0.84486   0.46556   0.99548   0.00000  Uiso   1.00
H218   H     0.88815   0.67317   0.76348   0.00000  Uiso   1.00
H219   H     0.58253   0.41885   0.66558   0.00000  Uiso   1.00
H220   H     0.90471   0.35829   0.15128   0.00000  Uiso   1.00
H221   H     0.99600   0.79607   0.66206   0.00000  Uiso   1.00
O222   O     0.58954   0.30004   0.55047   0.00000  Uiso   1.00
O223   O     0.01223   0.22060   0.18769   0.00000  Uiso   1.00
O224   O     0.13201   0.79496   0.54584   0.00000  Uiso   1.00
N225   N     0.72694   0.29367   0.57606   0.00000  Uiso   1.00
N226   N     0.02814   0.23704   0.03017   0.00000  Uiso   1.00
N227   N     0.11351   0.64633   0.57280   0.00000  Uiso   1.00
N228   N     0.63706   0.38607   0.64600   0.00000  Uiso   1.00
N229   N     0.93827   0.32944   0.10011   0.00000  Uiso   1.00
N230   N     0.02364   0.73873   0.64274   0.00000  Uiso   1.00
C231   C     0.71741   0.97379   0.38324   0.00000  Uiso   1.00
C232   C     0.69559   0.88090   0.38116   0.00000  Uiso   1.00
C233   C     0.64229   0.85633   0.32659   0.00000  Uiso   1.00
C234   C     0.63048   0.76810   0.33473   0.00000  Uiso   1.00
C235   C     0.59054   0.63321   0.32225   0.00000  Uiso   1.00
C236   C     0.81094   0.96936   0.36395   0.00000  Uiso   1.00
C237   C     0.85462   0.01917   0.29492   0.00000  Uiso   1.00
C238   C     0.93992   0.00541   0.28858   0.00000  Uiso   1.00
C239   C     0.07905   0.00789   0.24943   0.00000  Uiso   1.00
C240   C     0.69629   0.99366   0.48101   0.00000  Uiso   1.00
C241   C     0.64359   0.06392   0.51040   0.00000  Uiso   1.00
C242   C     0.63237   0.07063   0.60261   0.00000  Uiso   1.00
C243   C     0.59349   0.11084   0.74521   0.00000  Uiso   1.00
C244   C     0.79122   0.86080   0.49474   0.00000  Uiso   1.00
C245   C     0.73568   0.81954   0.44172   0.00000  Uiso   1.00
C246   C     0.72396   0.73132   0.44995   0.00000  Uiso   1.00
C247   C     0.67065   0.70662   0.39540   0.00000  Uiso   1.00
C248   C     0.85103   0.90799   0.42451   0.00000  Uiso   1.00
C249   C     0.93629   0.89416   0.41828   0.00000  Uiso   1.00
C250   C     0.98009   0.94392   0.34925   0.00000  Uiso   1.00
C251   C     0.73638   0.93229   0.54157   0.00000  Uiso   1.00
C252   C     0.72525   0.93890   0.63376   0.00000  Uiso   1.00
C253   C     0.67254   0.00915   0.66328   0.00000  Uiso   1.00
H254   H     0.68620   0.02157   0.33609   0.00000  Uiso   1.00
H255   H     0.61128   0.90384   0.27972   0.00000  Uiso   1.00
H256   H     0.82357   0.06666   0.24807   0.00000  Uiso   1.00
H257   H     0.61257   0.11139   0.46351   0.00000  Uiso   1.00
H258   H     0.54592   0.74625   0.24392   0.00000  Uiso   1.00
H259   H     0.99356   0.08958   0.17719   0.00000  Uiso   1.00
H260   H     0.54862   0.18392   0.63150   0.00000  Uiso   1.00
H261   H     0.82244   0.81302   0.54189   0.00000  Uiso   1.00
H262   H     0.75499   0.68384   0.49682   0.00000  Uiso   1.00
H263   H     0.96729   0.84666   0.46516   0.00000  Uiso   1.00
H264   H     0.75629   0.89140   0.68060   0.00000  Uiso   1.00
H265   H     0.66257   0.56769   0.42012   0.00000  Uiso   1.00
H266   H     0.11021   0.91103   0.35339   0.00000  Uiso   1.00
H267   H     0.66527   0.00536   0.80770   0.00000  Uiso   1.00
O268   O     0.55744   0.57575   0.29863   0.00000  Uiso   1.00
O269   O     0.14472   0.02621   0.21110   0.00000  Uiso   1.00
O270   O     0.56097   0.14997   0.80714   0.00000  Uiso   1.00
N271   N     0.58261   0.72196   0.29158   0.00000  Uiso   1.00
N272   N     0.00113   0.04294   0.22918   0.00000  Uiso   1.00
N273   N     0.58517   0.13115   0.65392   0.00000  Uiso   1.00
N274   N     0.64538   0.62588   0.38640   0.00000  Uiso   1.00
N275   N     0.06390   0.94686   0.32400   0.00000  Uiso   1.00
N276   N     0.64793   0.03507   0.74874   0.00000  Uiso   1.00
