data_job_06448
_audit_creation_date              2018-12-19
_audit_creation_method            'Materials Studio'
_symmetry_space_group_name_H-M    'P1'
_symmetry_Int_Tables_number       1
_symmetry_cell_setting            triclinic
loop_
_symmetry_equiv_pos_as_xyz
  x,y,z
_cell_length_a                    16.5324
_cell_length_b                    15.9783
_cell_length_c                    15.7111
_cell_angle_alpha                 88.7585
_cell_angle_beta                  88.4063
_cell_angle_gamma                 88.6934
loop_
_atom_site_label
_atom_site_type_symbol
_atom_site_fract_x
_atom_site_fract_y
_atom_site_fract_z
_atom_site_U_iso_or_equiv
_atom_site_adp_type
_atom_site_occupancy
C1     C     0.79570   0.73813   0.17343   0.00000  Uiso   1.00
C2     C     0.85217   0.68016   0.22378   0.00000  Uiso   1.00
C3     C     0.93558   0.68671   0.22699   0.00000  Uiso   1.00
C4     C     0.97639   0.62753   0.27671   0.00000  Uiso   1.00
C5     C     0.07035   0.54713   0.34803   0.00000  Uiso   1.00
C6     C     0.74965   0.68194   0.11529   0.00000  Uiso   1.00
C7     C     0.74685   0.69000   0.02728   0.00000  Uiso   1.00
C8     C     0.70135   0.63232   0.98567   0.00000  Uiso   1.00
C9     C     0.63609   0.55473   0.88857   0.00000  Uiso   1.00
C10    C     0.73329   0.77227   0.23780   0.00000  Uiso   1.00
C11    C     0.71672   0.85629   0.25279   0.00000  Uiso   1.00
C12    C     0.65743   0.87468   0.31431   0.00000  Uiso   1.00
C13    C     0.56678   0.93735   0.40743   0.00000  Uiso   1.00
C14    C     0.71984   0.62138   0.25601   0.00000  Uiso   1.00
C15    C     0.81096   0.61674   0.26864   0.00000  Uiso   1.00
C16    C     0.85166   0.55753   0.31836   0.00000  Uiso   1.00
C17    C     0.93512   0.56400   0.32165   0.00000  Uiso   1.00
C18    C     0.70844   0.61852   0.16014   0.00000  Uiso   1.00
C19    C     0.66293   0.56083   0.11865   0.00000  Uiso   1.00
C20    C     0.66007   0.56879   0.03061   0.00000  Uiso   1.00
C21    C     0.69209   0.70886   0.28266   0.00000  Uiso   1.00
C22    C     0.63280   0.72712   0.34416   0.00000  Uiso   1.00
C23    C     0.61615   0.81115   0.35925   0.00000  Uiso   1.00
H24    H     0.82777   0.78750   0.13851   0.00000  Uiso   1.00
H25    H     0.96745   0.73579   0.19226   0.00000  Uiso   1.00
H26    H     0.77874   0.73908   0.99259   0.00000  Uiso   1.00
H27    H     0.74862   0.90535   0.21807   0.00000  Uiso   1.00
H28    H     0.10414   0.65047   0.27162   0.00000  Uiso   1.00
H29    H     0.70622   0.65744   0.85060   0.00000  Uiso   1.00
H30    H     0.64270   0.00805   0.32606   0.00000  Uiso   1.00
H31    H     0.68776   0.57200   0.29094   0.00000  Uiso   1.00
H32    H     0.81975   0.50847   0.35307   0.00000  Uiso   1.00
H33    H     0.63105   0.51176   0.15339   0.00000  Uiso   1.00
H34    H     0.60093   0.67803   0.37886   0.00000  Uiso   1.00
H35    H     0.98427   0.46597   0.40213   0.00000  Uiso   1.00
H36    H     0.58634   0.47294   0.98111   0.00000  Uiso   1.00
H37    H     0.52283   0.82354   0.45657   0.00000  Uiso   1.00
O38    O     0.13356   0.52030   0.37498   0.00000  Uiso   1.00
O39    O     0.61149   0.52945   0.82261   0.00000  Uiso   1.00
O40    O     0.52816   0.98944   0.44640   0.00000  Uiso   1.00
N41    N     0.05781   0.61578   0.29383   0.00000  Uiso   1.00
N42    N     0.68579   0.62229   0.90019   0.00000  Uiso   1.00
N43    N     0.62639   0.95008   0.34469   0.00000  Uiso   1.00
N44    N     0.99331   0.51650   0.36405   0.00000  Uiso   1.00
N45    N     0.62129   0.52301   0.97042   0.00000  Uiso   1.00
N46    N     0.56189   0.85080   0.41492   0.00000  Uiso   1.00
C47    C     0.17691   0.79827   0.73940   0.00000  Uiso   1.00
C48    C     0.22516   0.85663   0.68021   0.00000  Uiso   1.00
C49    C     0.22883   0.94290   0.68700   0.00000  Uiso   1.00
C50    C     0.27635   0.98505   0.62656   0.00000  Uiso   1.00
C51    C     0.34480   0.08215   0.54450   0.00000  Uiso   1.00
C52    C     0.12129   0.75081   0.68256   0.00000  Uiso   1.00
C53    C     0.03762   0.74811   0.69133   0.00000  Uiso   1.00
C54    C     0.99770   0.70117   0.63286   0.00000  Uiso   1.00
C55    C     0.90489   0.63394   0.55448   0.00000  Uiso   1.00
C56    C     0.23766   0.73355   0.77360   0.00000  Uiso   1.00
C57    C     0.25182   0.71632   0.85892   0.00000  Uiso   1.00
C58    C     0.30987   0.65484   0.87710   0.00000  Uiso   1.00
C59    C     0.39774   0.56081   0.94007   0.00000  Uiso   1.00
C60    C     0.25480   0.71971   0.61999   0.00000  Uiso   1.00
C61    C     0.26746   0.81395   0.61535   0.00000  Uiso   1.00
C62    C     0.31500   0.85598   0.55488   0.00000  Uiso   1.00
C63    C     0.31874   0.94230   0.56158   0.00000  Uiso   1.00
C64    C     0.16359   0.70814   0.61770   0.00000  Uiso   1.00
C65    C     0.12379   0.66119   0.55921   0.00000  Uiso   1.00
C66    C     0.04008   0.65842   0.56789   0.00000  Uiso   1.00
C67    C     0.27997   0.69088   0.70874   0.00000  Uiso   1.00
C68    C     0.33800   0.62941   0.72680   0.00000  Uiso   1.00
C69    C     0.35225   0.61209   0.81213   0.00000  Uiso   1.00
H70    H     0.14397   0.83149   0.78990   0.00000  Uiso   1.00
H71    H     0.19607   0.97590   0.73720   0.00000  Uiso   1.00
H72    H     0.00490   0.78113   0.74153   0.00000  Uiso   1.00
H73    H     0.21907   0.74935   0.90909   0.00000  Uiso   1.00
H74    H     0.27247   0.11719   0.65016   0.00000  Uiso   1.00
H75    H     0.86936   0.70648   0.65931   0.00000  Uiso   1.00
H76    H     0.32099   0.63947   0.01264   0.00000  Uiso   1.00
H77    H     0.28774   0.68649   0.56949   0.00000  Uiso   1.00
H78    H     0.34773   0.82294   0.50470   0.00000  Uiso   1.00
H79    H     0.15655   0.62817   0.50903   0.00000  Uiso   1.00
H80    H     0.37072   0.59640   0.67659   0.00000  Uiso   1.00
H81    H     0.39555   0.99304   0.46145   0.00000  Uiso   1.00
H82    H     0.99245   0.58233   0.47060   0.00000  Uiso   1.00
H83    H     0.44408   0.51533   0.82393   0.00000  Uiso   1.00
O84    O     0.37086   0.14750   0.51714   0.00000  Uiso   1.00
O85    O     0.84201   0.60865   0.52916   0.00000  Uiso   1.00
O86    O     0.43454   0.52074   0.99272   0.00000  Uiso   1.00
N87    N     0.29322   0.06924   0.61465   0.00000  Uiso   1.00
N88    N     0.91634   0.68526   0.62319   0.00000  Uiso   1.00
N89    N     0.33856   0.62260   0.95353   0.00000  Uiso   1.00
N90    N     0.35945   0.00244   0.51310   0.00000  Uiso   1.00
N91    N     0.98257   0.61846   0.52165   0.00000  Uiso   1.00
N92    N     0.40479   0.55580   0.85199   0.00000  Uiso   1.00
C93    C     0.73690   0.17485   0.79911   0.00000  Uiso   1.00
C94    C     0.68102   0.22485   0.85893   0.00000  Uiso   1.00
C95    C     0.68754   0.22856   0.94663   0.00000  Uiso   1.00
C96    C     0.63046   0.27782   0.98998   0.00000  Uiso   1.00
C97    C     0.55300   0.34873   0.08939   0.00000  Uiso   1.00
C98    C     0.68244   0.11747   0.75111   0.00000  Uiso   1.00
C99    C     0.69016   0.03090   0.74816   0.00000  Uiso   1.00
C100   C     0.63427   0.98977   0.70073   0.00000  Uiso   1.00
C101   C     0.55905   0.89399   0.63271   0.00000  Uiso   1.00
C102   C     0.76982   0.23766   0.73317   0.00000  Uiso   1.00
C103   C     0.85101   0.25214   0.71511   0.00000  Uiso   1.00
C104   C     0.86870   0.31220   0.65256   0.00000  Uiso   1.00
C105   C     0.92915   0.40303   0.55668   0.00000  Uiso   1.00
C106   C     0.62393   0.25574   0.72013   0.00000  Uiso   1.00
C107   C     0.61966   0.26878   0.81603   0.00000  Uiso   1.00
C108   C     0.56255   0.31805   0.85926   0.00000  Uiso   1.00
C109   C     0.56899   0.32184   0.94701   0.00000  Uiso   1.00
C110   C     0.62108   0.16140   0.70822   0.00000  Uiso   1.00
C111   C     0.56517   0.12039   0.66078   0.00000  Uiso   1.00
C112   C     0.57280   0.03379   0.65776   0.00000  Uiso   1.00
C113   C     0.70846   0.28160   0.69027   0.00000  Uiso   1.00
C114   C     0.72602   0.34164   0.62774   0.00000  Uiso   1.00
C115   C     0.80722   0.35621   0.60959   0.00000  Uiso   1.00
H116   H     0.78467   0.14064   0.83250   0.00000  Uiso   1.00
H117   H     0.73503   0.19454   0.97980   0.00000  Uiso   1.00
H118   H     0.73766   0.99692   0.78135   0.00000  Uiso   1.00
H119   H     0.89848   0.21813   0.74831   0.00000  Uiso   1.00
H120   H     0.65292   0.27365   0.12420   0.00000  Uiso   1.00
H121   H     0.65847   0.85696   0.70573   0.00000  Uiso   1.00
H122   H     0.99760   0.32342   0.63606   0.00000  Uiso   1.00
H123   H     0.57615   0.28994   0.68673   0.00000  Uiso   1.00
H124   H     0.51507   0.35204   0.82604   0.00000  Uiso   1.00
H125   H     0.51769   0.15442   0.62759   0.00000  Uiso   1.00
H126   H     0.67852   0.37563   0.59455   0.00000  Uiso   1.00
H127   H     0.47439   0.40148   0.99941   0.00000  Uiso   1.00
H128   H     0.47994   0.98478   0.58093   0.00000  Uiso   1.00
H129   H     0.81907   0.45125   0.51126   0.00000  Uiso   1.00
O130   O     0.52722   0.37570   0.15608   0.00000  Uiso   1.00
O131   O     0.53451   0.82901   0.60705   0.00000  Uiso   1.00
O132   O     0.97944   0.44100   0.51565   0.00000  Uiso   1.00
N133   N     0.61930   0.29523   0.07571   0.00000  Uiso   1.00
N134   N     0.62448   0.90564   0.68448   0.00000  Uiso   1.00
N135   N     0.94154   0.34173   0.61933   0.00000  Uiso   1.00
N136   N     0.52323   0.36401   0.00856   0.00000  Uiso   1.00
N137   N     0.52841   0.97442   0.61733   0.00000  Uiso   1.00
N138   N     0.84547   0.41051   0.55217   0.00000  Uiso   1.00
C139   C     0.29553   0.67472   0.23869   0.00000  Uiso   1.00
C140   C     0.35220   0.72433   0.17946   0.00000  Uiso   1.00
C141   C     0.43560   0.72778   0.18583   0.00000  Uiso   1.00
C142   C     0.47661   0.77671   0.12542   0.00000  Uiso   1.00
C143   C     0.57083   0.84703   0.04322   0.00000  Uiso   1.00
C144   C     0.24948   0.61731   0.18180   0.00000  Uiso   1.00
C145   C     0.24652   0.53078   0.19014   0.00000  Uiso   1.00
C146   C     0.20104   0.48962   0.13171   0.00000  Uiso   1.00
C147   C     0.13576   0.39379   0.05318   0.00000  Uiso   1.00
C148   C     0.23318   0.73786   0.27354   0.00000  Uiso   1.00
C149   C     0.21649   0.75267   0.35902   0.00000  Uiso   1.00
C150   C     0.15727   0.81299   0.37782   0.00000  Uiso   1.00
C151   C     0.06667   0.90434   0.44173   0.00000  Uiso   1.00
C152   C     0.22003   0.75548   0.12009   0.00000  Uiso   1.00
C153   C     0.31118   0.76819   0.11504   0.00000  Uiso   1.00
C154   C     0.35207   0.81713   0.05460   0.00000  Uiso   1.00
C155   C     0.43552   0.82065   0.06088   0.00000  Uiso   1.00
C156   C     0.20847   0.66117   0.11738   0.00000  Uiso   1.00
C157   C     0.16298   0.62013   0.05892   0.00000  Uiso   1.00
C158   C     0.15996   0.53356   0.06717   0.00000  Uiso   1.00
C159   C     0.19216   0.78173   0.20911   0.00000  Uiso   1.00
C160   C     0.13296   0.84203   0.22779   0.00000  Uiso   1.00
C161   C     0.11618   0.85693   0.31328   0.00000  Uiso   1.00
H162   H     0.32746   0.64056   0.28885   0.00000  Uiso   1.00
H163   H     0.46732   0.69382   0.23569   0.00000  Uiso   1.00
H164   H     0.27826   0.49685   0.24001   0.00000  Uiso   1.00
H165   H     0.24824   0.71871   0.40885   0.00000  Uiso   1.00
H166   H     0.60430   0.77218   0.14833   0.00000  Uiso   1.00
H167   H     0.20563   0.35686   0.15745   0.00000  Uiso   1.00
H168   H     0.14232   0.82470   0.51350   0.00000  Uiso   1.00
H169   H     0.18809   0.78963   0.06993   0.00000  Uiso   1.00
H170   H     0.32031   0.85107   0.00476   0.00000  Uiso   1.00
H171   H     0.13125   0.65410   0.00907   0.00000  Uiso   1.00
H172   H     0.10123   0.87596   0.17792   0.00000  Uiso   1.00
H173   H     0.48499   0.89981   0.96089   0.00000  Uiso   1.00
H174   H     0.08631   0.48449   0.97002   0.00000  Uiso   1.00
H175   H     0.02300   0.95233   0.32606   0.00000  Uiso   1.00
O176   O     0.63414   0.87369   0.01567   0.00000  Uiso   1.00
O177   O     0.11109   0.32882   0.02766   0.00000  Uiso   1.00
O178   O     0.02803   0.94261   0.49477   0.00000  Uiso   1.00
N179   N     0.55807   0.79380   0.11317   0.00000  Uiso   1.00
N180   N     0.18535   0.40550   0.12169   0.00000  Uiso   1.00
N181   N     0.12615   0.84287   0.45456   0.00000  Uiso   1.00
N182   N     0.49387   0.86247   0.01231   0.00000  Uiso   1.00
N183   N     0.12115   0.47418   0.02083   0.00000  Uiso   1.00
N184   N     0.06194   0.91155   0.35371   0.00000  Uiso   1.00
C185   C     0.67687   0.23863   0.29964   0.00000  Uiso   1.00
C186   C     0.72491   0.18068   0.35891   0.00000  Uiso   1.00
C187   C     0.72843   0.18751   0.44663   0.00000  Uiso   1.00
C188   C     0.77578   0.12830   0.48943   0.00000  Uiso   1.00
C189   C     0.84391   0.04800   0.58808   0.00000  Uiso   1.00
C190   C     0.62123   0.18247   0.25165   0.00000  Uiso   1.00
C191   C     0.53757   0.19081   0.24917   0.00000  Uiso   1.00
C192   C     0.49764   0.13311   0.20167   0.00000  Uiso   1.00
C193   C     0.40481   0.05562   0.13374   0.00000  Uiso   1.00
C194   C     0.73779   0.27235   0.23355   0.00000  Uiso   1.00
C195   C     0.75213   0.35627   0.21584   0.00000  Uiso   1.00
C196   C     0.81032   0.37425   0.15308   0.00000  Uiso   1.00
C197   C     0.89847   0.43631   0.05706   0.00000  Uiso   1.00
C198   C     0.75468   0.12135   0.21966   0.00000  Uiso   1.00
C199   C     0.76717   0.11698   0.31547   0.00000  Uiso   1.00
C200   C     0.81453   0.05775   0.35815   0.00000  Uiso   1.00
C201   C     0.81812   0.06449   0.44591   0.00000  Uiso   1.00
C202   C     0.66349   0.11877   0.20821   0.00000  Uiso   1.00
C203   C     0.62367   0.06105   0.16069   0.00000  Uiso   1.00
C204   C     0.53998   0.06930   0.15815   0.00000  Uiso   1.00
C205   C     0.78006   0.20865   0.19011   0.00000  Uiso   1.00
C206   C     0.83823   0.22651   0.12736   0.00000  Uiso   1.00
C207   C     0.85266   0.31043   0.10956   0.00000  Uiso   1.00
H208   H     0.64396   0.28822   0.33346   0.00000  Uiso   1.00
H209   H     0.69571   0.23681   0.48023   0.00000  Uiso   1.00
H210   H     0.50488   0.24011   0.28279   0.00000  Uiso   1.00
H211   H     0.71941   0.40554   0.24947   0.00000  Uiso   1.00
H212   H     0.77170   0.15170   0.62379   0.00000  Uiso   1.00
H213   H     0.36934   0.15868   0.20747   0.00000  Uiso   1.00
H214   H     0.82171   0.50753   0.13720   0.00000  Uiso   1.00
H215   H     0.78759   0.07175   0.18584   0.00000  Uiso   1.00
H216   H     0.84723   0.00847   0.32451   0.00000  Uiso   1.00
H217   H     0.65640   0.01177   0.12708   0.00000  Uiso   1.00
H218   H     0.87093   0.17720   0.09376   0.00000  Uiso   1.00
H219   H     0.89468   0.96637   0.49741   0.00000  Uiso   1.00
H220   H     0.49231   0.97335   0.08108   0.00000  Uiso   1.00
H221   H     0.94469   0.32220   0.01082   0.00000  Uiso   1.00
O222   O     0.86980   0.02129   0.65449   0.00000  Uiso   1.00
O223   O     0.34193   0.03046   0.10828   0.00000  Uiso   1.00
O224   O     0.93543   0.48814   0.01610   0.00000  Uiso   1.00
N225   N     0.79247   0.11678   0.57502   0.00000  Uiso   1.00
N226   N     0.41628   0.12330   0.18579   0.00000  Uiso   1.00
N227   N     0.83920   0.44944   0.12008   0.00000  Uiso   1.00
N228   N     0.85864   0.01705   0.50701   0.00000  Uiso   1.00
N229   N     0.48246   0.02357   0.11778   0.00000  Uiso   1.00
N230   N     0.90537   0.34972   0.05207   0.00000  Uiso   1.00
C231   C     0.23711   0.29791   0.67361   0.00000  Uiso   1.00
C232   C     0.18125   0.35661   0.72455   0.00000  Uiso   1.00
C233   C     0.18792   0.44288   0.72817   0.00000  Uiso   1.00
C234   C     0.13082   0.48539   0.77839   0.00000  Uiso   1.00
C235   C     0.05341   0.58298   0.85062   0.00000  Uiso   1.00
C236   C     0.18267   0.25044   0.61551   0.00000  Uiso   1.00
C237   C     0.19054   0.24742   0.52745   0.00000  Uiso   1.00
C238   C     0.13464   0.20054   0.48589   0.00000  Uiso   1.00
C239   C     0.05947   0.13325   0.38884   0.00000  Uiso   1.00
C240   C     0.26980   0.23328   0.73748   0.00000  Uiso   1.00
C241   C     0.35094   0.21582   0.75195   0.00000  Uiso   1.00
C242   C     0.36841   0.15447   0.81307   0.00000  Uiso   1.00
C243   C     0.42853   0.06054   0.90539   0.00000  Uiso   1.00
C244   C     0.12386   0.22000   0.75639   0.00000  Uiso   1.00
C245   C     0.11973   0.31429   0.76951   0.00000  Uiso   1.00
C246   C     0.06261   0.35668   0.81975   0.00000  Uiso   1.00
C247   C     0.06919   0.44299   0.82344   0.00000  Uiso   1.00
C248   C     0.12115   0.20812   0.66047   0.00000  Uiso   1.00
C249   C     0.06523   0.16123   0.61904   0.00000  Uiso   1.00
C250   C     0.07301   0.15815   0.53093   0.00000  Uiso   1.00
C251   C     0.20829   0.19096   0.78245   0.00000  Uiso   1.00
C252   C     0.22563   0.12963   0.84354   0.00000  Uiso   1.00
C253   C     0.30678   0.11208   0.85811   0.00000  Uiso   1.00
H254   H     0.28500   0.33085   0.63860   0.00000  Uiso   1.00
H255   H     0.23553   0.47560   0.69335   0.00000  Uiso   1.00
H256   H     0.23815   0.28017   0.49267   0.00000  Uiso   1.00
H257   H     0.39853   0.24858   0.71715   0.00000  Uiso   1.00
H258   H     0.15353   0.61743   0.77387   0.00000  Uiso   1.00
H259   H     0.15908   0.20533   0.35072   0.00000  Uiso   1.00
H260   H     0.49726   0.13871   0.82406   0.00000  Uiso   1.00
H261   H     0.07596   0.18705   0.79139   0.00000  Uiso   1.00
H262   H     0.01501   0.32392   0.85454   0.00000  Uiso   1.00
H263   H     0.01764   0.12849   0.65385   0.00000  Uiso   1.00
H264   H     0.17801   0.09689   0.87833   0.00000  Uiso   1.00
H265   H     0.97455   0.49432   0.90469   0.00000  Uiso   1.00
H266   H     0.98011   0.08221   0.48154   0.00000  Uiso   1.00
H267   H     0.31829   0.01559   0.95488   0.00000  Uiso   1.00
O268   O     0.02770   0.64851   0.87803   0.00000  Uiso   1.00
O269   O     0.03500   0.10783   0.32288   0.00000  Uiso   1.00
O270   O     0.47868   0.02043   0.94390   0.00000  Uiso   1.00
N271   N     0.11978   0.56967   0.79600   0.00000  Uiso   1.00
N272   N     0.12496   0.18439   0.40038   0.00000  Uiso   1.00
N273   N     0.44114   0.12209   0.84290   0.00000  Uiso   1.00
N274   N     0.02347   0.50343   0.86640   0.00000  Uiso   1.00
N275   N     0.02866   0.11815   0.47078   0.00000  Uiso   1.00
N276   N     0.34483   0.05584   0.91330   0.00000  Uiso   1.00
