data_job_01866
_audit_creation_date              2018-12-19
_audit_creation_method            'Materials Studio'
_symmetry_space_group_name_H-M    'P1'
_symmetry_Int_Tables_number       1
_symmetry_cell_setting            triclinic
loop_
_symmetry_equiv_pos_as_xyz
  x,y,z
_cell_length_a                    31.2886
_cell_length_b                    31.2886
_cell_length_c                    10.9246
_cell_angle_alpha                 90.0000
_cell_angle_beta                  90.0000
_cell_angle_gamma                 90.0000
loop_
_atom_site_label
_atom_site_type_symbol
_atom_site_fract_x
_atom_site_fract_y
_atom_site_fract_z
_atom_site_U_iso_or_equiv
_atom_site_adp_type
_atom_site_occupancy
C1     C     0.63907   0.72488   0.36184   0.00000  Uiso   1.00
C2     C     0.66574   0.76538   0.34785   0.00000  Uiso   1.00
C3     C     0.67958   0.79143   0.44271   0.00000  Uiso   1.00
C4     C     0.70364   0.82703   0.41094   0.00000  Uiso   1.00
C5     C     0.74355   0.88852   0.40781   0.00000  Uiso   1.00
C6     C     0.59936   0.73153   0.28318   0.00000  Uiso   1.00
C7     C     0.55738   0.72911   0.32367   0.00000  Uiso   1.00
C8     C     0.52556   0.73620   0.23746   0.00000  Uiso   1.00
C9     C     0.46240   0.74511   0.13392   0.00000  Uiso   1.00
C10    C     0.66451   0.68932   0.30023   0.00000  Uiso   1.00
C11    C     0.67732   0.65140   0.35503   0.00000  Uiso   1.00
C12    C     0.70034   0.62296   0.28316   0.00000  Uiso   1.00
C13    C     0.73835   0.56633   0.20608   0.00000  Uiso   1.00
C14    C     0.65718   0.74177   0.13674   0.00000  Uiso   1.00
C15    C     0.67558   0.77455   0.22558   0.00000  Uiso   1.00
C16    C     0.69963   0.81012   0.19366   0.00000  Uiso   1.00
C17    C     0.71350   0.83622   0.28846   0.00000  Uiso   1.00
C18    C     0.60919   0.74070   0.16093   0.00000  Uiso   1.00
C19    C     0.57743   0.74780   0.07463   0.00000  Uiso   1.00
C20    C     0.53541   0.74539   0.11498   0.00000  Uiso   1.00
C21    C     0.67436   0.69849   0.17796   0.00000  Uiso   1.00
C22    C     0.69736   0.67009   0.10599   0.00000  Uiso   1.00
C23    C     0.71020   0.63215   0.16067   0.00000  Uiso   1.00
H24    H     0.63140   0.71774   0.45702   0.00000  Uiso   1.00
H25    H     0.67196   0.78432   0.53731   0.00000  Uiso   1.00
H26    H     0.54978   0.72201   0.41829   0.00000  Uiso   1.00
H27    H     0.66970   0.64432   0.44965   0.00000  Uiso   1.00
H28    H     0.72125   0.86220   0.57241   0.00000  Uiso   1.00
H29    H     0.46362   0.73079   0.32144   0.00000  Uiso   1.00
H30    H     0.71649   0.56696   0.38755   0.00000  Uiso   1.00
H31    H     0.66484   0.74891   0.04155   0.00000  Uiso   1.00
H32    H     0.70724   0.81721   0.09904   0.00000  Uiso   1.00
H33    H     0.58505   0.75489   0.98002   0.00000  Uiso   1.00
H34    H     0.70497   0.67720   0.01138   0.00000  Uiso   1.00
H35    H     0.74988   0.88889   0.21669   0.00000  Uiso   1.00
H36    H     0.49225   0.75747   0.96572   0.00000  Uiso   1.00
H37    H     0.74512   0.59365   0.03183   0.00000  Uiso   1.00
O38    O     0.76284   0.91991   0.43986   0.00000  Uiso   1.00
O39    O     0.42484   0.74750   0.11060   0.00000  Uiso   1.00
O40    O     0.75660   0.53257   0.19734   0.00000  Uiso   1.00
N41    N     0.72218   0.85910   0.48080   0.00000  Uiso   1.00
N42    N     0.48131   0.73625   0.24616   0.00000  Uiso   1.00
N43    N     0.71771   0.58308   0.30797   0.00000  Uiso   1.00
N44    N     0.73758   0.87346   0.28939   0.00000  Uiso   1.00
N45    N     0.49672   0.75061   0.05475   0.00000  Uiso   1.00
N46    N     0.73312   0.59744   0.11656   0.00000  Uiso   1.00
C47    C     0.36093   0.27512   0.36184   0.00000  Uiso   1.00
C48    C     0.33426   0.23462   0.34785   0.00000  Uiso   1.00
C49    C     0.32042   0.20857   0.44271   0.00000  Uiso   1.00
C50    C     0.29636   0.17297   0.41094   0.00000  Uiso   1.00
C51    C     0.25645   0.11148   0.40781   0.00000  Uiso   1.00
C52    C     0.40064   0.26847   0.28318   0.00000  Uiso   1.00
C53    C     0.44262   0.27089   0.32367   0.00000  Uiso   1.00
C54    C     0.47444   0.26380   0.23746   0.00000  Uiso   1.00
C55    C     0.53760   0.25489   0.13392   0.00000  Uiso   1.00
C56    C     0.33549   0.31068   0.30023   0.00000  Uiso   1.00
C57    C     0.32268   0.34860   0.35503   0.00000  Uiso   1.00
C58    C     0.29966   0.37704   0.28316   0.00000  Uiso   1.00
C59    C     0.26165   0.43367   0.20608   0.00000  Uiso   1.00
C60    C     0.34282   0.25823   0.13674   0.00000  Uiso   1.00
C61    C     0.32442   0.22545   0.22558   0.00000  Uiso   1.00
C62    C     0.30037   0.18988   0.19366   0.00000  Uiso   1.00
C63    C     0.28650   0.16378   0.28846   0.00000  Uiso   1.00
C64    C     0.39081   0.25930   0.16093   0.00000  Uiso   1.00
C65    C     0.42257   0.25220   0.07463   0.00000  Uiso   1.00
C66    C     0.46459   0.25461   0.11498   0.00000  Uiso   1.00
C67    C     0.32564   0.30151   0.17796   0.00000  Uiso   1.00
C68    C     0.30264   0.32991   0.10599   0.00000  Uiso   1.00
C69    C     0.28980   0.36785   0.16067   0.00000  Uiso   1.00
H70    H     0.36860   0.28226   0.45702   0.00000  Uiso   1.00
H71    H     0.32804   0.21568   0.53731   0.00000  Uiso   1.00
H72    H     0.45022   0.27799   0.41829   0.00000  Uiso   1.00
H73    H     0.33030   0.35568   0.44965   0.00000  Uiso   1.00
H74    H     0.27875   0.13780   0.57241   0.00000  Uiso   1.00
H75    H     0.53638   0.26921   0.32144   0.00000  Uiso   1.00
H76    H     0.28351   0.43304   0.38755   0.00000  Uiso   1.00
H77    H     0.33516   0.25109   0.04155   0.00000  Uiso   1.00
H78    H     0.29276   0.18279   0.09904   0.00000  Uiso   1.00
H79    H     0.41495   0.24511   0.98002   0.00000  Uiso   1.00
H80    H     0.29503   0.32280   0.01138   0.00000  Uiso   1.00
H81    H     0.25012   0.11111   0.21669   0.00000  Uiso   1.00
H82    H     0.50775   0.24253   0.96572   0.00000  Uiso   1.00
H83    H     0.25488   0.40635   0.03183   0.00000  Uiso   1.00
O84    O     0.23716   0.08009   0.43986   0.00000  Uiso   1.00
O85    O     0.57516   0.25250   0.11060   0.00000  Uiso   1.00
O86    O     0.24340   0.46743   0.19734   0.00000  Uiso   1.00
N87    N     0.27782   0.14090   0.48080   0.00000  Uiso   1.00
N88    N     0.51869   0.26375   0.24616   0.00000  Uiso   1.00
N89    N     0.28229   0.41692   0.30797   0.00000  Uiso   1.00
N90    N     0.26242   0.12654   0.28939   0.00000  Uiso   1.00
N91    N     0.50328   0.24939   0.05475   0.00000  Uiso   1.00
N92    N     0.26688   0.40256   0.11656   0.00000  Uiso   1.00
C93    C     0.77512   0.13907   0.36184   0.00000  Uiso   1.00
C94    C     0.73462   0.16574   0.34785   0.00000  Uiso   1.00
C95    C     0.70857   0.17958   0.44271   0.00000  Uiso   1.00
C96    C     0.67297   0.20364   0.41094   0.00000  Uiso   1.00
C97    C     0.61148   0.24355   0.40781   0.00000  Uiso   1.00
C98    C     0.76847   0.09936   0.28318   0.00000  Uiso   1.00
C99    C     0.77089   0.05738   0.32367   0.00000  Uiso   1.00
C100   C     0.76380   0.02556   0.23746   0.00000  Uiso   1.00
C101   C     0.75489   0.96240   0.13392   0.00000  Uiso   1.00
C102   C     0.81068   0.16451   0.30023   0.00000  Uiso   1.00
C103   C     0.84860   0.17732   0.35503   0.00000  Uiso   1.00
C104   C     0.87704   0.20034   0.28316   0.00000  Uiso   1.00
C105   C     0.93367   0.23835   0.20608   0.00000  Uiso   1.00
C106   C     0.75823   0.15718   0.13674   0.00000  Uiso   1.00
C107   C     0.72545   0.17558   0.22558   0.00000  Uiso   1.00
C108   C     0.68988   0.19963   0.19366   0.00000  Uiso   1.00
C109   C     0.66378   0.21350   0.28846   0.00000  Uiso   1.00
C110   C     0.75930   0.10919   0.16093   0.00000  Uiso   1.00
C111   C     0.75220   0.07743   0.07463   0.00000  Uiso   1.00
C112   C     0.75461   0.03541   0.11498   0.00000  Uiso   1.00
C113   C     0.80151   0.17436   0.17796   0.00000  Uiso   1.00
C114   C     0.82991   0.19736   0.10599   0.00000  Uiso   1.00
C115   C     0.86785   0.21020   0.16067   0.00000  Uiso   1.00
H116   H     0.78226   0.13140   0.45702   0.00000  Uiso   1.00
H117   H     0.71568   0.17196   0.53731   0.00000  Uiso   1.00
H118   H     0.77799   0.04978   0.41829   0.00000  Uiso   1.00
H119   H     0.85568   0.16970   0.44965   0.00000  Uiso   1.00
H120   H     0.63780   0.22125   0.57241   0.00000  Uiso   1.00
H121   H     0.76921   0.96362   0.32144   0.00000  Uiso   1.00
H122   H     0.93304   0.21649   0.38755   0.00000  Uiso   1.00
H123   H     0.75109   0.16484   0.04155   0.00000  Uiso   1.00
H124   H     0.68279   0.20724   0.09904   0.00000  Uiso   1.00
H125   H     0.74511   0.08505   0.98002   0.00000  Uiso   1.00
H126   H     0.82280   0.20497   0.01138   0.00000  Uiso   1.00
H127   H     0.61111   0.24988   0.21669   0.00000  Uiso   1.00
H128   H     0.74253   0.99225   0.96572   0.00000  Uiso   1.00
H129   H     0.90635   0.24512   0.03183   0.00000  Uiso   1.00
O130   O     0.58009   0.26284   0.43986   0.00000  Uiso   1.00
O131   O     0.75250   0.92484   0.11060   0.00000  Uiso   1.00
O132   O     0.96743   0.25660   0.19734   0.00000  Uiso   1.00
N133   N     0.64090   0.22218   0.48080   0.00000  Uiso   1.00
N134   N     0.76375   0.98131   0.24616   0.00000  Uiso   1.00
N135   N     0.91692   0.21771   0.30797   0.00000  Uiso   1.00
N136   N     0.62654   0.23758   0.28939   0.00000  Uiso   1.00
N137   N     0.74939   0.99672   0.05475   0.00000  Uiso   1.00
N138   N     0.90256   0.23312   0.11656   0.00000  Uiso   1.00
C139   C     0.22488   0.86093   0.36184   0.00000  Uiso   1.00
C140   C     0.26538   0.83426   0.34785   0.00000  Uiso   1.00
C141   C     0.29143   0.82042   0.44271   0.00000  Uiso   1.00
C142   C     0.32703   0.79636   0.41094   0.00000  Uiso   1.00
C143   C     0.38852   0.75645   0.40781   0.00000  Uiso   1.00
C144   C     0.23153   0.90064   0.28318   0.00000  Uiso   1.00
C145   C     0.22911   0.94262   0.32367   0.00000  Uiso   1.00
C146   C     0.23620   0.97444   0.23746   0.00000  Uiso   1.00
C147   C     0.24511   0.03760   0.13392   0.00000  Uiso   1.00
C148   C     0.18932   0.83549   0.30023   0.00000  Uiso   1.00
C149   C     0.15140   0.82268   0.35503   0.00000  Uiso   1.00
C150   C     0.12296   0.79966   0.28316   0.00000  Uiso   1.00
C151   C     0.06633   0.76165   0.20608   0.00000  Uiso   1.00
C152   C     0.24177   0.84282   0.13674   0.00000  Uiso   1.00
C153   C     0.27455   0.82442   0.22558   0.00000  Uiso   1.00
C154   C     0.31012   0.80037   0.19366   0.00000  Uiso   1.00
C155   C     0.33622   0.78650   0.28846   0.00000  Uiso   1.00
C156   C     0.24070   0.89081   0.16093   0.00000  Uiso   1.00
C157   C     0.24780   0.92257   0.07463   0.00000  Uiso   1.00
C158   C     0.24539   0.96459   0.11498   0.00000  Uiso   1.00
C159   C     0.19849   0.82564   0.17796   0.00000  Uiso   1.00
C160   C     0.17009   0.80264   0.10599   0.00000  Uiso   1.00
C161   C     0.13215   0.78980   0.16067   0.00000  Uiso   1.00
H162   H     0.21774   0.86860   0.45702   0.00000  Uiso   1.00
H163   H     0.28432   0.82804   0.53731   0.00000  Uiso   1.00
H164   H     0.22201   0.95022   0.41829   0.00000  Uiso   1.00
H165   H     0.14432   0.83030   0.44965   0.00000  Uiso   1.00
H166   H     0.36220   0.77875   0.57241   0.00000  Uiso   1.00
H167   H     0.23079   0.03638   0.32144   0.00000  Uiso   1.00
H168   H     0.06696   0.78351   0.38755   0.00000  Uiso   1.00
H169   H     0.24891   0.83516   0.04155   0.00000  Uiso   1.00
H170   H     0.31721   0.79276   0.09904   0.00000  Uiso   1.00
H171   H     0.25489   0.91495   0.98002   0.00000  Uiso   1.00
H172   H     0.17720   0.79503   0.01138   0.00000  Uiso   1.00
H173   H     0.38889   0.75012   0.21669   0.00000  Uiso   1.00
H174   H     0.25747   0.00775   0.96572   0.00000  Uiso   1.00
H175   H     0.09365   0.75488   0.03183   0.00000  Uiso   1.00
O176   O     0.41991   0.73716   0.43986   0.00000  Uiso   1.00
O177   O     0.24750   0.07516   0.11060   0.00000  Uiso   1.00
O178   O     0.03257   0.74340   0.19734   0.00000  Uiso   1.00
N179   N     0.35910   0.77782   0.48080   0.00000  Uiso   1.00
N180   N     0.23625   0.01869   0.24616   0.00000  Uiso   1.00
N181   N     0.08308   0.78229   0.30797   0.00000  Uiso   1.00
N182   N     0.37346   0.76242   0.28939   0.00000  Uiso   1.00
N183   N     0.25061   0.00328   0.05475   0.00000  Uiso   1.00
N184   N     0.09744   0.76688   0.11656   0.00000  Uiso   1.00
C185   C     0.86093   0.77512   0.63816   0.00000  Uiso   1.00
C186   C     0.83426   0.73462   0.65215   0.00000  Uiso   1.00
C187   C     0.82042   0.70857   0.55729   0.00000  Uiso   1.00
C188   C     0.79636   0.67297   0.58906   0.00000  Uiso   1.00
C189   C     0.75645   0.61148   0.59219   0.00000  Uiso   1.00
C190   C     0.90064   0.76847   0.71682   0.00000  Uiso   1.00
C191   C     0.94262   0.77089   0.67633   0.00000  Uiso   1.00
C192   C     0.97444   0.76380   0.76254   0.00000  Uiso   1.00
C193   C     0.03760   0.75489   0.86608   0.00000  Uiso   1.00
C194   C     0.83549   0.81068   0.69977   0.00000  Uiso   1.00
C195   C     0.82268   0.84860   0.64497   0.00000  Uiso   1.00
C196   C     0.79966   0.87704   0.71684   0.00000  Uiso   1.00
C197   C     0.76165   0.93367   0.79392   0.00000  Uiso   1.00
C198   C     0.84282   0.75823   0.86326   0.00000  Uiso   1.00
C199   C     0.82442   0.72545   0.77442   0.00000  Uiso   1.00
C200   C     0.80037   0.68988   0.80634   0.00000  Uiso   1.00
C201   C     0.78650   0.66378   0.71154   0.00000  Uiso   1.00
C202   C     0.89081   0.75930   0.83907   0.00000  Uiso   1.00
C203   C     0.92257   0.75220   0.92537   0.00000  Uiso   1.00
C204   C     0.96459   0.75461   0.88502   0.00000  Uiso   1.00
C205   C     0.82564   0.80151   0.82204   0.00000  Uiso   1.00
C206   C     0.80264   0.82991   0.89401   0.00000  Uiso   1.00
C207   C     0.78980   0.86785   0.83933   0.00000  Uiso   1.00
H208   H     0.86860   0.78226   0.54298   0.00000  Uiso   1.00
H209   H     0.82804   0.71568   0.46269   0.00000  Uiso   1.00
H210   H     0.95022   0.77799   0.58171   0.00000  Uiso   1.00
H211   H     0.83030   0.85568   0.55035   0.00000  Uiso   1.00
H212   H     0.77875   0.63780   0.42759   0.00000  Uiso   1.00
H213   H     0.03638   0.76921   0.67856   0.00000  Uiso   1.00
H214   H     0.78351   0.93304   0.61245   0.00000  Uiso   1.00
H215   H     0.83516   0.75109   0.95845   0.00000  Uiso   1.00
H216   H     0.79276   0.68279   0.90096   0.00000  Uiso   1.00
H217   H     0.91495   0.74511   0.01998   0.00000  Uiso   1.00
H218   H     0.79503   0.82280   0.98862   0.00000  Uiso   1.00
H219   H     0.75012   0.61111   0.78331   0.00000  Uiso   1.00
H220   H     0.00775   0.74253   0.03428   0.00000  Uiso   1.00
H221   H     0.75488   0.90635   0.96817   0.00000  Uiso   1.00
O222   O     0.73716   0.58009   0.56014   0.00000  Uiso   1.00
O223   O     0.07516   0.75250   0.88940   0.00000  Uiso   1.00
O224   O     0.74340   0.96743   0.80266   0.00000  Uiso   1.00
N225   N     0.77782   0.64090   0.51920   0.00000  Uiso   1.00
N226   N     0.01869   0.76375   0.75384   0.00000  Uiso   1.00
N227   N     0.78229   0.91692   0.69203   0.00000  Uiso   1.00
N228   N     0.76242   0.62654   0.71061   0.00000  Uiso   1.00
N229   N     0.00328   0.74939   0.94525   0.00000  Uiso   1.00
N230   N     0.76688   0.90256   0.88344   0.00000  Uiso   1.00
C231   C     0.13907   0.22488   0.63816   0.00000  Uiso   1.00
C232   C     0.16574   0.26538   0.65215   0.00000  Uiso   1.00
C233   C     0.17958   0.29143   0.55729   0.00000  Uiso   1.00
C234   C     0.20364   0.32703   0.58906   0.00000  Uiso   1.00
C235   C     0.24355   0.38852   0.59219   0.00000  Uiso   1.00
C236   C     0.09936   0.23153   0.71682   0.00000  Uiso   1.00
C237   C     0.05738   0.22911   0.67633   0.00000  Uiso   1.00
C238   C     0.02556   0.23620   0.76254   0.00000  Uiso   1.00
C239   C     0.96240   0.24511   0.86608   0.00000  Uiso   1.00
C240   C     0.16451   0.18932   0.69977   0.00000  Uiso   1.00
C241   C     0.17732   0.15140   0.64497   0.00000  Uiso   1.00
C242   C     0.20034   0.12296   0.71684   0.00000  Uiso   1.00
C243   C     0.23835   0.06633   0.79392   0.00000  Uiso   1.00
C244   C     0.15718   0.24177   0.86326   0.00000  Uiso   1.00
C245   C     0.17558   0.27455   0.77442   0.00000  Uiso   1.00
C246   C     0.19963   0.31012   0.80634   0.00000  Uiso   1.00
C247   C     0.21350   0.33622   0.71154   0.00000  Uiso   1.00
C248   C     0.10919   0.24070   0.83907   0.00000  Uiso   1.00
C249   C     0.07743   0.24780   0.92537   0.00000  Uiso   1.00
C250   C     0.03541   0.24539   0.88502   0.00000  Uiso   1.00
C251   C     0.17436   0.19849   0.82204   0.00000  Uiso   1.00
C252   C     0.19736   0.17009   0.89401   0.00000  Uiso   1.00
C253   C     0.21020   0.13215   0.83933   0.00000  Uiso   1.00
H254   H     0.13140   0.21774   0.54298   0.00000  Uiso   1.00
H255   H     0.17196   0.28432   0.46269   0.00000  Uiso   1.00
H256   H     0.04978   0.22201   0.58171   0.00000  Uiso   1.00
H257   H     0.16970   0.14432   0.55035   0.00000  Uiso   1.00
H258   H     0.22125   0.36220   0.42759   0.00000  Uiso   1.00
H259   H     0.96362   0.23079   0.67856   0.00000  Uiso   1.00
H260   H     0.21649   0.06696   0.61245   0.00000  Uiso   1.00
H261   H     0.16484   0.24891   0.95845   0.00000  Uiso   1.00
H262   H     0.20724   0.31721   0.90096   0.00000  Uiso   1.00
H263   H     0.08505   0.25489   0.01998   0.00000  Uiso   1.00
H264   H     0.20497   0.17720   0.98862   0.00000  Uiso   1.00
H265   H     0.24988   0.38889   0.78331   0.00000  Uiso   1.00
H266   H     0.99225   0.25747   0.03428   0.00000  Uiso   1.00
H267   H     0.24512   0.09365   0.96817   0.00000  Uiso   1.00
O268   O     0.26284   0.41991   0.56014   0.00000  Uiso   1.00
O269   O     0.92484   0.24750   0.88940   0.00000  Uiso   1.00
O270   O     0.25660   0.03257   0.80266   0.00000  Uiso   1.00
N271   N     0.22218   0.35910   0.51920   0.00000  Uiso   1.00
N272   N     0.98131   0.23625   0.75384   0.00000  Uiso   1.00
N273   N     0.21771   0.08308   0.69203   0.00000  Uiso   1.00
N274   N     0.23758   0.37346   0.71061   0.00000  Uiso   1.00
N275   N     0.99672   0.25061   0.94525   0.00000  Uiso   1.00
N276   N     0.23312   0.09744   0.88344   0.00000  Uiso   1.00
C277   C     0.72488   0.36093   0.63816   0.00000  Uiso   1.00
C278   C     0.76538   0.33426   0.65215   0.00000  Uiso   1.00
C279   C     0.79143   0.32042   0.55729   0.00000  Uiso   1.00
C280   C     0.82703   0.29636   0.58906   0.00000  Uiso   1.00
C281   C     0.88852   0.25645   0.59219   0.00000  Uiso   1.00
C282   C     0.73153   0.40064   0.71682   0.00000  Uiso   1.00
C283   C     0.72911   0.44262   0.67633   0.00000  Uiso   1.00
C284   C     0.73620   0.47444   0.76254   0.00000  Uiso   1.00
C285   C     0.74511   0.53760   0.86608   0.00000  Uiso   1.00
C286   C     0.68932   0.33549   0.69977   0.00000  Uiso   1.00
C287   C     0.65140   0.32268   0.64497   0.00000  Uiso   1.00
C288   C     0.62296   0.29966   0.71684   0.00000  Uiso   1.00
C289   C     0.56633   0.26165   0.79392   0.00000  Uiso   1.00
C290   C     0.74177   0.34282   0.86326   0.00000  Uiso   1.00
C291   C     0.77455   0.32442   0.77442   0.00000  Uiso   1.00
C292   C     0.81012   0.30037   0.80634   0.00000  Uiso   1.00
C293   C     0.83622   0.28650   0.71154   0.00000  Uiso   1.00
C294   C     0.74070   0.39081   0.83907   0.00000  Uiso   1.00
C295   C     0.74780   0.42257   0.92537   0.00000  Uiso   1.00
C296   C     0.74539   0.46459   0.88502   0.00000  Uiso   1.00
C297   C     0.69849   0.32564   0.82204   0.00000  Uiso   1.00
C298   C     0.67009   0.30264   0.89401   0.00000  Uiso   1.00
C299   C     0.63215   0.28980   0.83933   0.00000  Uiso   1.00
H300   H     0.71774   0.36860   0.54298   0.00000  Uiso   1.00
H301   H     0.78432   0.32804   0.46269   0.00000  Uiso   1.00
H302   H     0.72201   0.45022   0.58171   0.00000  Uiso   1.00
H303   H     0.64432   0.33030   0.55035   0.00000  Uiso   1.00
H304   H     0.86220   0.27875   0.42759   0.00000  Uiso   1.00
H305   H     0.73079   0.53638   0.67856   0.00000  Uiso   1.00
H306   H     0.56696   0.28351   0.61245   0.00000  Uiso   1.00
H307   H     0.74891   0.33516   0.95845   0.00000  Uiso   1.00
H308   H     0.81721   0.29276   0.90096   0.00000  Uiso   1.00
H309   H     0.75489   0.41495   0.01998   0.00000  Uiso   1.00
H310   H     0.67720   0.29503   0.98862   0.00000  Uiso   1.00
H311   H     0.88889   0.25012   0.78331   0.00000  Uiso   1.00
H312   H     0.75747   0.50775   0.03428   0.00000  Uiso   1.00
H313   H     0.59365   0.25488   0.96817   0.00000  Uiso   1.00
O314   O     0.91991   0.23716   0.56014   0.00000  Uiso   1.00
O315   O     0.74750   0.57516   0.88940   0.00000  Uiso   1.00
O316   O     0.53257   0.24340   0.80266   0.00000  Uiso   1.00
N317   N     0.85910   0.27782   0.51920   0.00000  Uiso   1.00
N318   N     0.73625   0.51869   0.75384   0.00000  Uiso   1.00
N319   N     0.58308   0.28229   0.69203   0.00000  Uiso   1.00
N320   N     0.87346   0.26242   0.71061   0.00000  Uiso   1.00
N321   N     0.75061   0.50328   0.94525   0.00000  Uiso   1.00
N322   N     0.59744   0.26688   0.88344   0.00000  Uiso   1.00
C323   C     0.27512   0.63907   0.63816   0.00000  Uiso   1.00
C324   C     0.23462   0.66574   0.65215   0.00000  Uiso   1.00
C325   C     0.20857   0.67958   0.55729   0.00000  Uiso   1.00
C326   C     0.17297   0.70364   0.58906   0.00000  Uiso   1.00
C327   C     0.11148   0.74355   0.59219   0.00000  Uiso   1.00
C328   C     0.26847   0.59936   0.71682   0.00000  Uiso   1.00
C329   C     0.27089   0.55738   0.67633   0.00000  Uiso   1.00
C330   C     0.26380   0.52556   0.76254   0.00000  Uiso   1.00
C331   C     0.25489   0.46240   0.86608   0.00000  Uiso   1.00
C332   C     0.31068   0.66451   0.69977   0.00000  Uiso   1.00
C333   C     0.34860   0.67732   0.64497   0.00000  Uiso   1.00
C334   C     0.37704   0.70034   0.71684   0.00000  Uiso   1.00
C335   C     0.43367   0.73835   0.79392   0.00000  Uiso   1.00
C336   C     0.25823   0.65718   0.86326   0.00000  Uiso   1.00
C337   C     0.22545   0.67558   0.77442   0.00000  Uiso   1.00
C338   C     0.18988   0.69963   0.80634   0.00000  Uiso   1.00
C339   C     0.16378   0.71350   0.71154   0.00000  Uiso   1.00
C340   C     0.25930   0.60919   0.83907   0.00000  Uiso   1.00
C341   C     0.25220   0.57743   0.92537   0.00000  Uiso   1.00
C342   C     0.25461   0.53541   0.88502   0.00000  Uiso   1.00
C343   C     0.30151   0.67436   0.82204   0.00000  Uiso   1.00
C344   C     0.32991   0.69736   0.89401   0.00000  Uiso   1.00
C345   C     0.36785   0.71020   0.83933   0.00000  Uiso   1.00
H346   H     0.28226   0.63140   0.54298   0.00000  Uiso   1.00
H347   H     0.21568   0.67196   0.46269   0.00000  Uiso   1.00
H348   H     0.27799   0.54978   0.58171   0.00000  Uiso   1.00
H349   H     0.35568   0.66970   0.55035   0.00000  Uiso   1.00
H350   H     0.13780   0.72125   0.42759   0.00000  Uiso   1.00
H351   H     0.26921   0.46362   0.67856   0.00000  Uiso   1.00
H352   H     0.43304   0.71649   0.61245   0.00000  Uiso   1.00
H353   H     0.25109   0.66484   0.95845   0.00000  Uiso   1.00
H354   H     0.18279   0.70724   0.90096   0.00000  Uiso   1.00
H355   H     0.24511   0.58505   0.01998   0.00000  Uiso   1.00
H356   H     0.32280   0.70497   0.98862   0.00000  Uiso   1.00
H357   H     0.11111   0.74988   0.78331   0.00000  Uiso   1.00
H358   H     0.24253   0.49225   0.03428   0.00000  Uiso   1.00
H359   H     0.40635   0.74512   0.96817   0.00000  Uiso   1.00
O360   O     0.08009   0.76284   0.56014   0.00000  Uiso   1.00
O361   O     0.25250   0.42484   0.88940   0.00000  Uiso   1.00
O362   O     0.46743   0.75660   0.80266   0.00000  Uiso   1.00
N363   N     0.14090   0.72218   0.51920   0.00000  Uiso   1.00
N364   N     0.26375   0.48131   0.75384   0.00000  Uiso   1.00
N365   N     0.41692   0.71771   0.69203   0.00000  Uiso   1.00
N366   N     0.12654   0.73758   0.71061   0.00000  Uiso   1.00
N367   N     0.24939   0.49672   0.94525   0.00000  Uiso   1.00
N368   N     0.40256   0.73312   0.88344   0.00000  Uiso   1.00
