data_job_02703
_audit_creation_date              2018-12-19
_audit_creation_method            'Materials Studio'
_symmetry_space_group_name_H-M    'P1'
_symmetry_Int_Tables_number       1
_symmetry_cell_setting            triclinic
loop_
_symmetry_equiv_pos_as_xyz
  x,y,z
_cell_length_a                    38.3218
_cell_length_b                    14.8092
_cell_length_c                    11.7539
_cell_angle_alpha                 90.0000
_cell_angle_beta                  90.0000
_cell_angle_gamma                 90.0000
loop_
_atom_site_label
_atom_site_type_symbol
_atom_site_fract_x
_atom_site_fract_y
_atom_site_fract_z
_atom_site_U_iso_or_equiv
_atom_site_adp_type
_atom_site_occupancy
C1     C     0.10373   0.20889   0.11020   0.00000  Uiso   1.00
C2     C     0.08695   0.26347   0.01474   0.00000  Uiso   1.00
C3     C     0.08157   0.23379   0.90413   0.00000  Uiso   1.00
C4     C     0.06582   0.29391   0.82945   0.00000  Uiso   1.00
C5     C     0.04131   0.36548   0.67591   0.00000  Uiso   1.00
C6     C     0.13438   0.26521   0.15276   0.00000  Uiso   1.00
C7     C     0.16887   0.23698   0.15822   0.00000  Uiso   1.00
C8     C     0.19304   0.29856   0.19974   0.00000  Uiso   1.00
C9     C     0.24215   0.37281   0.26057   0.00000  Uiso   1.00
C10    C     0.07724   0.20735   0.20699   0.00000  Uiso   1.00
C11    C     0.06369   0.13047   0.25807   0.00000  Uiso   1.00
C12    C     0.03976   0.14333   0.34527   0.00000  Uiso   1.00
C13    C     0.00016   0.12775   0.49030   0.00000  Uiso   1.00
C14    C     0.08532   0.36845   0.17426   0.00000  Uiso   1.00
C15    C     0.07695   0.35014   0.04953   0.00000  Uiso   1.00
C16    C     0.06121   0.41032   0.97500   0.00000  Uiso   1.00
C17    C     0.05580   0.38073   0.86430   0.00000  Uiso   1.00
C18    C     0.12438   0.35187   0.18756   0.00000  Uiso   1.00
C19    C     0.14850   0.41351   0.22909   0.00000  Uiso   1.00
C20    C     0.18302   0.38538   0.23459   0.00000  Uiso   1.00
C21    C     0.06724   0.29401   0.24179   0.00000  Uiso   1.00
C22    C     0.04333   0.30700   0.32893   0.00000  Uiso   1.00
C23    C     0.02975   0.23015   0.38013   0.00000  Uiso   1.00
H24    H     0.11151   0.14143   0.08312   0.00000  Uiso   1.00
H25    H     0.08932   0.16672   0.87724   0.00000  Uiso   1.00
H26    H     0.17660   0.16991   0.13130   0.00000  Uiso   1.00
H27    H     0.07144   0.06342   0.23113   0.00000  Uiso   1.00
H28    H     0.06031   0.23299   0.66431   0.00000  Uiso   1.00
H29    H     0.24435   0.23971   0.20005   0.00000  Uiso   1.00
H30    H     0.02260   0.01514   0.41056   0.00000  Uiso   1.00
H31    H     0.07753   0.43592   0.20135   0.00000  Uiso   1.00
H32    H     0.05347   0.47738   0.00195   0.00000  Uiso   1.00
H33    H     0.14075   0.48056   0.25601   0.00000  Uiso   1.00
H34    H     0.03559   0.37407   0.35584   0.00000  Uiso   1.00
H35    H     0.03122   0.48513   0.76553   0.00000  Uiso   1.00
H36    H     0.21526   0.49185   0.30127   0.00000  Uiso   1.00
H37    H     0.99351   0.26728   0.51178   0.00000  Uiso   1.00
O38    O     0.03056   0.38103   0.58161   0.00000  Uiso   1.00
O39    O     0.27201   0.38983   0.28449   0.00000  Uiso   1.00
O40    O     0.98108   0.09521   0.56067   0.00000  Uiso   1.00
N41    N     0.05676   0.28664   0.71551   0.00000  Uiso   1.00
N42    N     0.22882   0.29292   0.21637   0.00000  Uiso   1.00
N43    N     0.02151   0.08297   0.41320   0.00000  Uiso   1.00
N44    N     0.04111   0.42231   0.76997   0.00000  Uiso   1.00
N45    N     0.21317   0.42859   0.27083   0.00000  Uiso   1.00
N46    N     0.00586   0.21865   0.46767   0.00000  Uiso   1.00
C47    C     0.39627   0.79111   0.11020   0.00000  Uiso   1.00
C48    C     0.41305   0.73653   0.01474   0.00000  Uiso   1.00
C49    C     0.41843   0.76621   0.90413   0.00000  Uiso   1.00
C50    C     0.43418   0.70609   0.82945   0.00000  Uiso   1.00
C51    C     0.45869   0.63452   0.67591   0.00000  Uiso   1.00
C52    C     0.36562   0.73479   0.15276   0.00000  Uiso   1.00
C53    C     0.33113   0.76302   0.15822   0.00000  Uiso   1.00
C54    C     0.30696   0.70144   0.19974   0.00000  Uiso   1.00
C55    C     0.25785   0.62719   0.26057   0.00000  Uiso   1.00
C56    C     0.42276   0.79265   0.20699   0.00000  Uiso   1.00
C57    C     0.43631   0.86953   0.25807   0.00000  Uiso   1.00
C58    C     0.46024   0.85667   0.34527   0.00000  Uiso   1.00
C59    C     0.49984   0.87225   0.49030   0.00000  Uiso   1.00
C60    C     0.41468   0.63155   0.17426   0.00000  Uiso   1.00
C61    C     0.42305   0.64986   0.04953   0.00000  Uiso   1.00
C62    C     0.43879   0.58968   0.97500   0.00000  Uiso   1.00
C63    C     0.44420   0.61927   0.86430   0.00000  Uiso   1.00
C64    C     0.37562   0.64813   0.18756   0.00000  Uiso   1.00
C65    C     0.35150   0.58649   0.22909   0.00000  Uiso   1.00
C66    C     0.31698   0.61462   0.23459   0.00000  Uiso   1.00
C67    C     0.43276   0.70599   0.24179   0.00000  Uiso   1.00
C68    C     0.45667   0.69300   0.32893   0.00000  Uiso   1.00
C69    C     0.47025   0.76985   0.38013   0.00000  Uiso   1.00
H70    H     0.38849   0.85857   0.08312   0.00000  Uiso   1.00
H71    H     0.41068   0.83328   0.87724   0.00000  Uiso   1.00
H72    H     0.32340   0.83009   0.13130   0.00000  Uiso   1.00
H73    H     0.42856   0.93658   0.23113   0.00000  Uiso   1.00
H74    H     0.43969   0.76701   0.66431   0.00000  Uiso   1.00
H75    H     0.25565   0.76029   0.20005   0.00000  Uiso   1.00
H76    H     0.47740   0.98486   0.41056   0.00000  Uiso   1.00
H77    H     0.42247   0.56408   0.20135   0.00000  Uiso   1.00
H78    H     0.44653   0.52262   0.00195   0.00000  Uiso   1.00
H79    H     0.35925   0.51944   0.25601   0.00000  Uiso   1.00
H80    H     0.46441   0.62593   0.35584   0.00000  Uiso   1.00
H81    H     0.46878   0.51487   0.76553   0.00000  Uiso   1.00
H82    H     0.28474   0.50815   0.30127   0.00000  Uiso   1.00
H83    H     0.50649   0.73272   0.51178   0.00000  Uiso   1.00
O84    O     0.46944   0.61897   0.58161   0.00000  Uiso   1.00
O85    O     0.22799   0.61017   0.28449   0.00000  Uiso   1.00
O86    O     0.51892   0.90479   0.56067   0.00000  Uiso   1.00
N87    N     0.44324   0.71336   0.71551   0.00000  Uiso   1.00
N88    N     0.27118   0.70708   0.21637   0.00000  Uiso   1.00
N89    N     0.47849   0.91703   0.41320   0.00000  Uiso   1.00
N90    N     0.45889   0.57769   0.76997   0.00000  Uiso   1.00
N91    N     0.28683   0.57141   0.27083   0.00000  Uiso   1.00
N92    N     0.49414   0.78135   0.46767   0.00000  Uiso   1.00
C93    C     0.89627   0.20889   0.38980   0.00000  Uiso   1.00
C94    C     0.91305   0.26347   0.48526   0.00000  Uiso   1.00
C95    C     0.91843   0.23379   0.59587   0.00000  Uiso   1.00
C96    C     0.93418   0.29391   0.67055   0.00000  Uiso   1.00
C97    C     0.95869   0.36548   0.82409   0.00000  Uiso   1.00
C98    C     0.86562   0.26521   0.34724   0.00000  Uiso   1.00
C99    C     0.83113   0.23698   0.34178   0.00000  Uiso   1.00
C100   C     0.80696   0.29856   0.30026   0.00000  Uiso   1.00
C101   C     0.75785   0.37281   0.23943   0.00000  Uiso   1.00
C102   C     0.92276   0.20735   0.29301   0.00000  Uiso   1.00
C103   C     0.93631   0.13047   0.24193   0.00000  Uiso   1.00
C104   C     0.96024   0.14333   0.15473   0.00000  Uiso   1.00
C105   C     0.99984   0.12775   0.00970   0.00000  Uiso   1.00
C106   C     0.91468   0.36845   0.32574   0.00000  Uiso   1.00
C107   C     0.92305   0.35014   0.45047   0.00000  Uiso   1.00
C108   C     0.93879   0.41032   0.52500   0.00000  Uiso   1.00
C109   C     0.94420   0.38073   0.63570   0.00000  Uiso   1.00
C110   C     0.87562   0.35187   0.31244   0.00000  Uiso   1.00
C111   C     0.85150   0.41351   0.27091   0.00000  Uiso   1.00
C112   C     0.81698   0.38538   0.26541   0.00000  Uiso   1.00
C113   C     0.93276   0.29401   0.25821   0.00000  Uiso   1.00
C114   C     0.95667   0.30700   0.17107   0.00000  Uiso   1.00
C115   C     0.97025   0.23015   0.11987   0.00000  Uiso   1.00
H116   H     0.88849   0.14143   0.41688   0.00000  Uiso   1.00
H117   H     0.91068   0.16672   0.62276   0.00000  Uiso   1.00
H118   H     0.82340   0.16991   0.36870   0.00000  Uiso   1.00
H119   H     0.92856   0.06342   0.26887   0.00000  Uiso   1.00
H120   H     0.93969   0.23299   0.83569   0.00000  Uiso   1.00
H121   H     0.75565   0.23971   0.29995   0.00000  Uiso   1.00
H122   H     0.97740   0.01514   0.08944   0.00000  Uiso   1.00
H123   H     0.92247   0.43592   0.29865   0.00000  Uiso   1.00
H124   H     0.94653   0.47738   0.49805   0.00000  Uiso   1.00
H125   H     0.85925   0.48056   0.24399   0.00000  Uiso   1.00
H126   H     0.96441   0.37407   0.14416   0.00000  Uiso   1.00
H127   H     0.96878   0.48513   0.73447   0.00000  Uiso   1.00
H128   H     0.78474   0.49185   0.19873   0.00000  Uiso   1.00
H129   H     0.00649   0.26728   0.98822   0.00000  Uiso   1.00
O130   O     0.96944   0.38103   0.91839   0.00000  Uiso   1.00
O131   O     0.72799   0.38983   0.21551   0.00000  Uiso   1.00
O132   O     0.01892   0.09521   0.93933   0.00000  Uiso   1.00
N133   N     0.94324   0.28664   0.78449   0.00000  Uiso   1.00
N134   N     0.77118   0.29292   0.28363   0.00000  Uiso   1.00
N135   N     0.97849   0.08297   0.08680   0.00000  Uiso   1.00
N136   N     0.95889   0.42231   0.73003   0.00000  Uiso   1.00
N137   N     0.78683   0.42859   0.22917   0.00000  Uiso   1.00
N138   N     0.99414   0.21865   0.03233   0.00000  Uiso   1.00
C139   C     0.60373   0.79111   0.38980   0.00000  Uiso   1.00
C140   C     0.58695   0.73653   0.48526   0.00000  Uiso   1.00
C141   C     0.58157   0.76621   0.59587   0.00000  Uiso   1.00
C142   C     0.56582   0.70609   0.67055   0.00000  Uiso   1.00
C143   C     0.54131   0.63452   0.82409   0.00000  Uiso   1.00
C144   C     0.63438   0.73479   0.34724   0.00000  Uiso   1.00
C145   C     0.66887   0.76302   0.34178   0.00000  Uiso   1.00
C146   C     0.69304   0.70144   0.30026   0.00000  Uiso   1.00
C147   C     0.74215   0.62719   0.23943   0.00000  Uiso   1.00
C148   C     0.57724   0.79265   0.29301   0.00000  Uiso   1.00
C149   C     0.56369   0.86953   0.24193   0.00000  Uiso   1.00
C150   C     0.53976   0.85667   0.15473   0.00000  Uiso   1.00
C151   C     0.50016   0.87225   0.00970   0.00000  Uiso   1.00
C152   C     0.58532   0.63155   0.32574   0.00000  Uiso   1.00
C153   C     0.57695   0.64986   0.45047   0.00000  Uiso   1.00
C154   C     0.56121   0.58968   0.52500   0.00000  Uiso   1.00
C155   C     0.55580   0.61927   0.63570   0.00000  Uiso   1.00
C156   C     0.62438   0.64813   0.31244   0.00000  Uiso   1.00
C157   C     0.64850   0.58649   0.27091   0.00000  Uiso   1.00
C158   C     0.68302   0.61462   0.26541   0.00000  Uiso   1.00
C159   C     0.56724   0.70599   0.25821   0.00000  Uiso   1.00
C160   C     0.54333   0.69300   0.17107   0.00000  Uiso   1.00
C161   C     0.52975   0.76985   0.11987   0.00000  Uiso   1.00
H162   H     0.61151   0.85857   0.41688   0.00000  Uiso   1.00
H163   H     0.58932   0.83328   0.62276   0.00000  Uiso   1.00
H164   H     0.67660   0.83009   0.36870   0.00000  Uiso   1.00
H165   H     0.57144   0.93658   0.26887   0.00000  Uiso   1.00
H166   H     0.56031   0.76701   0.83569   0.00000  Uiso   1.00
H167   H     0.74435   0.76029   0.29995   0.00000  Uiso   1.00
H168   H     0.52260   0.98486   0.08944   0.00000  Uiso   1.00
H169   H     0.57753   0.56408   0.29865   0.00000  Uiso   1.00
H170   H     0.55347   0.52262   0.49805   0.00000  Uiso   1.00
H171   H     0.64075   0.51944   0.24399   0.00000  Uiso   1.00
H172   H     0.53559   0.62593   0.14416   0.00000  Uiso   1.00
H173   H     0.53122   0.51487   0.73447   0.00000  Uiso   1.00
H174   H     0.71526   0.50815   0.19873   0.00000  Uiso   1.00
H175   H     0.49351   0.73272   0.98822   0.00000  Uiso   1.00
O176   O     0.53056   0.61897   0.91839   0.00000  Uiso   1.00
O177   O     0.77201   0.61017   0.21551   0.00000  Uiso   1.00
O178   O     0.48108   0.90479   0.93933   0.00000  Uiso   1.00
N179   N     0.55676   0.71336   0.78449   0.00000  Uiso   1.00
N180   N     0.72882   0.70708   0.28363   0.00000  Uiso   1.00
N181   N     0.52151   0.91703   0.08680   0.00000  Uiso   1.00
N182   N     0.54111   0.57769   0.73003   0.00000  Uiso   1.00
N183   N     0.71317   0.57141   0.22917   0.00000  Uiso   1.00
N184   N     0.50586   0.78135   0.03233   0.00000  Uiso   1.00
C185   C     0.89627   0.79111   0.88980   0.00000  Uiso   1.00
C186   C     0.91305   0.73653   0.98526   0.00000  Uiso   1.00
C187   C     0.91843   0.76621   0.09587   0.00000  Uiso   1.00
C188   C     0.93418   0.70609   0.17055   0.00000  Uiso   1.00
C189   C     0.95869   0.63452   0.32409   0.00000  Uiso   1.00
C190   C     0.86562   0.73479   0.84724   0.00000  Uiso   1.00
C191   C     0.83113   0.76302   0.84178   0.00000  Uiso   1.00
C192   C     0.80696   0.70144   0.80026   0.00000  Uiso   1.00
C193   C     0.75785   0.62719   0.73943   0.00000  Uiso   1.00
C194   C     0.92276   0.79265   0.79301   0.00000  Uiso   1.00
C195   C     0.93631   0.86953   0.74193   0.00000  Uiso   1.00
C196   C     0.96024   0.85667   0.65473   0.00000  Uiso   1.00
C197   C     0.99984   0.87225   0.50970   0.00000  Uiso   1.00
C198   C     0.91468   0.63155   0.82574   0.00000  Uiso   1.00
C199   C     0.92305   0.64986   0.95047   0.00000  Uiso   1.00
C200   C     0.93879   0.58968   0.02500   0.00000  Uiso   1.00
C201   C     0.94420   0.61927   0.13570   0.00000  Uiso   1.00
C202   C     0.87562   0.64813   0.81244   0.00000  Uiso   1.00
C203   C     0.85150   0.58649   0.77091   0.00000  Uiso   1.00
C204   C     0.81698   0.61462   0.76541   0.00000  Uiso   1.00
C205   C     0.93276   0.70599   0.75821   0.00000  Uiso   1.00
C206   C     0.95667   0.69300   0.67107   0.00000  Uiso   1.00
C207   C     0.97025   0.76985   0.61987   0.00000  Uiso   1.00
H208   H     0.88849   0.85857   0.91688   0.00000  Uiso   1.00
H209   H     0.91068   0.83328   0.12276   0.00000  Uiso   1.00
H210   H     0.82340   0.83009   0.86870   0.00000  Uiso   1.00
H211   H     0.92856   0.93658   0.76887   0.00000  Uiso   1.00
H212   H     0.93969   0.76701   0.33569   0.00000  Uiso   1.00
H213   H     0.75565   0.76029   0.79995   0.00000  Uiso   1.00
H214   H     0.97740   0.98486   0.58944   0.00000  Uiso   1.00
H215   H     0.92247   0.56408   0.79865   0.00000  Uiso   1.00
H216   H     0.94653   0.52262   0.99805   0.00000  Uiso   1.00
H217   H     0.85925   0.51944   0.74399   0.00000  Uiso   1.00
H218   H     0.96441   0.62593   0.64416   0.00000  Uiso   1.00
H219   H     0.96878   0.51487   0.23447   0.00000  Uiso   1.00
H220   H     0.78474   0.50815   0.69873   0.00000  Uiso   1.00
H221   H     0.00649   0.73272   0.48822   0.00000  Uiso   1.00
O222   O     0.96944   0.61897   0.41839   0.00000  Uiso   1.00
O223   O     0.72799   0.61017   0.71551   0.00000  Uiso   1.00
O224   O     0.01892   0.90479   0.43933   0.00000  Uiso   1.00
N225   N     0.94324   0.71336   0.28449   0.00000  Uiso   1.00
N226   N     0.77118   0.70708   0.78363   0.00000  Uiso   1.00
N227   N     0.97849   0.91703   0.58680   0.00000  Uiso   1.00
N228   N     0.95889   0.57769   0.23003   0.00000  Uiso   1.00
N229   N     0.78683   0.57141   0.72917   0.00000  Uiso   1.00
N230   N     0.99414   0.78135   0.53233   0.00000  Uiso   1.00
C231   C     0.60373   0.20889   0.88980   0.00000  Uiso   1.00
C232   C     0.58695   0.26347   0.98526   0.00000  Uiso   1.00
C233   C     0.58157   0.23379   0.09587   0.00000  Uiso   1.00
C234   C     0.56582   0.29391   0.17055   0.00000  Uiso   1.00
C235   C     0.54131   0.36548   0.32409   0.00000  Uiso   1.00
C236   C     0.63438   0.26521   0.84724   0.00000  Uiso   1.00
C237   C     0.66887   0.23698   0.84178   0.00000  Uiso   1.00
C238   C     0.69304   0.29856   0.80026   0.00000  Uiso   1.00
C239   C     0.74215   0.37281   0.73943   0.00000  Uiso   1.00
C240   C     0.57724   0.20735   0.79301   0.00000  Uiso   1.00
C241   C     0.56369   0.13047   0.74193   0.00000  Uiso   1.00
C242   C     0.53976   0.14333   0.65473   0.00000  Uiso   1.00
C243   C     0.50016   0.12775   0.50970   0.00000  Uiso   1.00
C244   C     0.58532   0.36845   0.82574   0.00000  Uiso   1.00
C245   C     0.57695   0.35014   0.95047   0.00000  Uiso   1.00
C246   C     0.56121   0.41032   0.02500   0.00000  Uiso   1.00
C247   C     0.55580   0.38073   0.13570   0.00000  Uiso   1.00
C248   C     0.62438   0.35187   0.81244   0.00000  Uiso   1.00
C249   C     0.64850   0.41351   0.77091   0.00000  Uiso   1.00
C250   C     0.68302   0.38538   0.76541   0.00000  Uiso   1.00
C251   C     0.56724   0.29401   0.75821   0.00000  Uiso   1.00
C252   C     0.54333   0.30700   0.67107   0.00000  Uiso   1.00
C253   C     0.52975   0.23015   0.61987   0.00000  Uiso   1.00
H254   H     0.61151   0.14143   0.91688   0.00000  Uiso   1.00
H255   H     0.58932   0.16672   0.12276   0.00000  Uiso   1.00
H256   H     0.67660   0.16991   0.86870   0.00000  Uiso   1.00
H257   H     0.57144   0.06342   0.76887   0.00000  Uiso   1.00
H258   H     0.56031   0.23299   0.33569   0.00000  Uiso   1.00
H259   H     0.74435   0.23971   0.79995   0.00000  Uiso   1.00
H260   H     0.52260   0.01514   0.58944   0.00000  Uiso   1.00
H261   H     0.57753   0.43592   0.79865   0.00000  Uiso   1.00
H262   H     0.55347   0.47738   0.99805   0.00000  Uiso   1.00
H263   H     0.64075   0.48056   0.74399   0.00000  Uiso   1.00
H264   H     0.53559   0.37407   0.64416   0.00000  Uiso   1.00
H265   H     0.53122   0.48513   0.23447   0.00000  Uiso   1.00
H266   H     0.71526   0.49185   0.69873   0.00000  Uiso   1.00
H267   H     0.49351   0.26728   0.48822   0.00000  Uiso   1.00
O268   O     0.53056   0.38103   0.41839   0.00000  Uiso   1.00
O269   O     0.77201   0.38983   0.71551   0.00000  Uiso   1.00
O270   O     0.48108   0.09521   0.43933   0.00000  Uiso   1.00
N271   N     0.55676   0.28664   0.28449   0.00000  Uiso   1.00
N272   N     0.72882   0.29292   0.78363   0.00000  Uiso   1.00
N273   N     0.52151   0.08297   0.58680   0.00000  Uiso   1.00
N274   N     0.54111   0.42231   0.23003   0.00000  Uiso   1.00
N275   N     0.71317   0.42859   0.72917   0.00000  Uiso   1.00
N276   N     0.50586   0.21865   0.53233   0.00000  Uiso   1.00
C277   C     0.10373   0.79111   0.61020   0.00000  Uiso   1.00
C278   C     0.08695   0.73653   0.51474   0.00000  Uiso   1.00
C279   C     0.08157   0.76621   0.40413   0.00000  Uiso   1.00
C280   C     0.06582   0.70609   0.32945   0.00000  Uiso   1.00
C281   C     0.04131   0.63452   0.17591   0.00000  Uiso   1.00
C282   C     0.13438   0.73479   0.65276   0.00000  Uiso   1.00
C283   C     0.16887   0.76302   0.65822   0.00000  Uiso   1.00
C284   C     0.19304   0.70144   0.69974   0.00000  Uiso   1.00
C285   C     0.24215   0.62719   0.76057   0.00000  Uiso   1.00
C286   C     0.07724   0.79265   0.70699   0.00000  Uiso   1.00
C287   C     0.06369   0.86953   0.75807   0.00000  Uiso   1.00
C288   C     0.03976   0.85667   0.84527   0.00000  Uiso   1.00
C289   C     0.00016   0.87225   0.99030   0.00000  Uiso   1.00
C290   C     0.08532   0.63155   0.67426   0.00000  Uiso   1.00
C291   C     0.07695   0.64986   0.54953   0.00000  Uiso   1.00
C292   C     0.06121   0.58968   0.47500   0.00000  Uiso   1.00
C293   C     0.05580   0.61927   0.36430   0.00000  Uiso   1.00
C294   C     0.12438   0.64813   0.68756   0.00000  Uiso   1.00
C295   C     0.14850   0.58649   0.72909   0.00000  Uiso   1.00
C296   C     0.18302   0.61462   0.73459   0.00000  Uiso   1.00
C297   C     0.06724   0.70599   0.74179   0.00000  Uiso   1.00
C298   C     0.04333   0.69300   0.82893   0.00000  Uiso   1.00
C299   C     0.02975   0.76985   0.88013   0.00000  Uiso   1.00
H300   H     0.11151   0.85857   0.58312   0.00000  Uiso   1.00
H301   H     0.08932   0.83328   0.37724   0.00000  Uiso   1.00
H302   H     0.17660   0.83009   0.63130   0.00000  Uiso   1.00
H303   H     0.07144   0.93658   0.73113   0.00000  Uiso   1.00
H304   H     0.06031   0.76701   0.16431   0.00000  Uiso   1.00
H305   H     0.24435   0.76029   0.70005   0.00000  Uiso   1.00
H306   H     0.02260   0.98486   0.91056   0.00000  Uiso   1.00
H307   H     0.07753   0.56408   0.70135   0.00000  Uiso   1.00
H308   H     0.05347   0.52262   0.50195   0.00000  Uiso   1.00
H309   H     0.14075   0.51944   0.75601   0.00000  Uiso   1.00
H310   H     0.03559   0.62593   0.85584   0.00000  Uiso   1.00
H311   H     0.03122   0.51487   0.26553   0.00000  Uiso   1.00
H312   H     0.21526   0.50815   0.80127   0.00000  Uiso   1.00
H313   H     0.99351   0.73272   0.01178   0.00000  Uiso   1.00
O314   O     0.03056   0.61897   0.08161   0.00000  Uiso   1.00
O315   O     0.27201   0.61017   0.78449   0.00000  Uiso   1.00
O316   O     0.98108   0.90479   0.06067   0.00000  Uiso   1.00
N317   N     0.05676   0.71336   0.21551   0.00000  Uiso   1.00
N318   N     0.22882   0.70708   0.71637   0.00000  Uiso   1.00
N319   N     0.02151   0.91703   0.91320   0.00000  Uiso   1.00
N320   N     0.04111   0.57769   0.26997   0.00000  Uiso   1.00
N321   N     0.21317   0.57141   0.77083   0.00000  Uiso   1.00
N322   N     0.00586   0.78135   0.96767   0.00000  Uiso   1.00
C323   C     0.39627   0.20889   0.61020   0.00000  Uiso   1.00
C324   C     0.41305   0.26347   0.51474   0.00000  Uiso   1.00
C325   C     0.41843   0.23379   0.40413   0.00000  Uiso   1.00
C326   C     0.43418   0.29391   0.32945   0.00000  Uiso   1.00
C327   C     0.45869   0.36548   0.17591   0.00000  Uiso   1.00
C328   C     0.36562   0.26521   0.65276   0.00000  Uiso   1.00
C329   C     0.33113   0.23698   0.65822   0.00000  Uiso   1.00
C330   C     0.30696   0.29856   0.69974   0.00000  Uiso   1.00
C331   C     0.25785   0.37281   0.76057   0.00000  Uiso   1.00
C332   C     0.42276   0.20735   0.70699   0.00000  Uiso   1.00
C333   C     0.43631   0.13047   0.75807   0.00000  Uiso   1.00
C334   C     0.46024   0.14333   0.84527   0.00000  Uiso   1.00
C335   C     0.49984   0.12775   0.99030   0.00000  Uiso   1.00
C336   C     0.41468   0.36845   0.67426   0.00000  Uiso   1.00
C337   C     0.42305   0.35014   0.54953   0.00000  Uiso   1.00
C338   C     0.43879   0.41032   0.47500   0.00000  Uiso   1.00
C339   C     0.44420   0.38073   0.36430   0.00000  Uiso   1.00
C340   C     0.37562   0.35187   0.68756   0.00000  Uiso   1.00
C341   C     0.35150   0.41351   0.72909   0.00000  Uiso   1.00
C342   C     0.31698   0.38538   0.73459   0.00000  Uiso   1.00
C343   C     0.43276   0.29401   0.74179   0.00000  Uiso   1.00
C344   C     0.45667   0.30700   0.82893   0.00000  Uiso   1.00
C345   C     0.47025   0.23015   0.88013   0.00000  Uiso   1.00
H346   H     0.38849   0.14143   0.58312   0.00000  Uiso   1.00
H347   H     0.41068   0.16672   0.37724   0.00000  Uiso   1.00
H348   H     0.32340   0.16991   0.63130   0.00000  Uiso   1.00
H349   H     0.42856   0.06342   0.73113   0.00000  Uiso   1.00
H350   H     0.43969   0.23299   0.16431   0.00000  Uiso   1.00
H351   H     0.25565   0.23971   0.70005   0.00000  Uiso   1.00
H352   H     0.47740   0.01514   0.91056   0.00000  Uiso   1.00
H353   H     0.42247   0.43592   0.70135   0.00000  Uiso   1.00
H354   H     0.44653   0.47738   0.50195   0.00000  Uiso   1.00
H355   H     0.35925   0.48056   0.75601   0.00000  Uiso   1.00
H356   H     0.46441   0.37407   0.85584   0.00000  Uiso   1.00
H357   H     0.46878   0.48513   0.26553   0.00000  Uiso   1.00
H358   H     0.28474   0.49185   0.80127   0.00000  Uiso   1.00
H359   H     0.50649   0.26728   0.01178   0.00000  Uiso   1.00
O360   O     0.46944   0.38103   0.08161   0.00000  Uiso   1.00
O361   O     0.22799   0.38983   0.78449   0.00000  Uiso   1.00
O362   O     0.51892   0.09521   0.06067   0.00000  Uiso   1.00
N363   N     0.44324   0.28664   0.21551   0.00000  Uiso   1.00
N364   N     0.27118   0.29292   0.71637   0.00000  Uiso   1.00
N365   N     0.47849   0.08297   0.91320   0.00000  Uiso   1.00
N366   N     0.45889   0.42231   0.26997   0.00000  Uiso   1.00
N367   N     0.28683   0.42859   0.77083   0.00000  Uiso   1.00
N368   N     0.49414   0.21865   0.96767   0.00000  Uiso   1.00
