data_job_02663
_audit_creation_date              2018-12-19
_audit_creation_method            'Materials Studio'
_symmetry_space_group_name_H-M    'P1'
_symmetry_Int_Tables_number       1
_symmetry_cell_setting            triclinic
loop_
_symmetry_equiv_pos_as_xyz
  x,y,z
_cell_length_a                    29.1219
_cell_length_b                    10.5201
_cell_length_c                    21.0202
_cell_angle_alpha                 90.0000
_cell_angle_beta                  44.7136
_cell_angle_gamma                 90.0000
loop_
_atom_site_label
_atom_site_type_symbol
_atom_site_fract_x
_atom_site_fract_y
_atom_site_fract_z
_atom_site_U_iso_or_equiv
_atom_site_adp_type
_atom_site_occupancy
C1     C     0.68849   0.59708   0.70546   0.00000  Uiso   1.00
C2     C     0.76161   0.57907   0.64357   0.00000  Uiso   1.00
C3     C     0.80063   0.49066   0.57427   0.00000  Uiso   1.00
C4     C     0.86640   0.48922   0.52542   0.00000  Uiso   1.00
C5     C     0.97601   0.44843   0.42635   0.00000  Uiso   1.00
C6     C     0.65709   0.58204   0.80171   0.00000  Uiso   1.00
C7     C     0.60822   0.49614   0.86537   0.00000  Uiso   1.00
C8     C     0.58599   0.49721   0.94965   0.00000  Uiso   1.00
C9     C     0.53329   0.46111   0.09611   0.00000  Uiso   1.00
C10    C     0.67927   0.73611   0.69609   0.00000  Uiso   1.00
C11    C     0.64903   0.77975   0.67097   0.00000  Uiso   1.00
C12    C     0.64546   0.91054   0.66634   0.00000  Uiso   1.00
C13    C     0.62721   0.11364   0.64882   0.00000  Uiso   1.00
C14    C     0.73591   0.75175   0.74195   0.00000  Uiso   1.00
C15    C     0.78736   0.66308   0.66340   0.00000  Uiso   1.00
C16    C     0.85309   0.66178   0.61464   0.00000  Uiso   1.00
C17    C     0.89220   0.57338   0.54527   0.00000  Uiso   1.00
C18    C     0.68284   0.66605   0.82153   0.00000  Uiso   1.00
C19    C     0.66068   0.66726   0.90574   0.00000  Uiso   1.00
C20    C     0.61179   0.58137   0.96951   0.00000  Uiso   1.00
C21    C     0.70502   0.82012   0.71591   0.00000  Uiso   1.00
C22    C     0.70149   0.95087   0.71133   0.00000  Uiso   1.00
C23    C     0.67126   0.99470   0.68620   0.00000  Uiso   1.00
H24    H     0.66844   0.53167   0.69003   0.00000  Uiso   1.00
H25    H     0.78068   0.42565   0.55896   0.00000  Uiso   1.00
H26    H     0.58829   0.43115   0.85002   0.00000  Uiso   1.00
H27    H     0.62911   0.71471   0.65564   0.00000  Uiso   1.00
H28    H     0.91647   0.34513   0.42240   0.00000  Uiso   1.00
H29    H     0.51080   0.35674   0.03612   0.00000  Uiso   1.00
H30    H     0.59686   0.95469   0.62624   0.00000  Uiso   1.00
H31    H     0.75596   0.81716   0.75738   0.00000  Uiso   1.00
H32    H     0.87300   0.72680   0.62999   0.00000  Uiso   1.00
H33    H     0.68061   0.73229   0.92106   0.00000  Uiso   1.00
H34    H     0.72143   0.01585   0.72668   0.00000  Uiso   1.00
H35    H     0.99140   0.58954   0.48005   0.00000  Uiso   1.00
H36    H     0.58573   0.60116   0.09379   0.00000  Uiso   1.00
H37    H     0.67179   0.19911   0.68390   0.00000  Uiso   1.00
O38    O     0.02935   0.40272   0.36623   0.00000  Uiso   1.00
O39    O     0.49712   0.41797   0.17142   0.00000  Uiso   1.00
O40    O     0.61003   0.20246   0.63366   0.00000  Uiso   1.00
N41    N     0.91805   0.41507   0.45344   0.00000  Uiso   1.00
N42    N     0.53877   0.42591   0.02723   0.00000  Uiso   1.00
N43    N     0.61922   0.98494   0.64405   0.00000  Uiso   1.00
N44    N     0.95837   0.54659   0.48446   0.00000  Uiso   1.00
N45    N     0.57909   0.55743   0.05825   0.00000  Uiso   1.00
N46    N     0.65954   0.11646   0.67507   0.00000  Uiso   1.00
C47    C     0.18849   0.09708   0.70546   0.00000  Uiso   1.00
C48    C     0.26161   0.07907   0.64357   0.00000  Uiso   1.00
C49    C     0.30063   0.99066   0.57427   0.00000  Uiso   1.00
C50    C     0.36640   0.98922   0.52542   0.00000  Uiso   1.00
C51    C     0.47601   0.94843   0.42635   0.00000  Uiso   1.00
C52    C     0.15709   0.08204   0.80171   0.00000  Uiso   1.00
C53    C     0.10822   0.99614   0.86537   0.00000  Uiso   1.00
C54    C     0.08599   0.99721   0.94965   0.00000  Uiso   1.00
C55    C     0.03329   0.96111   0.09611   0.00000  Uiso   1.00
C56    C     0.17927   0.23611   0.69609   0.00000  Uiso   1.00
C57    C     0.14903   0.27975   0.67097   0.00000  Uiso   1.00
C58    C     0.14546   0.41054   0.66634   0.00000  Uiso   1.00
C59    C     0.12721   0.61364   0.64882   0.00000  Uiso   1.00
C60    C     0.23591   0.25175   0.74195   0.00000  Uiso   1.00
C61    C     0.28736   0.16308   0.66340   0.00000  Uiso   1.00
C62    C     0.35309   0.16178   0.61464   0.00000  Uiso   1.00
C63    C     0.39220   0.07338   0.54527   0.00000  Uiso   1.00
C64    C     0.18284   0.16605   0.82153   0.00000  Uiso   1.00
C65    C     0.16068   0.16726   0.90574   0.00000  Uiso   1.00
C66    C     0.11179   0.08137   0.96951   0.00000  Uiso   1.00
C67    C     0.20502   0.32012   0.71591   0.00000  Uiso   1.00
C68    C     0.20149   0.45087   0.71133   0.00000  Uiso   1.00
C69    C     0.17126   0.49470   0.68620   0.00000  Uiso   1.00
H70    H     0.16844   0.03167   0.69003   0.00000  Uiso   1.00
H71    H     0.28068   0.92565   0.55896   0.00000  Uiso   1.00
H72    H     0.08829   0.93115   0.85002   0.00000  Uiso   1.00
H73    H     0.12911   0.21471   0.65564   0.00000  Uiso   1.00
H74    H     0.41647   0.84513   0.42240   0.00000  Uiso   1.00
H75    H     0.01080   0.85674   0.03612   0.00000  Uiso   1.00
H76    H     0.09686   0.45469   0.62624   0.00000  Uiso   1.00
H77    H     0.25596   0.31716   0.75738   0.00000  Uiso   1.00
H78    H     0.37300   0.22680   0.62999   0.00000  Uiso   1.00
H79    H     0.18061   0.23229   0.92106   0.00000  Uiso   1.00
H80    H     0.22143   0.51585   0.72668   0.00000  Uiso   1.00
H81    H     0.49140   0.08954   0.48005   0.00000  Uiso   1.00
H82    H     0.08573   0.10116   0.09379   0.00000  Uiso   1.00
H83    H     0.17179   0.69911   0.68390   0.00000  Uiso   1.00
O84    O     0.52935   0.90272   0.36623   0.00000  Uiso   1.00
O85    O     0.99712   0.91797   0.17142   0.00000  Uiso   1.00
O86    O     0.11003   0.70246   0.63366   0.00000  Uiso   1.00
N87    N     0.41805   0.91507   0.45344   0.00000  Uiso   1.00
N88    N     0.03877   0.92591   0.02723   0.00000  Uiso   1.00
N89    N     0.11922   0.48494   0.64405   0.00000  Uiso   1.00
N90    N     0.45837   0.04659   0.48446   0.00000  Uiso   1.00
N91    N     0.07909   0.05743   0.05825   0.00000  Uiso   1.00
N92    N     0.15954   0.61646   0.67507   0.00000  Uiso   1.00
C93    C     0.31151   0.59708   0.79454   0.00000  Uiso   1.00
C94    C     0.23839   0.57907   0.85643   0.00000  Uiso   1.00
C95    C     0.19937   0.49066   0.92573   0.00000  Uiso   1.00
C96    C     0.13360   0.48922   0.97458   0.00000  Uiso   1.00
C97    C     0.02399   0.44843   0.07365   0.00000  Uiso   1.00
C98    C     0.34291   0.58204   0.69829   0.00000  Uiso   1.00
C99    C     0.39178   0.49614   0.63463   0.00000  Uiso   1.00
C100   C     0.41401   0.49721   0.55035   0.00000  Uiso   1.00
C101   C     0.46671   0.46111   0.40389   0.00000  Uiso   1.00
C102   C     0.32073   0.73611   0.80391   0.00000  Uiso   1.00
C103   C     0.35097   0.77975   0.82903   0.00000  Uiso   1.00
C104   C     0.35454   0.91054   0.83366   0.00000  Uiso   1.00
C105   C     0.37279   0.11364   0.85118   0.00000  Uiso   1.00
C106   C     0.26409   0.75175   0.75805   0.00000  Uiso   1.00
C107   C     0.21264   0.66308   0.83660   0.00000  Uiso   1.00
C108   C     0.14691   0.66178   0.88536   0.00000  Uiso   1.00
C109   C     0.10780   0.57338   0.95473   0.00000  Uiso   1.00
C110   C     0.31716   0.66605   0.67847   0.00000  Uiso   1.00
C111   C     0.33932   0.66726   0.59426   0.00000  Uiso   1.00
C112   C     0.38821   0.58137   0.53049   0.00000  Uiso   1.00
C113   C     0.29498   0.82012   0.78409   0.00000  Uiso   1.00
C114   C     0.29851   0.95087   0.78867   0.00000  Uiso   1.00
C115   C     0.32874   0.99470   0.81380   0.00000  Uiso   1.00
H116   H     0.33156   0.53167   0.80997   0.00000  Uiso   1.00
H117   H     0.21932   0.42565   0.94104   0.00000  Uiso   1.00
H118   H     0.41171   0.43115   0.64998   0.00000  Uiso   1.00
H119   H     0.37089   0.71471   0.84436   0.00000  Uiso   1.00
H120   H     0.08353   0.34513   0.07760   0.00000  Uiso   1.00
H121   H     0.48920   0.35674   0.46388   0.00000  Uiso   1.00
H122   H     0.40314   0.95469   0.87376   0.00000  Uiso   1.00
H123   H     0.24404   0.81716   0.74262   0.00000  Uiso   1.00
H124   H     0.12700   0.72680   0.87001   0.00000  Uiso   1.00
H125   H     0.31939   0.73229   0.57894   0.00000  Uiso   1.00
H126   H     0.27857   0.01585   0.77332   0.00000  Uiso   1.00
H127   H     0.00860   0.58954   0.01995   0.00000  Uiso   1.00
H128   H     0.41427   0.60116   0.40621   0.00000  Uiso   1.00
H129   H     0.32821   0.19911   0.81610   0.00000  Uiso   1.00
O130   O     0.97065   0.40272   0.13377   0.00000  Uiso   1.00
O131   O     0.50288   0.41797   0.32858   0.00000  Uiso   1.00
O132   O     0.38997   0.20246   0.86634   0.00000  Uiso   1.00
N133   N     0.08195   0.41507   0.04656   0.00000  Uiso   1.00
N134   N     0.46123   0.42591   0.47277   0.00000  Uiso   1.00
N135   N     0.38078   0.98494   0.85595   0.00000  Uiso   1.00
N136   N     0.04163   0.54659   0.01554   0.00000  Uiso   1.00
N137   N     0.42091   0.55743   0.44175   0.00000  Uiso   1.00
N138   N     0.34046   0.11646   0.82493   0.00000  Uiso   1.00
C139   C     0.81151   0.09708   0.79454   0.00000  Uiso   1.00
C140   C     0.73839   0.07907   0.85643   0.00000  Uiso   1.00
C141   C     0.69937   0.99066   0.92573   0.00000  Uiso   1.00
C142   C     0.63360   0.98922   0.97458   0.00000  Uiso   1.00
C143   C     0.52399   0.94843   0.07365   0.00000  Uiso   1.00
C144   C     0.84291   0.08204   0.69829   0.00000  Uiso   1.00
C145   C     0.89178   0.99614   0.63463   0.00000  Uiso   1.00
C146   C     0.91401   0.99721   0.55035   0.00000  Uiso   1.00
C147   C     0.96671   0.96111   0.40389   0.00000  Uiso   1.00
C148   C     0.82073   0.23611   0.80391   0.00000  Uiso   1.00
C149   C     0.85097   0.27975   0.82903   0.00000  Uiso   1.00
C150   C     0.85454   0.41054   0.83366   0.00000  Uiso   1.00
C151   C     0.87279   0.61364   0.85118   0.00000  Uiso   1.00
C152   C     0.76409   0.25175   0.75805   0.00000  Uiso   1.00
C153   C     0.71264   0.16308   0.83660   0.00000  Uiso   1.00
C154   C     0.64691   0.16178   0.88536   0.00000  Uiso   1.00
C155   C     0.60780   0.07338   0.95473   0.00000  Uiso   1.00
C156   C     0.81716   0.16605   0.67847   0.00000  Uiso   1.00
C157   C     0.83932   0.16726   0.59426   0.00000  Uiso   1.00
C158   C     0.88821   0.08137   0.53049   0.00000  Uiso   1.00
C159   C     0.79498   0.32012   0.78409   0.00000  Uiso   1.00
C160   C     0.79851   0.45087   0.78867   0.00000  Uiso   1.00
C161   C     0.82874   0.49470   0.81380   0.00000  Uiso   1.00
H162   H     0.83156   0.03167   0.80997   0.00000  Uiso   1.00
H163   H     0.71932   0.92565   0.94104   0.00000  Uiso   1.00
H164   H     0.91171   0.93115   0.64998   0.00000  Uiso   1.00
H165   H     0.87089   0.21471   0.84436   0.00000  Uiso   1.00
H166   H     0.58353   0.84513   0.07760   0.00000  Uiso   1.00
H167   H     0.98920   0.85674   0.46388   0.00000  Uiso   1.00
H168   H     0.90314   0.45469   0.87376   0.00000  Uiso   1.00
H169   H     0.74404   0.31716   0.74262   0.00000  Uiso   1.00
H170   H     0.62700   0.22680   0.87001   0.00000  Uiso   1.00
H171   H     0.81939   0.23229   0.57894   0.00000  Uiso   1.00
H172   H     0.77857   0.51585   0.77332   0.00000  Uiso   1.00
H173   H     0.50860   0.08954   0.01995   0.00000  Uiso   1.00
H174   H     0.91427   0.10116   0.40621   0.00000  Uiso   1.00
H175   H     0.82821   0.69911   0.81610   0.00000  Uiso   1.00
O176   O     0.47065   0.90272   0.13377   0.00000  Uiso   1.00
O177   O     0.00288   0.91797   0.32858   0.00000  Uiso   1.00
O178   O     0.88997   0.70246   0.86634   0.00000  Uiso   1.00
N179   N     0.58195   0.91507   0.04656   0.00000  Uiso   1.00
N180   N     0.96123   0.92591   0.47277   0.00000  Uiso   1.00
N181   N     0.88078   0.48494   0.85595   0.00000  Uiso   1.00
N182   N     0.54163   0.04659   0.01554   0.00000  Uiso   1.00
N183   N     0.92091   0.05743   0.44175   0.00000  Uiso   1.00
N184   N     0.84046   0.61646   0.82493   0.00000  Uiso   1.00
C185   C     0.31151   0.40292   0.29454   0.00000  Uiso   1.00
C186   C     0.23839   0.42093   0.35643   0.00000  Uiso   1.00
C187   C     0.19937   0.50934   0.42573   0.00000  Uiso   1.00
C188   C     0.13360   0.51078   0.47458   0.00000  Uiso   1.00
C189   C     0.02399   0.55157   0.57365   0.00000  Uiso   1.00
C190   C     0.34291   0.41796   0.19829   0.00000  Uiso   1.00
C191   C     0.39178   0.50386   0.13463   0.00000  Uiso   1.00
C192   C     0.41401   0.50279   0.05035   0.00000  Uiso   1.00
C193   C     0.46671   0.53889   0.90389   0.00000  Uiso   1.00
C194   C     0.32073   0.26389   0.30391   0.00000  Uiso   1.00
C195   C     0.35097   0.22025   0.32903   0.00000  Uiso   1.00
C196   C     0.35454   0.08946   0.33366   0.00000  Uiso   1.00
C197   C     0.37279   0.88636   0.35118   0.00000  Uiso   1.00
C198   C     0.26409   0.24825   0.25805   0.00000  Uiso   1.00
C199   C     0.21264   0.33692   0.33660   0.00000  Uiso   1.00
C200   C     0.14691   0.33822   0.38536   0.00000  Uiso   1.00
C201   C     0.10780   0.42662   0.45473   0.00000  Uiso   1.00
C202   C     0.31716   0.33395   0.17847   0.00000  Uiso   1.00
C203   C     0.33932   0.33274   0.09426   0.00000  Uiso   1.00
C204   C     0.38821   0.41863   0.03049   0.00000  Uiso   1.00
C205   C     0.29498   0.17988   0.28409   0.00000  Uiso   1.00
C206   C     0.29851   0.04913   0.28867   0.00000  Uiso   1.00
C207   C     0.32874   0.00530   0.31380   0.00000  Uiso   1.00
H208   H     0.33156   0.46833   0.30997   0.00000  Uiso   1.00
H209   H     0.21932   0.57435   0.44104   0.00000  Uiso   1.00
H210   H     0.41171   0.56885   0.14998   0.00000  Uiso   1.00
H211   H     0.37089   0.28529   0.34436   0.00000  Uiso   1.00
H212   H     0.08353   0.65487   0.57760   0.00000  Uiso   1.00
H213   H     0.48920   0.64326   0.96388   0.00000  Uiso   1.00
H214   H     0.40314   0.04531   0.37376   0.00000  Uiso   1.00
H215   H     0.24404   0.18284   0.24262   0.00000  Uiso   1.00
H216   H     0.12700   0.27320   0.37001   0.00000  Uiso   1.00
H217   H     0.31939   0.26771   0.07894   0.00000  Uiso   1.00
H218   H     0.27857   0.98415   0.27332   0.00000  Uiso   1.00
H219   H     0.00860   0.41046   0.51995   0.00000  Uiso   1.00
H220   H     0.41427   0.39884   0.90621   0.00000  Uiso   1.00
H221   H     0.32821   0.80089   0.31610   0.00000  Uiso   1.00
O222   O     0.97065   0.59728   0.63377   0.00000  Uiso   1.00
O223   O     0.50288   0.58203   0.82858   0.00000  Uiso   1.00
O224   O     0.38997   0.79754   0.36634   0.00000  Uiso   1.00
N225   N     0.08195   0.58493   0.54656   0.00000  Uiso   1.00
N226   N     0.46123   0.57409   0.97277   0.00000  Uiso   1.00
N227   N     0.38078   0.01506   0.35595   0.00000  Uiso   1.00
N228   N     0.04163   0.45341   0.51554   0.00000  Uiso   1.00
N229   N     0.42091   0.44257   0.94175   0.00000  Uiso   1.00
N230   N     0.34046   0.88354   0.32493   0.00000  Uiso   1.00
C231   C     0.81151   0.90292   0.29454   0.00000  Uiso   1.00
C232   C     0.73839   0.92093   0.35643   0.00000  Uiso   1.00
C233   C     0.69937   0.00934   0.42573   0.00000  Uiso   1.00
C234   C     0.63360   0.01078   0.47458   0.00000  Uiso   1.00
C235   C     0.52399   0.05157   0.57365   0.00000  Uiso   1.00
C236   C     0.84291   0.91796   0.19829   0.00000  Uiso   1.00
C237   C     0.89178   0.00386   0.13463   0.00000  Uiso   1.00
C238   C     0.91401   0.00279   0.05035   0.00000  Uiso   1.00
C239   C     0.96671   0.03889   0.90389   0.00000  Uiso   1.00
C240   C     0.82073   0.76389   0.30391   0.00000  Uiso   1.00
C241   C     0.85097   0.72025   0.32903   0.00000  Uiso   1.00
C242   C     0.85454   0.58946   0.33366   0.00000  Uiso   1.00
C243   C     0.87279   0.38636   0.35118   0.00000  Uiso   1.00
C244   C     0.76409   0.74825   0.25805   0.00000  Uiso   1.00
C245   C     0.71264   0.83692   0.33660   0.00000  Uiso   1.00
C246   C     0.64691   0.83822   0.38536   0.00000  Uiso   1.00
C247   C     0.60780   0.92662   0.45473   0.00000  Uiso   1.00
C248   C     0.81716   0.83395   0.17847   0.00000  Uiso   1.00
C249   C     0.83932   0.83274   0.09426   0.00000  Uiso   1.00
C250   C     0.88821   0.91863   0.03049   0.00000  Uiso   1.00
C251   C     0.79498   0.67988   0.28409   0.00000  Uiso   1.00
C252   C     0.79851   0.54913   0.28867   0.00000  Uiso   1.00
C253   C     0.82874   0.50530   0.31380   0.00000  Uiso   1.00
H254   H     0.83156   0.96833   0.30997   0.00000  Uiso   1.00
H255   H     0.71932   0.07435   0.44104   0.00000  Uiso   1.00
H256   H     0.91171   0.06885   0.14998   0.00000  Uiso   1.00
H257   H     0.87089   0.78529   0.34436   0.00000  Uiso   1.00
H258   H     0.58353   0.15487   0.57760   0.00000  Uiso   1.00
H259   H     0.98920   0.14326   0.96388   0.00000  Uiso   1.00
H260   H     0.90314   0.54531   0.37376   0.00000  Uiso   1.00
H261   H     0.74404   0.68284   0.24262   0.00000  Uiso   1.00
H262   H     0.62700   0.77320   0.37001   0.00000  Uiso   1.00
H263   H     0.81939   0.76771   0.07894   0.00000  Uiso   1.00
H264   H     0.77857   0.48415   0.27332   0.00000  Uiso   1.00
H265   H     0.50860   0.91046   0.51995   0.00000  Uiso   1.00
H266   H     0.91427   0.89884   0.90621   0.00000  Uiso   1.00
H267   H     0.82821   0.30089   0.31610   0.00000  Uiso   1.00
O268   O     0.47065   0.09728   0.63377   0.00000  Uiso   1.00
O269   O     0.00288   0.08203   0.82858   0.00000  Uiso   1.00
O270   O     0.88997   0.29754   0.36634   0.00000  Uiso   1.00
N271   N     0.58195   0.08493   0.54656   0.00000  Uiso   1.00
N272   N     0.96123   0.07409   0.97277   0.00000  Uiso   1.00
N273   N     0.88078   0.51506   0.35595   0.00000  Uiso   1.00
N274   N     0.54163   0.95341   0.51554   0.00000  Uiso   1.00
N275   N     0.92091   0.94257   0.94175   0.00000  Uiso   1.00
N276   N     0.84046   0.38354   0.32493   0.00000  Uiso   1.00
C277   C     0.68849   0.40292   0.20546   0.00000  Uiso   1.00
C278   C     0.76161   0.42093   0.14357   0.00000  Uiso   1.00
C279   C     0.80063   0.50934   0.07427   0.00000  Uiso   1.00
C280   C     0.86640   0.51078   0.02542   0.00000  Uiso   1.00
C281   C     0.97601   0.55157   0.92635   0.00000  Uiso   1.00
C282   C     0.65709   0.41796   0.30171   0.00000  Uiso   1.00
C283   C     0.60822   0.50386   0.36537   0.00000  Uiso   1.00
C284   C     0.58599   0.50279   0.44965   0.00000  Uiso   1.00
C285   C     0.53329   0.53889   0.59611   0.00000  Uiso   1.00
C286   C     0.67927   0.26389   0.19609   0.00000  Uiso   1.00
C287   C     0.64903   0.22025   0.17097   0.00000  Uiso   1.00
C288   C     0.64546   0.08946   0.16634   0.00000  Uiso   1.00
C289   C     0.62721   0.88636   0.14882   0.00000  Uiso   1.00
C290   C     0.73591   0.24825   0.24195   0.00000  Uiso   1.00
C291   C     0.78736   0.33692   0.16340   0.00000  Uiso   1.00
C292   C     0.85309   0.33822   0.11464   0.00000  Uiso   1.00
C293   C     0.89220   0.42662   0.04527   0.00000  Uiso   1.00
C294   C     0.68284   0.33395   0.32153   0.00000  Uiso   1.00
C295   C     0.66068   0.33274   0.40574   0.00000  Uiso   1.00
C296   C     0.61179   0.41863   0.46951   0.00000  Uiso   1.00
C297   C     0.70502   0.17988   0.21591   0.00000  Uiso   1.00
C298   C     0.70149   0.04913   0.21133   0.00000  Uiso   1.00
C299   C     0.67126   0.00530   0.18620   0.00000  Uiso   1.00
H300   H     0.66844   0.46833   0.19003   0.00000  Uiso   1.00
H301   H     0.78068   0.57435   0.05896   0.00000  Uiso   1.00
H302   H     0.58829   0.56885   0.35002   0.00000  Uiso   1.00
H303   H     0.62911   0.28529   0.15564   0.00000  Uiso   1.00
H304   H     0.91647   0.65487   0.92240   0.00000  Uiso   1.00
H305   H     0.51080   0.64326   0.53612   0.00000  Uiso   1.00
H306   H     0.59686   0.04531   0.12624   0.00000  Uiso   1.00
H307   H     0.75596   0.18284   0.25738   0.00000  Uiso   1.00
H308   H     0.87300   0.27320   0.12999   0.00000  Uiso   1.00
H309   H     0.68061   0.26771   0.42106   0.00000  Uiso   1.00
H310   H     0.72143   0.98415   0.22668   0.00000  Uiso   1.00
H311   H     0.99140   0.41046   0.98005   0.00000  Uiso   1.00
H312   H     0.58573   0.39884   0.59379   0.00000  Uiso   1.00
H313   H     0.67179   0.80089   0.18390   0.00000  Uiso   1.00
O314   O     0.02935   0.59728   0.86623   0.00000  Uiso   1.00
O315   O     0.49712   0.58203   0.67142   0.00000  Uiso   1.00
O316   O     0.61003   0.79754   0.13366   0.00000  Uiso   1.00
N317   N     0.91805   0.58493   0.95344   0.00000  Uiso   1.00
N318   N     0.53877   0.57409   0.52723   0.00000  Uiso   1.00
N319   N     0.61922   0.01506   0.14405   0.00000  Uiso   1.00
N320   N     0.95837   0.45341   0.98446   0.00000  Uiso   1.00
N321   N     0.57909   0.44257   0.55825   0.00000  Uiso   1.00
N322   N     0.65954   0.88354   0.17507   0.00000  Uiso   1.00
C323   C     0.18849   0.90292   0.20546   0.00000  Uiso   1.00
C324   C     0.26161   0.92093   0.14357   0.00000  Uiso   1.00
C325   C     0.30063   0.00934   0.07427   0.00000  Uiso   1.00
C326   C     0.36640   0.01078   0.02542   0.00000  Uiso   1.00
C327   C     0.47601   0.05157   0.92635   0.00000  Uiso   1.00
C328   C     0.15709   0.91796   0.30171   0.00000  Uiso   1.00
C329   C     0.10822   0.00386   0.36537   0.00000  Uiso   1.00
C330   C     0.08599   0.00279   0.44965   0.00000  Uiso   1.00
C331   C     0.03329   0.03889   0.59611   0.00000  Uiso   1.00
C332   C     0.17927   0.76389   0.19609   0.00000  Uiso   1.00
C333   C     0.14903   0.72025   0.17097   0.00000  Uiso   1.00
C334   C     0.14546   0.58946   0.16634   0.00000  Uiso   1.00
C335   C     0.12721   0.38636   0.14882   0.00000  Uiso   1.00
C336   C     0.23591   0.74825   0.24195   0.00000  Uiso   1.00
C337   C     0.28736   0.83692   0.16340   0.00000  Uiso   1.00
C338   C     0.35309   0.83822   0.11464   0.00000  Uiso   1.00
C339   C     0.39220   0.92662   0.04527   0.00000  Uiso   1.00
C340   C     0.18284   0.83395   0.32153   0.00000  Uiso   1.00
C341   C     0.16068   0.83274   0.40574   0.00000  Uiso   1.00
C342   C     0.11179   0.91863   0.46951   0.00000  Uiso   1.00
C343   C     0.20502   0.67988   0.21591   0.00000  Uiso   1.00
C344   C     0.20149   0.54913   0.21133   0.00000  Uiso   1.00
C345   C     0.17126   0.50530   0.18620   0.00000  Uiso   1.00
H346   H     0.16844   0.96833   0.19003   0.00000  Uiso   1.00
H347   H     0.28068   0.07435   0.05896   0.00000  Uiso   1.00
H348   H     0.08829   0.06885   0.35002   0.00000  Uiso   1.00
H349   H     0.12911   0.78529   0.15564   0.00000  Uiso   1.00
H350   H     0.41647   0.15487   0.92240   0.00000  Uiso   1.00
H351   H     0.01080   0.14326   0.53612   0.00000  Uiso   1.00
H352   H     0.09686   0.54531   0.12624   0.00000  Uiso   1.00
H353   H     0.25596   0.68284   0.25738   0.00000  Uiso   1.00
H354   H     0.37300   0.77320   0.12999   0.00000  Uiso   1.00
H355   H     0.18061   0.76771   0.42106   0.00000  Uiso   1.00
H356   H     0.22143   0.48415   0.22668   0.00000  Uiso   1.00
H357   H     0.49140   0.91046   0.98005   0.00000  Uiso   1.00
H358   H     0.08573   0.89884   0.59379   0.00000  Uiso   1.00
H359   H     0.17179   0.30089   0.18390   0.00000  Uiso   1.00
O360   O     0.52935   0.09728   0.86623   0.00000  Uiso   1.00
O361   O     0.99712   0.08203   0.67142   0.00000  Uiso   1.00
O362   O     0.11003   0.29754   0.13366   0.00000  Uiso   1.00
N363   N     0.41805   0.08493   0.95344   0.00000  Uiso   1.00
N364   N     0.03877   0.07409   0.52723   0.00000  Uiso   1.00
N365   N     0.11922   0.51506   0.14405   0.00000  Uiso   1.00
N366   N     0.45837   0.95341   0.98446   0.00000  Uiso   1.00
N367   N     0.07909   0.94257   0.55825   0.00000  Uiso   1.00
N368   N     0.15954   0.38354   0.17507   0.00000  Uiso   1.00
