data_job_06355
_audit_creation_date              2018-12-19
_audit_creation_method            'Materials Studio'
_symmetry_space_group_name_H-M    'P1'
_symmetry_Int_Tables_number       1
_symmetry_cell_setting            triclinic
loop_
_symmetry_equiv_pos_as_xyz
  x,y,z
_cell_length_a                    14.8452
_cell_length_b                    16.5867
_cell_length_c                    17.0609
_cell_angle_alpha                 111.8830
_cell_angle_beta                  72.2999
_cell_angle_gamma                 75.5366
loop_
_atom_site_label
_atom_site_type_symbol
_atom_site_fract_x
_atom_site_fract_y
_atom_site_fract_z
_atom_site_U_iso_or_equiv
_atom_site_adp_type
_atom_site_occupancy
C1     C     0.88186   0.47437   0.09988   0.00000  Uiso   1.00
C2     C     0.84228   0.39600   0.07892   0.00000  Uiso   1.00
C3     C     0.88158   0.31543   0.99224   0.00000  Uiso   1.00
C4     C     0.83465   0.25222   0.98754   0.00000  Uiso   1.00
C5     C     0.78582   0.12799   0.94294   0.00000  Uiso   1.00
C6     C     0.78858   0.56712   0.14017   0.00000  Uiso   1.00
C7     C     0.78274   0.63042   0.10499   0.00000  Uiso   1.00
C8     C     0.69060   0.71126   0.15186   0.00000  Uiso   1.00
C9     C     0.55843   0.85273   0.20239   0.00000  Uiso   1.00
C10    C     0.90969   0.48124   0.18044   0.00000  Uiso   1.00
C11    C     0.00567   0.47237   0.17915   0.00000  Uiso   1.00
C12    C     0.01549   0.48093   0.25994   0.00000  Uiso   1.00
C13    C     0.07136   0.48907   0.37301   0.00000  Uiso   1.00
C14    C     0.72862   0.50537   0.24566   0.00000  Uiso   1.00
C15    C     0.75904   0.41285   0.15811   0.00000  Uiso   1.00
C16    C     0.71204   0.34973   0.15354   0.00000  Uiso   1.00
C17    C     0.75126   0.26908   0.06687   0.00000  Uiso   1.00
C18    C     0.70535   0.58396   0.21935   0.00000  Uiso   1.00
C19    C     0.61320   0.66472   0.26629   0.00000  Uiso   1.00
C20    C     0.60721   0.72813   0.23119   0.00000  Uiso   1.00
C21    C     0.82646   0.49808   0.25963   0.00000  Uiso   1.00
C22    C     0.83613   0.50667   0.34044   0.00000  Uiso   1.00
C23    C     0.93210   0.49780   0.33927   0.00000  Uiso   1.00
H24    H     0.94666   0.46126   0.03823   0.00000  Uiso   1.00
H25    H     0.94599   0.30243   0.93097   0.00000  Uiso   1.00
H26    H     0.84717   0.61737   0.04372   0.00000  Uiso   1.00
H27    H     0.07006   0.45934   0.11786   0.00000  Uiso   1.00
H28    H     0.90852   0.13378   0.84698   0.00000  Uiso   1.00
H29    H     0.70016   0.79787   0.08472   0.00000  Uiso   1.00
H30    H     0.17018   0.46463   0.24106   0.00000  Uiso   1.00
H31    H     0.66381   0.51849   0.30731   0.00000  Uiso   1.00
H32    H     0.64763   0.36278   0.21482   0.00000  Uiso   1.00
H33    H     0.54880   0.67773   0.32757   0.00000  Uiso   1.00
H34    H     0.77170   0.51970   0.40171   0.00000  Uiso   1.00
H35    H     0.66636   0.18276   0.07736   0.00000  Uiso   1.00
H36    H     0.45800   0.84687   0.31510   0.00000  Uiso   1.00
H37    H     0.92801   0.51362   0.47145   0.00000  Uiso   1.00
O38    O     0.78187   0.05483   0.89646   0.00000  Uiso   1.00
O39    O     0.50852   0.92610   0.20838   0.00000  Uiso   1.00
O40    O     0.12518   0.48889   0.41350   0.00000  Uiso   1.00
N41    N     0.85376   0.16666   0.91390   0.00000  Uiso   1.00
N42    N     0.65895   0.78755   0.13616   0.00000  Uiso   1.00
N43    N     0.09837   0.47602   0.28234   0.00000  Uiso   1.00
N44    N     0.72346   0.19302   0.03786   0.00000  Uiso   1.00
N45    N     0.52864   0.81391   0.26013   0.00000  Uiso   1.00
N46    N     0.96807   0.50237   0.40631   0.00000  Uiso   1.00
C47    C     0.98053   0.90404   0.36872   0.00000  Uiso   1.00
C48    C     0.92201   0.92371   0.31369   0.00000  Uiso   1.00
C49    C     0.87724   0.01147   0.32012   0.00000  Uiso   1.00
C50    C     0.82713   0.01468   0.26392   0.00000  Uiso   1.00
C51    C     0.73699   0.05765   0.18769   0.00000  Uiso   1.00
C52    C     0.92581   0.86003   0.42087   0.00000  Uiso   1.00
C53    C     0.88425   0.89423   0.51741   0.00000  Uiso   1.00
C54    C     0.83734   0.84382   0.55143   0.00000  Uiso   1.00
C55    C     0.75318   0.78788   0.64159   0.00000  Uiso   1.00
C56    C     0.08732   0.82536   0.29539   0.00000  Uiso   1.00
C57    C     0.18157   0.83040   0.28643   0.00000  Uiso   1.00
C58    C     0.27065   0.75079   0.21482   0.00000  Uiso   1.00
C59    C     0.43725   0.64102   0.11015   0.00000  Uiso   1.00
C60    C     0.97113   0.75369   0.25748   0.00000  Uiso   1.00
C61    C     0.91690   0.84204   0.25327   0.00000  Uiso   1.00
C62    C     0.86685   0.84512   0.19704   0.00000  Uiso   1.00
C63    C     0.82202   0.93287   0.20339   0.00000  Uiso   1.00
C64    C     0.92070   0.77836   0.36045   0.00000  Uiso   1.00
C65    C     0.87385   0.72788   0.39433   0.00000  Uiso   1.00
C66    C     0.83223   0.76200   0.49090   0.00000  Uiso   1.00
C67    C     0.08222   0.74369   0.23496   0.00000  Uiso   1.00
C68    C     0.17117   0.66405   0.16335   0.00000  Uiso   1.00
C69    C     0.26554   0.66897   0.15429   0.00000  Uiso   1.00
H70    H     0.98450   0.96762   0.41577   0.00000  Uiso   1.00
H71    H     0.88120   0.07466   0.36690   0.00000  Uiso   1.00
H72    H     0.88822   0.95743   0.56415   0.00000  Uiso   1.00
H73    H     0.18549   0.89361   0.33321   0.00000  Uiso   1.00
H74    H     0.76439   0.15732   0.28609   0.00000  Uiso   1.00
H75    H     0.77922   0.91012   0.70201   0.00000  Uiso   1.00
H76    H     0.40607   0.77554   0.21502   0.00000  Uiso   1.00
H77    H     0.96716   0.69010   0.21044   0.00000  Uiso   1.00
H78    H     0.86291   0.78191   0.15029   0.00000  Uiso   1.00
H79    H     0.86993   0.66468   0.34755   0.00000  Uiso   1.00
H80    H     0.16719   0.60086   0.11661   0.00000  Uiso   1.00
H81    H     0.74954   0.91971   0.11029   0.00000  Uiso   1.00
H82    H     0.76438   0.67251   0.52621   0.00000  Uiso   1.00
H83    H     0.39122   0.53794   0.03922   0.00000  Uiso   1.00
O84    O     0.68868   0.10392   0.16235   0.00000  Uiso   1.00
O85    O     0.70815   0.77960   0.70802   0.00000  Uiso   1.00
O86    O     0.53056   0.60304   0.06910   0.00000  Uiso   1.00
N87    N     0.77522   0.08879   0.25295   0.00000  Uiso   1.00
N88    N     0.78907   0.85768   0.64182   0.00000  Uiso   1.00
N89    N     0.37513   0.73186   0.18654   0.00000  Uiso   1.00
N90    N     0.76724   0.96094   0.15835   0.00000  Uiso   1.00
N91    N     0.78108   0.72983   0.54722   0.00000  Uiso   1.00
N92    N     0.36714   0.60401   0.09194   0.00000  Uiso   1.00
C93    C     0.34389   0.63430   0.53428   0.00000  Uiso   1.00
C94    C     0.23125   0.68638   0.60877   0.00000  Uiso   1.00
C95    C     0.19151   0.67777   0.68870   0.00000  Uiso   1.00
C96    C     0.08637   0.73142   0.74816   0.00000  Uiso   1.00
C97    C     0.92104   0.80311   0.86682   0.00000  Uiso   1.00
C98    C     0.34162   0.58085   0.44077   0.00000  Uiso   1.00
C99    C     0.39469   0.48352   0.37945   0.00000  Uiso   1.00
C100   C     0.38246   0.44834   0.29748   0.00000  Uiso   1.00
C101   C     0.38855   0.35620   0.15529   0.00000  Uiso   1.00
C102   C     0.37927   0.71146   0.52826   0.00000  Uiso   1.00
C103   C     0.46402   0.72393   0.54046   0.00000  Uiso   1.00
C104   C     0.48352   0.79870   0.53213   0.00000  Uiso   1.00
C105   C     0.54807   0.90935   0.52576   0.00000  Uiso   1.00
C106   C     0.22784   0.74490   0.49775   0.00000  Uiso   1.00
C107   C     0.16821   0.74645   0.58893   0.00000  Uiso   1.00
C108   C     0.06311   0.80013   0.64829   0.00000  Uiso   1.00
C109   C     0.02322   0.79160   0.72829   0.00000  Uiso   1.00
C110   C     0.27858   0.64092   0.42093   0.00000  Uiso   1.00
C111   C     0.26629   0.60588   0.33904   0.00000  Uiso   1.00
C112   C     0.31932   0.50851   0.27760   0.00000  Uiso   1.00
C113   C     0.31624   0.77153   0.50842   0.00000  Uiso   1.00
C114   C     0.33561   0.84629   0.50005   0.00000  Uiso   1.00
C115   C     0.42037   0.85887   0.51225   0.00000  Uiso   1.00
H116   H     0.39297   0.58753   0.54972   0.00000  Uiso   1.00
H117   H     0.24031   0.63126   0.70402   0.00000  Uiso   1.00
H118   H     0.44347   0.43705   0.39481   0.00000  Uiso   1.00
H119   H     0.51278   0.67743   0.55581   0.00000  Uiso   1.00
H120   H     0.04326   0.70622   0.86632   0.00000  Uiso   1.00
H121   H     0.47165   0.29671   0.21433   0.00000  Uiso   1.00
H122   H     0.61782   0.80359   0.55382   0.00000  Uiso   1.00
H123   H     0.17876   0.79166   0.48231   0.00000  Uiso   1.00
H124   H     0.01435   0.84661   0.63292   0.00000  Uiso   1.00
H125   H     0.21751   0.65239   0.32371   0.00000  Uiso   1.00
H126   H     0.28682   0.89276   0.48470   0.00000  Uiso   1.00
H127   H     0.85986   0.88100   0.80861   0.00000  Uiso   1.00
H128   H     0.28826   0.47148   0.15662   0.00000  Uiso   1.00
H129   H     0.43442   0.97836   0.49610   0.00000  Uiso   1.00
O130   O     0.84726   0.82605   0.93774   0.00000  Uiso   1.00
O131   O     0.40931   0.28878   0.08235   0.00000  Uiso   1.00
O132   O     0.60108   0.95380   0.52775   0.00000  Uiso   1.00
N133   N     0.02267   0.73983   0.83208   0.00000  Uiso   1.00
N134   N     0.42317   0.35695   0.22252   0.00000  Uiso   1.00
N135   N     0.55984   0.83083   0.53988   0.00000  Uiso   1.00
N136   N     0.92398   0.83388   0.80103   0.00000  Uiso   1.00
N137   N     0.32449   0.45100   0.19146   0.00000  Uiso   1.00
N138   N     0.46116   0.92488   0.50883   0.00000  Uiso   1.00
C139   C     0.11814   0.52563   0.90012   0.00000  Uiso   1.00
C140   C     0.15772   0.60400   0.92108   0.00000  Uiso   1.00
C141   C     0.11842   0.68457   0.00776   0.00000  Uiso   1.00
C142   C     0.16535   0.74778   0.01246   0.00000  Uiso   1.00
C143   C     0.21418   0.87201   0.05706   0.00000  Uiso   1.00
C144   C     0.21142   0.43288   0.85983   0.00000  Uiso   1.00
C145   C     0.21726   0.36958   0.89501   0.00000  Uiso   1.00
C146   C     0.30940   0.28874   0.84814   0.00000  Uiso   1.00
C147   C     0.44157   0.14727   0.79761   0.00000  Uiso   1.00
C148   C     0.09031   0.51876   0.81956   0.00000  Uiso   1.00
C149   C     0.99433   0.52763   0.82085   0.00000  Uiso   1.00
C150   C     0.98451   0.51907   0.74006   0.00000  Uiso   1.00
C151   C     0.92864   0.51093   0.62699   0.00000  Uiso   1.00
C152   C     0.27138   0.49463   0.75434   0.00000  Uiso   1.00
C153   C     0.24096   0.58715   0.84189   0.00000  Uiso   1.00
C154   C     0.28796   0.65027   0.84646   0.00000  Uiso   1.00
C155   C     0.24874   0.73092   0.93313   0.00000  Uiso   1.00
C156   C     0.29465   0.41604   0.78065   0.00000  Uiso   1.00
C157   C     0.38680   0.33528   0.73371   0.00000  Uiso   1.00
C158   C     0.39279   0.27187   0.76881   0.00000  Uiso   1.00
C159   C     0.17354   0.50192   0.74037   0.00000  Uiso   1.00
C160   C     0.16388   0.49333   0.65956   0.00000  Uiso   1.00
C161   C     0.06790   0.50220   0.66073   0.00000  Uiso   1.00
H162   H     0.05334   0.53874   0.96177   0.00000  Uiso   1.00
H163   H     0.05401   0.69757   0.06903   0.00000  Uiso   1.00
H164   H     0.15283   0.38263   0.95628   0.00000  Uiso   1.00
H165   H     0.92994   0.54066   0.88214   0.00000  Uiso   1.00
H166   H     0.09148   0.86622   0.15302   0.00000  Uiso   1.00
H167   H     0.29984   0.20213   0.91528   0.00000  Uiso   1.00
H168   H     0.82982   0.53537   0.75894   0.00000  Uiso   1.00
H169   H     0.33619   0.48151   0.69269   0.00000  Uiso   1.00
H170   H     0.35237   0.63722   0.78517   0.00000  Uiso   1.00
H171   H     0.45120   0.32227   0.67243   0.00000  Uiso   1.00
H172   H     0.22830   0.48030   0.59829   0.00000  Uiso   1.00
H173   H     0.33364   0.81724   0.92264   0.00000  Uiso   1.00
H174   H     0.54200   0.15313   0.68490   0.00000  Uiso   1.00
H175   H     0.07199   0.48638   0.52855   0.00000  Uiso   1.00
O176   O     0.21813   0.94517   0.10354   0.00000  Uiso   1.00
O177   O     0.49148   0.07389   0.79162   0.00000  Uiso   1.00
O178   O     0.87482   0.51111   0.58650   0.00000  Uiso   1.00
N179   N     0.14624   0.83334   0.08610   0.00000  Uiso   1.00
N180   N     0.34105   0.21245   0.86384   0.00000  Uiso   1.00
N181   N     0.90163   0.52398   0.71766   0.00000  Uiso   1.00
N182   N     0.27654   0.80698   0.96214   0.00000  Uiso   1.00
N183   N     0.47136   0.18609   0.73987   0.00000  Uiso   1.00
N184   N     0.03193   0.49762   0.59369   0.00000  Uiso   1.00
C185   C     0.01947   0.09596   0.63128   0.00000  Uiso   1.00
C186   C     0.07799   0.07629   0.68631   0.00000  Uiso   1.00
C187   C     0.12276   0.98853   0.67988   0.00000  Uiso   1.00
C188   C     0.17287   0.98532   0.73608   0.00000  Uiso   1.00
C189   C     0.26301   0.94235   0.81231   0.00000  Uiso   1.00
C190   C     0.07419   0.13997   0.57913   0.00000  Uiso   1.00
C191   C     0.11575   0.10577   0.48259   0.00000  Uiso   1.00
C192   C     0.16266   0.15618   0.44857   0.00000  Uiso   1.00
C193   C     0.24682   0.21212   0.35841   0.00000  Uiso   1.00
C194   C     0.91268   0.17464   0.70461   0.00000  Uiso   1.00
C195   C     0.81843   0.16960   0.71356   0.00000  Uiso   1.00
C196   C     0.72935   0.24921   0.78518   0.00000  Uiso   1.00
C197   C     0.56275   0.35898   0.88985   0.00000  Uiso   1.00
C198   C     0.02887   0.24631   0.74252   0.00000  Uiso   1.00
C199   C     0.08310   0.15796   0.74673   0.00000  Uiso   1.00
C200   C     0.13315   0.15488   0.80296   0.00000  Uiso   1.00
C201   C     0.17798   0.06713   0.79661   0.00000  Uiso   1.00
C202   C     0.07930   0.22164   0.63955   0.00000  Uiso   1.00
C203   C     0.12615   0.27212   0.60567   0.00000  Uiso   1.00
C204   C     0.16777   0.23800   0.50910   0.00000  Uiso   1.00
C205   C     0.91778   0.25631   0.76504   0.00000  Uiso   1.00
C206   C     0.82883   0.33595   0.83665   0.00000  Uiso   1.00
C207   C     0.73446   0.33103   0.84571   0.00000  Uiso   1.00
H208   H     0.01550   0.03238   0.58423   0.00000  Uiso   1.00
H209   H     0.11880   0.92534   0.63310   0.00000  Uiso   1.00
H210   H     0.11178   0.04257   0.43585   0.00000  Uiso   1.00
H211   H     0.81451   0.10639   0.66679   0.00000  Uiso   1.00
H212   H     0.23561   0.84268   0.71391   0.00000  Uiso   1.00
H213   H     0.22078   0.08988   0.29799   0.00000  Uiso   1.00
H214   H     0.59393   0.22446   0.78498   0.00000  Uiso   1.00
H215   H     0.03284   0.30990   0.78956   0.00000  Uiso   1.00
H216   H     0.13709   0.21809   0.84971   0.00000  Uiso   1.00
H217   H     0.13008   0.33532   0.65245   0.00000  Uiso   1.00
H218   H     0.83281   0.39914   0.88339   0.00000  Uiso   1.00
H219   H     0.25046   0.08029   0.88971   0.00000  Uiso   1.00
H220   H     0.23563   0.32749   0.47379   0.00000  Uiso   1.00
H221   H     0.60878   0.46206   0.96078   0.00000  Uiso   1.00
O222   O     0.31133   0.89608   0.83765   0.00000  Uiso   1.00
O223   O     0.29185   0.22040   0.29198   0.00000  Uiso   1.00
O224   O     0.46944   0.39696   0.93090   0.00000  Uiso   1.00
N225   N     0.22478   0.91121   0.74705   0.00000  Uiso   1.00
N226   N     0.21093   0.14231   0.35818   0.00000  Uiso   1.00
N227   N     0.62487   0.26814   0.81346   0.00000  Uiso   1.00
N228   N     0.23276   0.03906   0.84164   0.00000  Uiso   1.00
N229   N     0.21892   0.27017   0.45278   0.00000  Uiso   1.00
N230   N     0.63286   0.39599   0.90806   0.00000  Uiso   1.00
C231   C     0.65611   0.36570   0.46572   0.00000  Uiso   1.00
C232   C     0.76875   0.31362   0.39123   0.00000  Uiso   1.00
C233   C     0.80849   0.32223   0.31130   0.00000  Uiso   1.00
C234   C     0.91363   0.26858   0.25184   0.00000  Uiso   1.00
C235   C     0.07896   0.19689   0.13318   0.00000  Uiso   1.00
C236   C     0.65838   0.41915   0.55923   0.00000  Uiso   1.00
C237   C     0.60531   0.51648   0.62055   0.00000  Uiso   1.00
C238   C     0.61754   0.55166   0.70252   0.00000  Uiso   1.00
C239   C     0.61145   0.64380   0.84471   0.00000  Uiso   1.00
C240   C     0.62073   0.28854   0.47174   0.00000  Uiso   1.00
C241   C     0.53598   0.27607   0.45954   0.00000  Uiso   1.00
C242   C     0.51648   0.20130   0.46787   0.00000  Uiso   1.00
C243   C     0.45193   0.09065   0.47424   0.00000  Uiso   1.00
C244   C     0.77216   0.25510   0.50225   0.00000  Uiso   1.00
C245   C     0.83179   0.25355   0.41107   0.00000  Uiso   1.00
C246   C     0.93689   0.19987   0.35171   0.00000  Uiso   1.00
C247   C     0.97678   0.20840   0.27171   0.00000  Uiso   1.00
C248   C     0.72142   0.35908   0.57907   0.00000  Uiso   1.00
C249   C     0.73371   0.39412   0.66096   0.00000  Uiso   1.00
C250   C     0.68068   0.49149   0.72239   0.00000  Uiso   1.00
C251   C     0.68376   0.22847   0.49158   0.00000  Uiso   1.00
C252   C     0.66439   0.15371   0.49995   0.00000  Uiso   1.00
C253   C     0.57963   0.14112   0.48775   0.00000  Uiso   1.00
H254   H     0.60704   0.41247   0.45028   0.00000  Uiso   1.00
H255   H     0.75969   0.36873   0.29598   0.00000  Uiso   1.00
H256   H     0.55653   0.56295   0.60519   0.00000  Uiso   1.00
H257   H     0.48722   0.32257   0.44419   0.00000  Uiso   1.00
H258   H     0.95674   0.29378   0.13368   0.00000  Uiso   1.00
H259   H     0.52835   0.70329   0.78567   0.00000  Uiso   1.00
H260   H     0.38218   0.19641   0.44618   0.00000  Uiso   1.00
H261   H     0.82124   0.20834   0.51769   0.00000  Uiso   1.00
H262   H     0.98565   0.15339   0.36708   0.00000  Uiso   1.00
H263   H     0.78249   0.34761   0.67629   0.00000  Uiso   1.00
H264   H     0.71318   0.10724   0.51530   0.00000  Uiso   1.00
H265   H     0.14014   0.11900   0.19139   0.00000  Uiso   1.00
H266   H     0.71174   0.52852   0.84338   0.00000  Uiso   1.00
H267   H     0.56558   0.02164   0.50390   0.00000  Uiso   1.00
O268   O     0.15274   0.17395   0.06226   0.00000  Uiso   1.00
O269   O     0.59069   0.71122   0.91765   0.00000  Uiso   1.00
O270   O     0.39892   0.04620   0.47225   0.00000  Uiso   1.00
N271   N     0.97733   0.26017   0.16792   0.00000  Uiso   1.00
N272   N     0.57683   0.64305   0.77748   0.00000  Uiso   1.00
N273   N     0.44016   0.16917   0.46012   0.00000  Uiso   1.00
N274   N     0.07602   0.16612   0.19897   0.00000  Uiso   1.00
N275   N     0.67551   0.54900   0.80854   0.00000  Uiso   1.00
N276   N     0.53884   0.07512   0.49117   0.00000  Uiso   1.00
