data_job_00716
_audit_creation_date              2018-12-19
_audit_creation_method            'Materials Studio'
_symmetry_space_group_name_H-M    'P1'
_symmetry_Int_Tables_number       1
_symmetry_cell_setting            triclinic
loop_
_symmetry_equiv_pos_as_xyz
  x,y,z
_cell_length_a                    7.8191
_cell_length_b                    17.2157
_cell_length_c                    18.6861
_cell_angle_alpha                 90.0000
_cell_angle_beta                  120.0870
_cell_angle_gamma                 90.0000
loop_
_atom_site_label
_atom_site_type_symbol
_atom_site_fract_x
_atom_site_fract_y
_atom_site_fract_z
_atom_site_U_iso_or_equiv
_atom_site_adp_type
_atom_site_occupancy
C1     C     0.18345   0.45007   0.26570   0.00000  Uiso   1.00
C2     C     0.13608   0.43174   0.33373   0.00000  Uiso   1.00
C3     C     0.24811   0.38513   0.40225   0.00000  Uiso   1.00
C4     C     0.17974   0.37553   0.45740   0.00000  Uiso   1.00
C5     C     0.13263   0.34159   0.56500   0.00000  Uiso   1.00
C6     C     0.00258   0.42519   0.18479   0.00000  Uiso   1.00
C7     C     0.00239   0.37308   0.12808   0.00000  Uiso   1.00
C8     C     0.82163   0.35798   0.05784   0.00000  Uiso   1.00
C9     C     0.56728   0.31392   0.93418   0.00000  Uiso   1.00
C10    C     0.19195   0.53840   0.26218   0.00000  Uiso   1.00
C11    C     0.35095   0.58148   0.27051   0.00000  Uiso   1.00
C12    C     0.32961   0.66169   0.26542   0.00000  Uiso   1.00
C13    C     0.36928   0.79340   0.26191   0.00000  Uiso   1.00
C14    C     0.86280   0.51590   0.24180   0.00000  Uiso   1.00
C15    C     0.96191   0.46749   0.32075   0.00000  Uiso   1.00
C16    C     0.89335   0.45796   0.37582   0.00000  Uiso   1.00
C17    C     0.00527   0.41135   0.44440   0.00000  Uiso   1.00
C18    C     0.82842   0.46094   0.17181   0.00000  Uiso   1.00
C19    C     0.64762   0.44592   0.10164   0.00000  Uiso   1.00
C20    C     0.64715   0.39380   0.04484   0.00000  Uiso   1.00
C21    C     0.01778   0.57416   0.24921   0.00000  Uiso   1.00
C22    C     0.99619   0.65432   0.24409   0.00000  Uiso   1.00
C23    C     0.15513   0.69751   0.25241   0.00000  Uiso   1.00
H24    H     0.31904   0.42223   0.27579   0.00000  Uiso   1.00
H25    H     0.38288   0.35746   0.41227   0.00000  Uiso   1.00
H26    H     0.13719   0.34543   0.13813   0.00000  Uiso   1.00
H27    H     0.48570   0.55379   0.28055   0.00000  Uiso   1.00
H28    H     0.37682   0.30140   0.55783   0.00000  Uiso   1.00
H29    H     0.85878   0.27604   0.97980   0.00000  Uiso   1.00
H30    H     0.59368   0.71542   0.28011   0.00000  Uiso   1.00
H31    H     0.72720   0.54374   0.23170   0.00000  Uiso   1.00
H32    H     0.75857   0.48564   0.36576   0.00000  Uiso   1.00
H33    H     0.51288   0.47361   0.09162   0.00000  Uiso   1.00
H34    H     0.86139   0.68197   0.23404   0.00000  Uiso   1.00
H35    H     0.87010   0.40543   0.52008   0.00000  Uiso   1.00
H36    H     0.35206   0.38008   0.94204   0.00000  Uiso   1.00
H37    H     0.08696   0.81945   0.24236   0.00000  Uiso   1.00
O38    O     0.15473   0.31298   0.62793   0.00000  Uiso   1.00
O39    O     0.47510   0.27973   0.86956   0.00000  Uiso   1.00
O40    O     0.43928   0.85617   0.26357   0.00000  Uiso   1.00
N41    N     0.25328   0.33387   0.53056   0.00000  Uiso   1.00
N42    N     0.76893   0.31015   0.99014   0.00000  Uiso   1.00
N43    N     0.45599   0.72093   0.27089   0.00000  Uiso   1.00
N44    N     0.98061   0.38985   0.51025   0.00000  Uiso   1.00
N45    N     0.49627   0.36614   0.96982   0.00000  Uiso   1.00
N46    N     0.18333   0.77691   0.25057   0.00000  Uiso   1.00
C47    C     0.81655   0.95007   0.23430   0.00000  Uiso   1.00
C48    C     0.86392   0.93174   0.16627   0.00000  Uiso   1.00
C49    C     0.75189   0.88513   0.09775   0.00000  Uiso   1.00
C50    C     0.82026   0.87553   0.04260   0.00000  Uiso   1.00
C51    C     0.86737   0.84159   0.93500   0.00000  Uiso   1.00
C52    C     0.99742   0.92519   0.31521   0.00000  Uiso   1.00
C53    C     0.99761   0.87308   0.37192   0.00000  Uiso   1.00
C54    C     0.17837   0.85798   0.44216   0.00000  Uiso   1.00
C55    C     0.43272   0.81392   0.56582   0.00000  Uiso   1.00
C56    C     0.80805   0.03840   0.23782   0.00000  Uiso   1.00
C57    C     0.64905   0.08148   0.22949   0.00000  Uiso   1.00
C58    C     0.67039   0.16169   0.23458   0.00000  Uiso   1.00
C59    C     0.63072   0.29340   0.23809   0.00000  Uiso   1.00
C60    C     0.13720   0.01590   0.25820   0.00000  Uiso   1.00
C61    C     0.03809   0.96749   0.17925   0.00000  Uiso   1.00
C62    C     0.10665   0.95796   0.12418   0.00000  Uiso   1.00
C63    C     0.99473   0.91135   0.05560   0.00000  Uiso   1.00
C64    C     0.17158   0.96094   0.32819   0.00000  Uiso   1.00
C65    C     0.35238   0.94592   0.39836   0.00000  Uiso   1.00
C66    C     0.35285   0.89380   0.45516   0.00000  Uiso   1.00
C67    C     0.98222   0.07416   0.25079   0.00000  Uiso   1.00
C68    C     0.00381   0.15432   0.25591   0.00000  Uiso   1.00
C69    C     0.84487   0.19751   0.24759   0.00000  Uiso   1.00
H70    H     0.68096   0.92223   0.22421   0.00000  Uiso   1.00
H71    H     0.61712   0.85746   0.08773   0.00000  Uiso   1.00
H72    H     0.86281   0.84543   0.36187   0.00000  Uiso   1.00
H73    H     0.51430   0.05379   0.21945   0.00000  Uiso   1.00
H74    H     0.62318   0.80140   0.94217   0.00000  Uiso   1.00
H75    H     0.14122   0.77604   0.52020   0.00000  Uiso   1.00
H76    H     0.40632   0.21542   0.21989   0.00000  Uiso   1.00
H77    H     0.27280   0.04374   0.26830   0.00000  Uiso   1.00
H78    H     0.24143   0.98564   0.13424   0.00000  Uiso   1.00
H79    H     0.48712   0.97361   0.40838   0.00000  Uiso   1.00
H80    H     0.13861   0.18197   0.26596   0.00000  Uiso   1.00
H81    H     0.12990   0.90543   0.97992   0.00000  Uiso   1.00
H82    H     0.64794   0.88008   0.55796   0.00000  Uiso   1.00
H83    H     0.91304   0.31945   0.25764   0.00000  Uiso   1.00
O84    O     0.84527   0.81298   0.87207   0.00000  Uiso   1.00
O85    O     0.52490   0.77973   0.63044   0.00000  Uiso   1.00
O86    O     0.56072   0.35617   0.23643   0.00000  Uiso   1.00
N87    N     0.74672   0.83387   0.96944   0.00000  Uiso   1.00
N88    N     0.23107   0.81015   0.50986   0.00000  Uiso   1.00
N89    N     0.54401   0.22093   0.22911   0.00000  Uiso   1.00
N90    N     0.01939   0.88985   0.98975   0.00000  Uiso   1.00
N91    N     0.50373   0.86614   0.53018   0.00000  Uiso   1.00
N92    N     0.81667   0.27691   0.24943   0.00000  Uiso   1.00
C93    C     0.81655   0.54993   0.73430   0.00000  Uiso   1.00
C94    C     0.86392   0.56826   0.66627   0.00000  Uiso   1.00
C95    C     0.75189   0.61487   0.59775   0.00000  Uiso   1.00
C96    C     0.82026   0.62447   0.54260   0.00000  Uiso   1.00
C97    C     0.86737   0.65841   0.43500   0.00000  Uiso   1.00
C98    C     0.99742   0.57481   0.81521   0.00000  Uiso   1.00
C99    C     0.99761   0.62692   0.87192   0.00000  Uiso   1.00
C100   C     0.17837   0.64202   0.94216   0.00000  Uiso   1.00
C101   C     0.43272   0.68608   0.06582   0.00000  Uiso   1.00
C102   C     0.80805   0.46160   0.73782   0.00000  Uiso   1.00
C103   C     0.64905   0.41852   0.72949   0.00000  Uiso   1.00
C104   C     0.67039   0.33831   0.73458   0.00000  Uiso   1.00
C105   C     0.63072   0.20660   0.73809   0.00000  Uiso   1.00
C106   C     0.13720   0.48410   0.75820   0.00000  Uiso   1.00
C107   C     0.03809   0.53251   0.67925   0.00000  Uiso   1.00
C108   C     0.10665   0.54204   0.62418   0.00000  Uiso   1.00
C109   C     0.99473   0.58865   0.55560   0.00000  Uiso   1.00
C110   C     0.17158   0.53906   0.82819   0.00000  Uiso   1.00
C111   C     0.35238   0.55408   0.89836   0.00000  Uiso   1.00
C112   C     0.35285   0.60620   0.95516   0.00000  Uiso   1.00
C113   C     0.98222   0.42584   0.75079   0.00000  Uiso   1.00
C114   C     0.00381   0.34568   0.75591   0.00000  Uiso   1.00
C115   C     0.84487   0.30249   0.74759   0.00000  Uiso   1.00
H116   H     0.68096   0.57777   0.72421   0.00000  Uiso   1.00
H117   H     0.61712   0.64254   0.58773   0.00000  Uiso   1.00
H118   H     0.86281   0.65457   0.86187   0.00000  Uiso   1.00
H119   H     0.51430   0.44621   0.71945   0.00000  Uiso   1.00
H120   H     0.62318   0.69860   0.44217   0.00000  Uiso   1.00
H121   H     0.14122   0.72396   0.02020   0.00000  Uiso   1.00
H122   H     0.40632   0.28458   0.71989   0.00000  Uiso   1.00
H123   H     0.27280   0.45626   0.76830   0.00000  Uiso   1.00
H124   H     0.24143   0.51436   0.63424   0.00000  Uiso   1.00
H125   H     0.48712   0.52639   0.90838   0.00000  Uiso   1.00
H126   H     0.13861   0.31803   0.76596   0.00000  Uiso   1.00
H127   H     0.12990   0.59457   0.47992   0.00000  Uiso   1.00
H128   H     0.64794   0.61992   0.05796   0.00000  Uiso   1.00
H129   H     0.91304   0.18055   0.75764   0.00000  Uiso   1.00
O130   O     0.84527   0.68702   0.37207   0.00000  Uiso   1.00
O131   O     0.52490   0.72027   0.13044   0.00000  Uiso   1.00
O132   O     0.56072   0.14383   0.73643   0.00000  Uiso   1.00
N133   N     0.74672   0.66613   0.46944   0.00000  Uiso   1.00
N134   N     0.23107   0.68985   0.00986   0.00000  Uiso   1.00
N135   N     0.54401   0.27907   0.72911   0.00000  Uiso   1.00
N136   N     0.01939   0.61015   0.48975   0.00000  Uiso   1.00
N137   N     0.50373   0.63386   0.03018   0.00000  Uiso   1.00
N138   N     0.81667   0.22309   0.74943   0.00000  Uiso   1.00
C139   C     0.18345   0.04993   0.76570   0.00000  Uiso   1.00
C140   C     0.13608   0.06826   0.83373   0.00000  Uiso   1.00
C141   C     0.24811   0.11487   0.90225   0.00000  Uiso   1.00
C142   C     0.17974   0.12447   0.95740   0.00000  Uiso   1.00
C143   C     0.13263   0.15841   0.06500   0.00000  Uiso   1.00
C144   C     0.00258   0.07481   0.68479   0.00000  Uiso   1.00
C145   C     0.00239   0.12692   0.62808   0.00000  Uiso   1.00
C146   C     0.82163   0.14202   0.55784   0.00000  Uiso   1.00
C147   C     0.56728   0.18608   0.43418   0.00000  Uiso   1.00
C148   C     0.19195   0.96160   0.76218   0.00000  Uiso   1.00
C149   C     0.35095   0.91852   0.77051   0.00000  Uiso   1.00
C150   C     0.32961   0.83831   0.76542   0.00000  Uiso   1.00
C151   C     0.36928   0.70660   0.76191   0.00000  Uiso   1.00
C152   C     0.86280   0.98410   0.74180   0.00000  Uiso   1.00
C153   C     0.96191   0.03251   0.82075   0.00000  Uiso   1.00
C154   C     0.89335   0.04204   0.87582   0.00000  Uiso   1.00
C155   C     0.00527   0.08865   0.94440   0.00000  Uiso   1.00
C156   C     0.82842   0.03906   0.67181   0.00000  Uiso   1.00
C157   C     0.64762   0.05408   0.60164   0.00000  Uiso   1.00
C158   C     0.64715   0.10620   0.54484   0.00000  Uiso   1.00
C159   C     0.01778   0.92584   0.74921   0.00000  Uiso   1.00
C160   C     0.99619   0.84568   0.74409   0.00000  Uiso   1.00
C161   C     0.15513   0.80249   0.75241   0.00000  Uiso   1.00
H162   H     0.31904   0.07777   0.77579   0.00000  Uiso   1.00
H163   H     0.38288   0.14254   0.91227   0.00000  Uiso   1.00
H164   H     0.13719   0.15457   0.63813   0.00000  Uiso   1.00
H165   H     0.48570   0.94621   0.78055   0.00000  Uiso   1.00
H166   H     0.37682   0.19860   0.05783   0.00000  Uiso   1.00
H167   H     0.85878   0.22396   0.47980   0.00000  Uiso   1.00
H168   H     0.59368   0.78458   0.78011   0.00000  Uiso   1.00
H169   H     0.72720   0.95626   0.73170   0.00000  Uiso   1.00
H170   H     0.75857   0.01436   0.86576   0.00000  Uiso   1.00
H171   H     0.51288   0.02639   0.59162   0.00000  Uiso   1.00
H172   H     0.86139   0.81803   0.73404   0.00000  Uiso   1.00
H173   H     0.87010   0.09457   0.02008   0.00000  Uiso   1.00
H174   H     0.35206   0.11992   0.44204   0.00000  Uiso   1.00
H175   H     0.08696   0.68055   0.74236   0.00000  Uiso   1.00
O176   O     0.15473   0.18702   0.12793   0.00000  Uiso   1.00
O177   O     0.47510   0.22027   0.36956   0.00000  Uiso   1.00
O178   O     0.43928   0.64383   0.76357   0.00000  Uiso   1.00
N179   N     0.25328   0.16613   0.03056   0.00000  Uiso   1.00
N180   N     0.76893   0.18985   0.49014   0.00000  Uiso   1.00
N181   N     0.45599   0.77907   0.77089   0.00000  Uiso   1.00
N182   N     0.98061   0.11015   0.01025   0.00000  Uiso   1.00
N183   N     0.49627   0.13386   0.46982   0.00000  Uiso   1.00
N184   N     0.18333   0.72309   0.75057   0.00000  Uiso   1.00
