data_job_06963
_audit_creation_date              2018-12-19
_audit_creation_method            'Materials Studio'
_symmetry_space_group_name_H-M    'P1'
_symmetry_Int_Tables_number       1
_symmetry_cell_setting            triclinic
loop_
_symmetry_equiv_pos_as_xyz
  x,y,z
_cell_length_a                    18.2542
_cell_length_b                    22.5836
_cell_length_c                    24.2823
_cell_angle_alpha                 83.7212
_cell_angle_beta                  75.1499
_cell_angle_gamma                 69.6974
loop_
_atom_site_label
_atom_site_type_symbol
_atom_site_fract_x
_atom_site_fract_y
_atom_site_fract_z
_atom_site_U_iso_or_equiv
_atom_site_adp_type
_atom_site_occupancy
C1     C     0.19150   0.09607   0.82490   0.00000  Uiso   1.00
C2     C     0.16547   0.07751   0.77633   0.00000  Uiso   1.00
C3     C     0.21270   0.06214   0.72178   0.00000  Uiso   1.00
C4     C     0.17782   0.04649   0.68347   0.00000  Uiso   1.00
C5     C     0.14944   0.01774   0.60567   0.00000  Uiso   1.00
C6     C     0.13078   0.16045   0.84412   0.00000  Uiso   1.00
C7     C     0.14884   0.21481   0.84657   0.00000  Uiso   1.00
C8     C     0.08476   0.26897   0.86532   0.00000  Uiso   1.00
C9     C     0.00253   0.36898   0.89279   0.00000  Uiso   1.00
C10    C     0.17826   0.04993   0.87408   0.00000  Uiso   1.00
C11    C     0.23623   0.01137   0.90174   0.00000  Uiso   1.00
C12    C     0.21212   0.97249   0.94573   0.00000  Uiso   1.00
C13    C     0.20360   0.90090   0.01972   0.00000  Uiso   1.00
C14    C     0.04558   0.09560   0.85386   0.00000  Uiso   1.00
C15    C     0.08621   0.07726   0.79207   0.00000  Uiso   1.00
C16    C     0.05125   0.06162   0.75383   0.00000  Uiso   1.00
C17    C     0.09842   0.04623   0.69923   0.00000  Uiso   1.00
C18    C     0.05152   0.16020   0.85985   0.00000  Uiso   1.00
C19    C     0.98740   0.21429   0.87861   0.00000  Uiso   1.00
C20    C     0.00536   0.26872   0.88108   0.00000  Uiso   1.00
C21    C     0.09900   0.04967   0.88981   0.00000  Uiso   1.00
C22    C     0.07479   0.01085   0.93378   0.00000  Uiso   1.00
C23    C     0.13271   0.97224   0.96149   0.00000  Uiso   1.00
H24    H     0.25321   0.09627   0.81265   0.00000  Uiso   1.00
H25    H     0.27403   0.06235   0.70962   0.00000  Uiso   1.00
H26    H     0.21019   0.21499   0.83439   0.00000  Uiso   1.00
H27    H     0.29756   0.01158   0.88955   0.00000  Uiso   1.00
H28    H     0.26215   0.02465   0.60233   0.00000  Uiso   1.00
H29    H     0.12754   0.34649   0.86543   0.00000  Uiso   1.00
H30    H     0.31179   0.91757   0.98175   0.00000  Uiso   1.00
H31    H     0.98387   0.09541   0.86611   0.00000  Uiso   1.00
H32    H     0.98991   0.06143   0.76601   0.00000  Uiso   1.00
H33    H     0.92607   0.21408   0.89078   0.00000  Uiso   1.00
H34    H     0.01345   0.01067   0.94594   0.00000  Uiso   1.00
H35    H     0.03155   0.02391   0.64810   0.00000  Uiso   1.00
H36    H     0.89694   0.34576   0.91120   0.00000  Uiso   1.00
H37    H     0.08119   0.91683   0.02751   0.00000  Uiso   1.00
O38    O     0.15568   0.00197   0.55840   0.00000  Uiso   1.00
O39    O     0.97907   0.42421   0.90359   0.00000  Uiso   1.00
O40    O     0.22080   0.86147   0.05618   0.00000  Uiso   1.00
N41    N     0.20706   0.02912   0.62684   0.00000  Uiso   1.00
N42    N     0.08120   0.33003   0.87282   0.00000  Uiso   1.00
N43    N     0.25345   0.92904   0.98157   0.00000  Uiso   1.00
N44    N     0.08297   0.02873   0.65147   0.00000  Uiso   1.00
N45    N     0.95712   0.32964   0.89745   0.00000  Uiso   1.00
N46    N     0.12937   0.92864   0.00620   0.00000  Uiso   1.00
C47    C     0.81269   0.71496   0.96105   0.00000  Uiso   1.00
C48    C     0.73716   0.75806   0.94300   0.00000  Uiso   1.00
C49    C     0.65902   0.76085   0.96929   0.00000  Uiso   1.00
C50    C     0.59818   0.80340   0.94632   0.00000  Uiso   1.00
C51    C     0.47835   0.86446   0.92552   0.00000  Uiso   1.00
C52    C     0.86631   0.67697   0.90875   0.00000  Uiso   1.00
C53    C     0.89676   0.61158   0.90624   0.00000  Uiso   1.00
C54    C     0.94464   0.58586   0.85443   0.00000  Uiso   1.00
C55    C     0.02536   0.52103   0.78046   0.00000  Uiso   1.00
C56    C     0.85578   0.75822   0.97140   0.00000  Uiso   1.00
C57    C     0.87741   0.76115   0.02156   0.00000  Uiso   1.00
C58    C     0.91645   0.80384   0.02250   0.00000  Uiso   1.00
C59    C     0.98083   0.86518   0.04580   0.00000  Uiso   1.00
C60    C     0.84360   0.78556   0.87350   0.00000  Uiso   1.00
C61    C     0.75395   0.79640   0.89545   0.00000  Uiso   1.00
C62    C     0.69321   0.83896   0.87243   0.00000  Uiso   1.00
C63    C     0.61499   0.84182   0.89869   0.00000  Uiso   1.00
C64    C     0.88310   0.71531   0.86120   0.00000  Uiso   1.00
C65    C     0.93095   0.68969   0.80938   0.00000  Uiso   1.00
C66    C     0.96146   0.62428   0.80679   0.00000  Uiso   1.00
C67    C     0.87257   0.79657   0.92385   0.00000  Uiso   1.00
C68    C     0.91160   0.83926   0.92470   0.00000  Uiso   1.00
C69    C     0.93327   0.84225   0.97486   0.00000  Uiso   1.00
H70    H     0.79962   0.68510   0.99807   0.00000  Uiso   1.00
H71    H     0.64605   0.73116   0.00609   0.00000  Uiso   1.00
H72    H     0.88376   0.58191   0.94304   0.00000  Uiso   1.00
H73    H     0.86441   0.73146   0.05835   0.00000  Uiso   1.00
H74    H     0.48319   0.79912   0.99400   0.00000  Uiso   1.00
H75    H     0.98444   0.48443   0.86108   0.00000  Uiso   1.00
H76    H     0.94363   0.79978   0.10422   0.00000  Uiso   1.00
H77    H     0.85667   0.81541   0.83648   0.00000  Uiso   1.00
H78    H     0.70622   0.86863   0.83564   0.00000  Uiso   1.00
H79    H     0.94394   0.71938   0.77259   0.00000  Uiso   1.00
H80    H     0.92458   0.86893   0.88790   0.00000  Uiso   1.00
H81    H     0.53203   0.91070   0.85565   0.00000  Uiso   1.00
H82    H     0.03328   0.59600   0.72273   0.00000  Uiso   1.00
H83    H     0.99247   0.91136   0.96587   0.00000  Uiso   1.00
O84    O     0.40762   0.88755   0.92717   0.00000  Uiso   1.00
O85    O     0.06524   0.47468   0.75279   0.00000  Uiso   1.00
O86    O     0.01170   0.88842   0.07179   0.00000  Uiso   1.00
N87    N     0.51533   0.81809   0.96156   0.00000  Uiso   1.00
N88    N     0.98396   0.52386   0.83728   0.00000  Uiso   1.00
N89    N     0.94582   0.81868   0.06460   0.00000  Uiso   1.00
N90    N     0.54161   0.87812   0.88712   0.00000  Uiso   1.00
N91    N     0.01024   0.58390   0.76284   0.00000  Uiso   1.00
N92    N     0.97210   0.87872   0.99016   0.00000  Uiso   1.00
C93    C     0.50946   0.27008   0.09793   0.00000  Uiso   1.00
C94    C     0.47462   0.32216   0.05699   0.00000  Uiso   1.00
C95    C     0.47062   0.38468   0.05679   0.00000  Uiso   1.00
C96    C     0.43653   0.42502   0.01591   0.00000  Uiso   1.00
C97    C     0.38681   0.50916   0.95833   0.00000  Uiso   1.00
C98    C     0.44273   0.24312   0.12655   0.00000  Uiso   1.00
C99    C     0.41193   0.23918   0.18483   0.00000  Uiso   1.00
C100   C     0.35101   0.21298   0.20251   0.00000  Uiso   1.00
C101   C     0.25182   0.17438   0.25293   0.00000  Uiso   1.00
C102   C     0.57441   0.21786   0.06076   0.00000  Uiso   1.00
C103   C     0.65433   0.19266   0.06373   0.00000  Uiso   1.00
C104   C     0.70427   0.14517   0.02602   0.00000  Uiso   1.00
C105   C     0.80953   0.06734   0.97428   0.00000  Uiso   1.00
C106   C     0.45604   0.23054   0.02570   0.00000  Uiso   1.00
C107   C     0.44560   0.30069   0.01776   0.00000  Uiso   1.00
C108   C     0.41151   0.34094   0.97688   0.00000  Uiso   1.00
C109   C     0.40747   0.40351   0.97661   0.00000  Uiso   1.00
C110   C     0.41371   0.22165   0.08732   0.00000  Uiso   1.00
C111   C     0.35282   0.19544   0.10492   0.00000  Uiso   1.00
C112   C     0.32193   0.19147   0.16321   0.00000  Uiso   1.00
C113   C     0.54540   0.19638   0.02153   0.00000  Uiso   1.00
C114   C     0.59522   0.14892   0.98381   0.00000  Uiso   1.00
C115   C     0.67520   0.12366   0.98672   0.00000  Uiso   1.00
H116   H     0.53205   0.28679   0.12848   0.00000  Uiso   1.00
H117   H     0.49308   0.40128   0.08716   0.00000  Uiso   1.00
H118   H     0.43441   0.25580   0.21518   0.00000  Uiso   1.00
H119   H     0.67677   0.20929   0.09409   0.00000  Uiso   1.00
H120   H     0.43705   0.51874   0.02406   0.00000  Uiso   1.00
H121   H     0.31335   0.21197   0.29401   0.00000  Uiso   1.00
H122   H     0.82441   0.11389   0.03867   0.00000  Uiso   1.00
H123   H     0.43344   0.21383   0.99516   0.00000  Uiso   1.00
H124   H     0.38906   0.32431   0.94652   0.00000  Uiso   1.00
H125   H     0.33038   0.17883   0.07455   0.00000  Uiso   1.00
H126   H     0.57274   0.13232   0.95346   0.00000  Uiso   1.00
H127   H     0.35262   0.45627   0.90992   0.00000  Uiso   1.00
H128   H     0.22892   0.14950   0.17987   0.00000  Uiso   1.00
H129   H     0.73998   0.05142   0.92452   0.00000  Uiso   1.00
O130   O     0.36739   0.56151   0.93741   0.00000  Uiso   1.00
O131   O     0.20512   0.15902   0.29157   0.00000  Uiso   1.00
O132   O     0.87562   0.03035   0.95657   0.00000  Uiso   1.00
N133   N     0.42328   0.48888   0.00386   0.00000  Uiso   1.00
N134   N     0.30763   0.20207   0.25625   0.00000  Uiso   1.00
N135   N     0.78542   0.11036   0.01754   0.00000  Uiso   1.00
N136   N     0.37785   0.45526   0.94244   0.00000  Uiso   1.00
N137   N     0.26219   0.16846   0.19483   0.00000  Uiso   1.00
N138   N     0.73999   0.07674   0.95612   0.00000  Uiso   1.00
C139   C     0.00156   0.43047   0.31455   0.00000  Uiso   1.00
C140   C     0.94690   0.47292   0.27763   0.00000  Uiso   1.00
C141   C     0.97209   0.49897   0.22475   0.00000  Uiso   1.00
C142   C     0.91273   0.53650   0.19775   0.00000  Uiso   1.00
C143   C     0.84026   0.60070   0.13660   0.00000  Uiso   1.00
C144   C     0.98041   0.36990   0.32573   0.00000  Uiso   1.00
C145   C     0.03378   0.30933   0.31330   0.00000  Uiso   1.00
C146   C     0.00263   0.26015   0.32680   0.00000  Uiso   1.00
C147   C     0.98221   0.16441   0.34037   0.00000  Uiso   1.00
C148   C     0.97444   0.46253   0.37187   0.00000  Uiso   1.00
C149   C     0.02279   0.47983   0.39826   0.00000  Uiso   1.00
C150   C     0.98662   0.50861   0.45062   0.00000  Uiso   1.00
C151   C     0.95692   0.55669   0.53583   0.00000  Uiso   1.00
C152   C     0.85135   0.45082   0.36063   0.00000  Uiso   1.00
C153   C     0.86530   0.48397   0.30266   0.00000  Uiso   1.00
C154   C     0.80589   0.52148   0.27573   0.00000  Uiso   1.00
C155   C     0.83099   0.54757   0.22283   0.00000  Uiso   1.00
C156   C     0.89882   0.38095   0.35076   0.00000  Uiso   1.00
C157   C     0.86759   0.33184   0.36429   0.00000  Uiso   1.00
C158   C     0.92090   0.27122   0.35188   0.00000  Uiso   1.00
C159   C     0.89284   0.47358   0.39690   0.00000  Uiso   1.00
C160   C     0.85659   0.50234   0.44924   0.00000  Uiso   1.00
C161   C     0.90488   0.51968   0.47570   0.00000  Uiso   1.00
H162   H     0.06508   0.42186   0.29506   0.00000  Uiso   1.00
H163   H     0.03524   0.49040   0.20539   0.00000  Uiso   1.00
H164   H     0.09692   0.30079   0.29394   0.00000  Uiso   1.00
H165   H     0.08593   0.47127   0.37888   0.00000  Uiso   1.00
H166   H     0.96616   0.57123   0.11700   0.00000  Uiso   1.00
H167   H     0.09624   0.17144   0.30372   0.00000  Uiso   1.00
H168   H     0.07306   0.53091   0.48283   0.00000  Uiso   1.00
H169   H     0.78782   0.45942   0.38012   0.00000  Uiso   1.00
H170   H     0.74275   0.53002   0.29511   0.00000  Uiso   1.00
H171   H     0.80444   0.34041   0.38366   0.00000  Uiso   1.00
H172   H     0.79345   0.51088   0.46860   0.00000  Uiso   1.00
H173   H     0.72877   0.60339   0.18982   0.00000  Uiso   1.00
H174   H     0.85885   0.20360   0.37654   0.00000  Uiso   1.00
H175   H     0.83567   0.56307   0.55565   0.00000  Uiso   1.00
O176   O     0.82283   0.63306   0.09595   0.00000  Uiso   1.00
O177   O     0.99348   0.10855   0.34093   0.00000  Uiso   1.00
O178   O     0.96307   0.58017   0.57591   0.00000  Uiso   1.00
N179   N     0.91648   0.56912   0.14581   0.00000  Uiso   1.00
N180   N     0.03809   0.19534   0.32037   0.00000  Uiso   1.00
N181   N     0.01642   0.53140   0.48784   0.00000  Uiso   1.00
N182   N     0.78874   0.58643   0.18499   0.00000  Uiso   1.00
N183   N     0.91035   0.21265   0.35956   0.00000  Uiso   1.00
N184   N     0.88869   0.54871   0.52702   0.00000  Uiso   1.00
C185   C     0.02850   0.84188   0.39504   0.00000  Uiso   1.00
C186   C     0.96549   0.89592   0.43119   0.00000  Uiso   1.00
C187   C     0.97138   0.95487   0.43514   0.00000  Uiso   1.00
C188   C     0.90729   0.99783   0.47052   0.00000  Uiso   1.00
C189   C     0.81969   0.08411   0.52202   0.00000  Uiso   1.00
C190   C     0.98565   0.82451   0.35624   0.00000  Uiso   1.00
C191   C     0.00850   0.82343   0.29716   0.00000  Uiso   1.00
C192   C     0.96138   0.80627   0.26945   0.00000  Uiso   1.00
C193   C     0.90512   0.78165   0.20457   0.00000  Uiso   1.00
C194   C     0.04919   0.78565   0.43595   0.00000  Uiso   1.00
C195   C     0.12546   0.75188   0.44389   0.00000  Uiso   1.00
C196   C     0.13184   0.70200   0.48328   0.00000  Uiso   1.00
C197   C     0.17424   0.61704   0.54218   0.00000  Uiso   1.00
C198   C     0.90421   0.81334   0.45086   0.00000  Uiso   1.00
C199   C     0.89798   0.88041   0.46151   0.00000  Uiso   1.00
C200   C     0.83386   0.92330   0.49689   0.00000  Uiso   1.00
C201   C     0.83965   0.98230   0.50090   0.00000  Uiso   1.00
C202   C     0.91814   0.80901   0.38655   0.00000  Uiso   1.00
C203   C     0.87098   0.79185   0.35892   0.00000  Uiso   1.00
C204   C     0.89375   0.79074   0.29982   0.00000  Uiso   1.00
C205   C     0.98168   0.77015   0.46627   0.00000  Uiso   1.00
C206   C     0.98794   0.72031   0.50565   0.00000  Uiso   1.00
C207   C     0.06421   0.68647   0.51365   0.00000  Uiso   1.00
H208   H     0.08106   0.85395   0.37144   0.00000  Uiso   1.00
H209   H     0.02363   0.96685   0.41167   0.00000  Uiso   1.00
H210   H     0.06075   0.83542   0.27371   0.00000  Uiso   1.00
H211   H     0.17769   0.76389   0.42042   0.00000  Uiso   1.00
H212   H     0.93017   0.08520   0.46962   0.00000  Uiso   1.00
H213   H     0.00845   0.80805   0.17874   0.00000  Uiso   1.00
H214   H     0.25505   0.65721   0.48811   0.00000  Uiso   1.00
H215   H     0.85165   0.80127   0.47446   0.00000  Uiso   1.00
H216   H     0.78163   0.91129   0.52035   0.00000  Uiso   1.00
H217   H     0.81875   0.77985   0.38239   0.00000  Uiso   1.00
H218   H     0.93569   0.70832   0.52910   0.00000  Uiso   1.00
H219   H     0.73375   0.04010   0.55783   0.00000  Uiso   1.00
H220   H     0.81203   0.76294   0.26694   0.00000  Uiso   1.00
H221   H     0.05863   0.61211   0.57631   0.00000  Uiso   1.00
O222   O     0.79003   0.13598   0.54204   0.00000  Uiso   1.00
O223   O     0.89274   0.77235   0.16041   0.00000  Uiso   1.00
O224   O     0.21627   0.57446   0.56629   0.00000  Uiso   1.00
N225   N     0.89356   0.05948   0.48409   0.00000  Uiso   1.00
N226   N     0.96674   0.80037   0.21213   0.00000  Uiso   1.00
N227   N     0.19730   0.65934   0.50136   0.00000  Uiso   1.00
N228   N     0.78787   0.03522   0.53156   0.00000  Uiso   1.00
N229   N     0.86105   0.77610   0.25960   0.00000  Uiso   1.00
N230   N     0.09160   0.63507   0.54882   0.00000  Uiso   1.00
C231   C     0.51476   0.57531   0.71474   0.00000  Uiso   1.00
C232   C     0.48671   0.60544   0.66113   0.00000  Uiso   1.00
C233   C     0.44370   0.58416   0.63292   0.00000  Uiso   1.00
C234   C     0.42372   0.61827   0.58464   0.00000  Uiso   1.00
C235   C     0.37675   0.65694   0.50436   0.00000  Uiso   1.00
C236   C     0.48012   0.62719   0.75869   0.00000  Uiso   1.00
C237   C     0.43158   0.62420   0.81251   0.00000  Uiso   1.00
C238   C     0.40605   0.67662   0.84636   0.00000  Uiso   1.00
C239   C     0.34890   0.74905   0.91756   0.00000  Uiso   1.00
C240   C     0.60553   0.56074   0.70001   0.00000  Uiso   1.00
C241   C     0.66244   0.50188   0.70449   0.00000  Uiso   1.00
C242   C     0.74250   0.49836   0.68894   0.00000  Uiso   1.00
C243   C     0.88006   0.46761   0.66902   0.00000  Uiso   1.00
C244   C     0.55575   0.67372   0.67916   0.00000  Uiso   1.00
C245   C     0.50897   0.65889   0.64181   0.00000  Uiso   1.00
C246   C     0.48905   0.69304   0.59356   0.00000  Uiso   1.00
C247   C     0.44602   0.67182   0.56528   0.00000  Uiso   1.00
C248   C     0.50238   0.68064   0.73937   0.00000  Uiso   1.00
C249   C     0.47693   0.73308   0.77315   0.00000  Uiso   1.00
C250   C     0.42836   0.73017   0.82700   0.00000  Uiso   1.00
C251   C     0.62779   0.61419   0.68068   0.00000  Uiso   1.00
C252   C     0.70778   0.61076   0.66512   0.00000  Uiso   1.00
C253   C     0.76480   0.55190   0.66958   0.00000  Uiso   1.00
H254   H     0.49742   0.53370   0.72979   0.00000  Uiso   1.00
H255   H     0.42648   0.54280   0.64789   0.00000  Uiso   1.00
H256   H     0.41437   0.58283   0.82746   0.00000  Uiso   1.00
H257   H     0.64519   0.46053   0.71945   0.00000  Uiso   1.00
H258   H     0.35762   0.57647   0.54859   0.00000  Uiso   1.00
H259   H     0.33210   0.66088   0.92721   0.00000  Uiso   1.00
H260   H     0.81883   0.40298   0.69947   0.00000  Uiso   1.00
H261   H     0.57308   0.71533   0.66411   0.00000  Uiso   1.00
H262   H     0.50629   0.73440   0.57861   0.00000  Uiso   1.00
H263   H     0.49417   0.77443   0.75818   0.00000  Uiso   1.00
H264   H     0.72499   0.65213   0.65017   0.00000  Uiso   1.00
H265   H     0.42239   0.73198   0.49236   0.00000  Uiso   1.00
H266   H     0.39687   0.81638   0.87099   0.00000  Uiso   1.00
H267   H     0.88360   0.55849   0.64324   0.00000  Uiso   1.00
O268   O     0.34468   0.66351   0.46543   0.00000  Uiso   1.00
O269   O     0.31121   0.77423   0.96217   0.00000  Uiso   1.00
O270   O     0.94978   0.43588   0.66337   0.00000  Uiso   1.00
N271   N     0.38204   0.61045   0.54708   0.00000  Uiso   1.00
N272   N     0.35817   0.68936   0.90107   0.00000  Uiso   1.00
N273   N     0.81322   0.44825   0.68816   0.00000  Uiso   1.00
N274   N     0.41690   0.69413   0.51683   0.00000  Uiso   1.00
N275   N     0.39302   0.77304   0.87082   0.00000  Uiso   1.00
N276   N     0.84808   0.53193   0.65790   0.00000  Uiso   1.00
C277   C     0.50160   0.98399   0.11825   0.00000  Uiso   1.00
C278   C     0.55100   0.01603   0.13824   0.00000  Uiso   1.00
C279   C     0.52261   0.05881   0.18199   0.00000  Uiso   1.00
C280   C     0.57730   0.08280   0.19377   0.00000  Uiso   1.00
C281   C     0.64181   0.13528   0.22952   0.00000  Uiso   1.00
C282   C     0.54505   0.91317   0.12278   0.00000  Uiso   1.00
C283   C     0.51165   0.86947   0.15354   0.00000  Uiso   1.00
C284   C     0.56134   0.80687   0.15229   0.00000  Uiso   1.00
C285   C     0.61659   0.69965   0.16401   0.00000  Uiso   1.00
C286   C     0.50993   0.99984   0.05476   0.00000  Uiso   1.00
C287   C     0.44700   0.02900   0.02832   0.00000  Uiso   1.00
C288   C     0.46712   0.03935   0.96980   0.00000  Uiso   1.00
C289   C     0.46784   0.06671   0.87591   0.00000  Uiso   1.00
C290   C     0.64922   0.95051   0.06136   0.00000  Uiso   1.00
C291   C     0.63117   0.99784   0.10733   0.00000  Uiso   1.00
C292   C     0.68593   0.02177   0.11904   0.00000  Uiso   1.00
C293   C     0.65762   0.06459   0.16281   0.00000  Uiso   1.00
C294   C     0.62522   0.89498   0.09188   0.00000  Uiso   1.00
C295   C     0.67497   0.83243   0.09059   0.00000  Uiso   1.00
C296   C     0.64166   0.78865   0.12134   0.00000  Uiso   1.00
C297   C     0.59010   0.98165   0.02386   0.00000  Uiso   1.00
C298   C     0.61032   0.99196   0.96537   0.00000  Uiso   1.00
C299   C     0.54744   0.02113   0.93884   0.00000  Uiso   1.00
H300   H     0.43918   0.99815   0.14231   0.00000  Uiso   1.00
H301   H     0.46055   0.07287   0.20590   0.00000  Uiso   1.00
H302   H     0.44960   0.88355   0.17744   0.00000  Uiso   1.00
H303   H     0.38496   0.04306   0.05224   0.00000  Uiso   1.00
H304   H     0.51962   0.14767   0.26279   0.00000  Uiso   1.00
H305   H     0.49651   0.74849   0.20276   0.00000  Uiso   1.00
H306   H     0.36021   0.08484   0.93876   0.00000  Uiso   1.00
H307   H     0.71164   0.93635   0.03730   0.00000  Uiso   1.00
H308   H     0.74797   0.00769   0.09512   0.00000  Uiso   1.00
H309   H     0.73701   0.81837   0.06667   0.00000  Uiso   1.00
H310   H     0.67237   0.97788   0.94147   0.00000  Uiso   1.00
H311   H     0.75289   0.09477   0.17288   0.00000  Uiso   1.00
H312   H     0.72979   0.69559   0.11285   0.00000  Uiso   1.00
H313   H     0.59348   0.03194   0.84885   0.00000  Uiso   1.00
O314   O     0.65524   0.16925   0.25778   0.00000  Uiso   1.00
O315   O     0.62492   0.64554   0.17902   0.00000  Uiso   1.00
O316   O     0.44609   0.08682   0.83265   0.00000  Uiso   1.00
N317   N     0.56953   0.12544   0.23368   0.00000  Uiso   1.00
N318   N     0.54793   0.75223   0.17757   0.00000  Uiso   1.00
N319   N     0.42049   0.06668   0.93075   0.00000  Uiso   1.00
N320   N     0.69505   0.09698   0.18530   0.00000  Uiso   1.00
N321   N     0.67346   0.72377   0.12919   0.00000  Uiso   1.00
N322   N     0.54602   0.03821   0.88237   0.00000  Uiso   1.00
C323   C     0.86062   0.36478   0.06972   0.00000  Uiso   1.00
C324   C     0.93382   0.30718   0.04884   0.00000  Uiso   1.00
C325   C     0.01325   0.30517   0.03531   0.00000  Uiso   1.00
C326   C     0.07152   0.24797   0.01698   0.00000  Uiso   1.00
C327   C     0.18830   0.16662   0.98528   0.00000  Uiso   1.00
C328   C     0.81518   0.34465   0.12634   0.00000  Uiso   1.00
C329   C     0.79485   0.37414   0.17797   0.00000  Uiso   1.00
C330   C     0.75324   0.34849   0.22489   0.00000  Uiso   1.00
C331   C     0.68578   0.32534   0.31350   0.00000  Uiso   1.00
C332   C     0.80698   0.37536   0.02817   0.00000  Uiso   1.00
C333   C     0.77974   0.43068   0.99727   0.00000  Uiso   1.00
C334   C     0.73122   0.43088   0.96154   0.00000  Uiso   1.00
C335   C     0.65103   0.45541   0.89773   0.00000  Uiso   1.00
C336   C     0.82285   0.26679   0.06122   0.00000  Uiso   1.00
C337   C     0.91330   0.25396   0.04422   0.00000  Uiso   1.00
C338   C     0.97146   0.19675   0.02590   0.00000  Uiso   1.00
C339   C     0.05097   0.19465   0.01235   0.00000  Uiso   1.00
C340   C     0.79466   0.29142   0.12172   0.00000  Uiso   1.00
C341   C     0.75306   0.26572   0.16857   0.00000  Uiso   1.00
C342   C     0.73269   0.29517   0.22026   0.00000  Uiso   1.00
C343   C     0.78647   0.32213   0.02355   0.00000  Uiso   1.00
C344   C     0.73796   0.32225   0.98786   0.00000  Uiso   1.00
C345   C     0.71066   0.37756   0.95691   0.00000  Uiso   1.00
H346   H     0.87659   0.40622   0.07332   0.00000  Uiso   1.00
H347   H     0.02911   0.34637   0.03889   0.00000  Uiso   1.00
H348   H     0.81073   0.41534   0.18153   0.00000  Uiso   1.00
H349   H     0.79563   0.47186   0.00085   0.00000  Uiso   1.00
H350   H     0.18915   0.25653   0.99871   0.00000  Uiso   1.00
H351   H     0.72867   0.40197   0.29947   0.00000  Uiso   1.00
H352   H     0.69683   0.52116   0.91847   0.00000  Uiso   1.00
H353   H     0.80687   0.22535   0.05763   0.00000  Uiso   1.00
H354   H     0.95557   0.15556   0.02234   0.00000  Uiso   1.00
H355   H     0.73719   0.22453   0.16498   0.00000  Uiso   1.00
H356   H     0.72210   0.28106   0.98430   0.00000  Uiso   1.00
H357   H     0.12947   0.10167   0.98528   0.00000  Uiso   1.00
H358   H     0.66898   0.24711   0.28603   0.00000  Uiso   1.00
H359   H     0.63715   0.36629   0.90504   0.00000  Uiso   1.00
O360   O     0.25838   0.13645   0.96908   0.00000  Uiso   1.00
O361   O     0.65424   0.32727   0.36366   0.00000  Uiso   1.00
O362   O     0.61248   0.48364   0.86380   0.00000  Uiso   1.00
N363   N     0.15470   0.22966   0.00038   0.00000  Uiso   1.00
N364   N     0.72419   0.36563   0.28157   0.00000  Uiso   1.00
N365   N     0.69440   0.47707   0.92539   0.00000  Uiso   1.00
N366   N     0.12258   0.14633   0.99315   0.00000  Uiso   1.00
N367   N     0.69207   0.28230   0.27434   0.00000  Uiso   1.00
N368   N     0.66229   0.39374   0.91816   0.00000  Uiso   1.00
C369   C     0.09003   0.79847   0.76873   0.00000  Uiso   1.00
C370   C     0.11328   0.77345   0.82496   0.00000  Uiso   1.00
C371   C     0.12060   0.71327   0.84811   0.00000  Uiso   1.00
C372   C     0.14248   0.69954   0.89996   0.00000  Uiso   1.00
C373   C     0.17649   0.65385   0.98305   0.00000  Uiso   1.00
C374   C     0.15784   0.82082   0.73308   0.00000  Uiso   1.00
C375   C     0.20262   0.80049   0.67898   0.00000  Uiso   1.00
C376   C     0.26201   0.82665   0.65349   0.00000  Uiso   1.00
C377   C     0.36516   0.85455   0.59391   0.00000  Uiso   1.00
C378   C     0.01668   0.85775   0.78306   0.00000  Uiso   1.00
C379   C     0.94277   0.86847   0.77095   0.00000  Uiso   1.00
C380   C     0.88331   0.92573   0.78753   0.00000  Uiso   1.00
C381   C     0.76729   0.01096   0.80554   0.00000  Uiso   1.00
C382   C     0.11587   0.88109   0.81967   0.00000  Uiso   1.00
C383   C     0.12732   0.81832   0.85262   0.00000  Uiso   1.00
C384   C     0.14919   0.80468   0.90446   0.00000  Uiso   1.00
C385   C     0.15654   0.74449   0.92768   0.00000  Uiso   1.00
C386   C     0.17188   0.86570   0.76075   0.00000  Uiso   1.00
C387   C     0.23121   0.89190   0.73533   0.00000  Uiso   1.00
C388   C     0.27607   0.87160   0.68120   0.00000  Uiso   1.00
C389   C     0.03071   0.90263   0.81072   0.00000  Uiso   1.00
C390   C     0.97136   0.95988   0.82731   0.00000  Uiso   1.00
C391   C     0.89737   0.97068   0.81524   0.00000  Uiso   1.00
H392   H     0.07910   0.76353   0.74719   0.00000  Uiso   1.00
H393   H     0.10974   0.67856   0.82668   0.00000  Uiso   1.00
H394   H     0.19174   0.76577   0.65758   0.00000  Uiso   1.00
H395   H     0.93193   0.83374   0.74955   0.00000  Uiso   1.00
H396   H     0.14993   0.60413   0.92700   0.00000  Uiso   1.00
H397   H     0.32281   0.78803   0.57043   0.00000  Uiso   1.00
H398   H     0.77495   0.93136   0.76436   0.00000  Uiso   1.00
H399   H     0.12679   0.91602   0.84120   0.00000  Uiso   1.00
H400   H     0.16005   0.83941   0.92586   0.00000  Uiso   1.00
H401   H     0.24205   0.92662   0.75675   0.00000  Uiso   1.00
H402   H     0.98224   0.99459   0.84872   0.00000  Uiso   1.00
H403   H     0.19076   0.73468   0.00749   0.00000  Uiso   1.00
H404   H     0.36364   0.91859   0.65092   0.00000  Uiso   1.00
H405   H     0.81578   0.06191   0.84485   0.00000  Uiso   1.00
O406   O     0.19138   0.61625   0.02123   0.00000  Uiso   1.00
O407   O     0.41818   0.85753   0.55341   0.00000  Uiso   1.00
O408   O     0.69941   0.04557   0.80784   0.00000  Uiso   1.00
N409   N     0.15496   0.64537   0.93433   0.00000  Uiso   1.00
N410   N     0.31660   0.81730   0.60096   0.00000  Uiso   1.00
N411   N     0.80441   0.95131   0.78225   0.00000  Uiso   1.00
N412   N     0.17693   0.71562   0.97764   0.00000  Uiso   1.00
N413   N     0.33857   0.88755   0.64427   0.00000  Uiso   1.00
N414   N     0.82638   0.02156   0.82557   0.00000  Uiso   1.00
C415   C     0.67402   0.83360   0.67652   0.00000  Uiso   1.00
C416   C     0.69695   0.77668   0.71636   0.00000  Uiso   1.00
C417   C     0.65165   0.76815   0.77010   0.00000  Uiso   1.00
C418   C     0.68307   0.71287   0.79985   0.00000  Uiso   1.00
C419   C     0.70743   0.63137   0.86525   0.00000  Uiso   1.00
C420   C     0.74328   0.85991   0.66301   0.00000  Uiso   1.00
C421   C     0.73694   0.92135   0.67188   0.00000  Uiso   1.00
C422   C     0.80736   0.93613   0.65671   0.00000  Uiso   1.00
C423   C     0.90364   0.98386   0.63924   0.00000  Uiso   1.00
C424   C     0.67526   0.80733   0.62092   0.00000  Uiso   1.00
C425   C     0.61174   0.82457   0.59439   0.00000  Uiso   1.00
C426   C     0.62490   0.79509   0.54378   0.00000  Uiso   1.00
C427   C     0.61557   0.76117   0.46097   0.00000  Uiso   1.00
C428   C     0.81036   0.75061   0.63381   0.00000  Uiso   1.00
C429   C     0.77101   0.73161   0.69316   0.00000  Uiso   1.00
C430   C     0.80250   0.67633   0.72284   0.00000  Uiso   1.00
C431   C     0.75726   0.66771   0.77661   0.00000  Uiso   1.00
C432   C     0.81733   0.81484   0.63981   0.00000  Uiso   1.00
C433   C     0.88778   0.82953   0.62462   0.00000  Uiso   1.00
C434   C     0.88155   0.89098   0.63347   0.00000  Uiso   1.00
C435   C     0.74932   0.76225   0.59772   0.00000  Uiso   1.00
C436   C     0.76258   0.73275   0.54714   0.00000  Uiso   1.00
C437   C     0.69909   0.74993   0.52054   0.00000  Uiso   1.00
H438   H     0.61637   0.86870   0.69458   0.00000  Uiso   1.00
H439   H     0.59435   0.80305   0.78804   0.00000  Uiso   1.00
H440   H     0.67962   0.95623   0.68983   0.00000  Uiso   1.00
H441   H     0.55444   0.85945   0.61236   0.00000  Uiso   1.00
H442   H     0.60261   0.71039   0.88143   0.00000  Uiso   1.00
H443   H     0.78240   0.03339   0.67433   0.00000  Uiso   1.00
H444   H     0.51844   0.82933   0.51097   0.00000  Uiso   1.00
H445   H     0.86802   0.71551   0.61574   0.00000  Uiso   1.00
H446   H     0.85981   0.64145   0.70487   0.00000  Uiso   1.00
H447   H     0.94508   0.79464   0.60666   0.00000  Uiso   1.00
H448   H     0.81990   0.69786   0.52920   0.00000  Uiso   1.00
H449   H     0.81807   0.57924   0.81393   0.00000  Uiso   1.00
H450   H     0.99786   0.90224   0.60683   0.00000  Uiso   1.00
H451   H     0.73389   0.69818   0.44347   0.00000  Uiso   1.00
O452   O     0.70041   0.59887   0.90774   0.00000  Uiso   1.00
O453   O     0.93628   0.02263   0.63602   0.00000  Uiso   1.00
O454   O     0.58997   0.75491   0.42171   0.00000  Uiso   1.00
N455   N     0.65444   0.68968   0.85331   0.00000  Uiso   1.00
N456   N     0.82253   0.99166   0.65969   0.00000  Uiso   1.00
N457   N     0.57575   0.80090   0.50695   0.00000  Uiso   1.00
N458   N     0.77037   0.61911   0.81699   0.00000  Uiso   1.00
N459   N     0.93847   0.92109   0.62337   0.00000  Uiso   1.00
N460   N     0.69169   0.73032   0.47063   0.00000  Uiso   1.00
C461   C     0.88635   0.24200   0.53413   0.00000  Uiso   1.00
C462   C     0.96585   0.25305   0.50715   0.00000  Uiso   1.00
C463   C     0.02612   0.21797   0.46391   0.00000  Uiso   1.00
C464   C     0.09428   0.23558   0.44506   0.00000  Uiso   1.00
C465   C     0.21658   0.24498   0.39960   0.00000  Uiso   1.00
C466   C     0.88210   0.23292   0.59790   0.00000  Uiso   1.00
C467   C     0.87194   0.18092   0.63095   0.00000  Uiso   1.00
C468   C     0.86959   0.18160   0.68848   0.00000  Uiso   1.00
C469   C     0.86181   0.15978   0.78391   0.00000  Uiso   1.00
C470   C     0.82062   0.30421   0.52711   0.00000  Uiso   1.00
C471   C     0.75876   0.31214   0.50065   0.00000  Uiso   1.00
C472   C     0.70464   0.37284   0.49861   0.00000  Uiso   1.00
C473   C     0.60142   0.46169   0.48413   0.00000  Uiso   1.00
C474   C     0.90022   0.33567   0.57756   0.00000  Uiso   1.00
C475   C     0.97337   0.30393   0.53074   0.00000  Uiso   1.00
C476   C     0.04146   0.32161   0.51195   0.00000  Uiso   1.00
C477   C     0.10182   0.28655   0.46868   0.00000  Uiso   1.00
C478   C     0.88963   0.28380   0.62148   0.00000  Uiso   1.00
C479   C     0.88728   0.28456   0.67899   0.00000  Uiso   1.00
C480   C     0.87713   0.23258   0.71212   0.00000  Uiso   1.00
C481   C     0.82815   0.35509   0.55070   0.00000  Uiso   1.00
C482   C     0.77411   0.41578   0.54870   0.00000  Uiso   1.00
C483   C     0.71219   0.42381   0.52224   0.00000  Uiso   1.00
H484   H     0.88049   0.20238   0.51577   0.00000  Uiso   1.00
H485   H     0.02027   0.17859   0.44567   0.00000  Uiso   1.00
H486   H     0.86611   0.14156   0.61268   0.00000  Uiso   1.00
H487   H     0.75296   0.27276   0.48241   0.00000  Uiso   1.00
H488   H     0.17858   0.17463   0.37836   0.00000  Uiso   1.00
H489   H     0.85349   0.09656   0.73052   0.00000  Uiso   1.00
H490   H     0.61488   0.37322   0.45581   0.00000  Uiso   1.00
H491   H     0.90608   0.37528   0.59592   0.00000  Uiso   1.00
H492   H     0.04727   0.36098   0.53021   0.00000  Uiso   1.00
H493   H     0.89311   0.32395   0.69723   0.00000  Uiso   1.00
H494   H     0.77995   0.45514   0.56695   0.00000  Uiso   1.00
H495   H     0.20050   0.32267   0.44698   0.00000  Uiso   1.00
H496   H     0.87540   0.24459   0.79914   0.00000  Uiso   1.00
H497   H     0.63680   0.52125   0.52443   0.00000  Uiso   1.00
O498   O     0.28197   0.23611   0.36801   0.00000  Uiso   1.00
O499   O     0.85545   0.13368   0.83003   0.00000  Uiso   1.00
O500   O     0.54240   0.49665   0.46962   0.00000  Uiso   1.00
N501   N     0.16436   0.21145   0.40352   0.00000  Uiso   1.00
N502   N     0.86043   0.13845   0.73277   0.00000  Uiso   1.00
N503   N     0.63734   0.39709   0.47595   0.00000  Uiso   1.00
N504   N     0.17615   0.29110   0.44045   0.00000  Uiso   1.00
N505   N     0.87222   0.21810   0.76969   0.00000  Uiso   1.00
N506   N     0.64913   0.47675   0.51288   0.00000  Uiso   1.00
C507   C     0.19292   0.61816   0.21617   0.00000  Uiso   1.00
C508   C     0.21724   0.67567   0.21912   0.00000  Uiso   1.00
C509   C     0.22729   0.71872   0.17490   0.00000  Uiso   1.00
C510   C     0.24973   0.76812   0.18613   0.00000  Uiso   1.00
C511   C     0.28571   0.85647   0.18255   0.00000  Uiso   1.00
C512   C     0.25879   0.56136   0.23301   0.00000  Uiso   1.00
C513   C     0.30376   0.50829   0.20048   0.00000  Uiso   1.00
C514   C     0.36117   0.46146   0.22341   0.00000  Uiso   1.00
C515   C     0.46162   0.37232   0.24141   0.00000  Uiso   1.00
C516   C     0.11780   0.62512   0.26394   0.00000  Uiso   1.00
C517   C     0.04423   0.62565   0.25742   0.00000  Uiso   1.00
C518   C     0.98294   0.63250   0.30639   0.00000  Uiso   1.00
C519   C     0.86449   0.64236   0.37241   0.00000  Uiso   1.00
C520   C     0.21490   0.62935   0.31474   0.00000  Uiso   1.00
C521   C     0.22918   0.68174   0.27265   0.00000  Uiso   1.00
C522   C     0.25160   0.73109   0.28395   0.00000  Uiso   1.00
C523   C     0.26168   0.77421   0.23976   0.00000  Uiso   1.00
C524   C     0.27073   0.56743   0.28654   0.00000  Uiso   1.00
C525   C     0.32808   0.52067   0.30953   0.00000  Uiso   1.00
C526   C     0.37313   0.46755   0.27704   0.00000  Uiso   1.00
C527   C     0.12974   0.63120   0.31747   0.00000  Uiso   1.00
C528   C     0.06855   0.63804   0.36647   0.00000  Uiso   1.00
C529   C     0.99491   0.63858   0.36002   0.00000  Uiso   1.00
H530   H     0.18363   0.61343   0.17450   0.00000  Uiso   1.00
H531   H     0.21805   0.71399   0.13348   0.00000  Uiso   1.00
H532   H     0.29450   0.50360   0.15905   0.00000  Uiso   1.00
H533   H     0.03502   0.62095   0.21598   0.00000  Uiso   1.00
H534   H     0.26150   0.82816   0.11160   0.00000  Uiso   1.00
H535   H     0.42269   0.38452   0.16554   0.00000  Uiso   1.00
H536   H     0.87552   0.63197   0.28559   0.00000  Uiso   1.00
H537   H     0.22419   0.63408   0.35642   0.00000  Uiso   1.00
H538   H     0.26084   0.73578   0.32538   0.00000  Uiso   1.00
H539   H     0.33729   0.52538   0.35096   0.00000  Uiso   1.00
H540   H     0.07781   0.64274   0.40789   0.00000  Uiso   1.00
H541   H     0.29624   0.84584   0.26736   0.00000  Uiso   1.00
H542   H     0.45742   0.40220   0.32130   0.00000  Uiso   1.00
H543   H     0.91025   0.64965   0.44134   0.00000  Uiso   1.00
O544   O     0.30227   0.90351   0.16578   0.00000  Uiso   1.00
O545   O     0.51373   0.32147   0.23655   0.00000  Uiso   1.00
O546   O     0.79586   0.64613   0.39404   0.00000  Uiso   1.00
N547   N     0.26463   0.81837   0.15252   0.00000  Uiso   1.00
N548   N     0.41534   0.40360   0.20295   0.00000  Uiso   1.00
N549   N     0.90379   0.63493   0.31518   0.00000  Uiso   1.00
N550   N     0.28332   0.82788   0.23634   0.00000  Uiso   1.00
N551   N     0.43403   0.41311   0.28676   0.00000  Uiso   1.00
N552   N     0.92248   0.64444   0.39899   0.00000  Uiso   1.00
