data_job_03822
_audit_creation_date              2018-12-19
_audit_creation_method            'Materials Studio'
_symmetry_space_group_name_H-M    'P1'
_symmetry_Int_Tables_number       1
_symmetry_cell_setting            triclinic
loop_
_symmetry_equiv_pos_as_xyz
  x,y,z
_cell_length_a                    16.6586
_cell_length_b                    12.8209
_cell_length_c                    21.5455
_cell_angle_alpha                 90.0000
_cell_angle_beta                  55.0330
_cell_angle_gamma                 90.0000
loop_
_atom_site_label
_atom_site_type_symbol
_atom_site_fract_x
_atom_site_fract_y
_atom_site_fract_z
_atom_site_U_iso_or_equiv
_atom_site_adp_type
_atom_site_occupancy
C1     C     0.62442   0.12048   0.26117   0.00000  Uiso   1.00
C2     C     0.65708   0.01797   0.21737   0.00000  Uiso   1.00
C3     C     0.60098   0.95584   0.20326   0.00000  Uiso   1.00
C4     C     0.64414   0.86501   0.16214   0.00000  Uiso   1.00
C5     C     0.68027   0.71001   0.09812   0.00000  Uiso   1.00
C6     C     0.63735   0.10685   0.32528   0.00000  Uiso   1.00
C7     C     0.56466   0.11946   0.40189   0.00000  Uiso   1.00
C8     C     0.59121   0.10347   0.45160   0.00000  Uiso   1.00
C9     C     0.59671   0.08653   0.55510   0.00000  Uiso   1.00
C10    C     0.69971   0.20180   0.20802   0.00000  Uiso   1.00
C11    C     0.67946   0.29427   0.18606   0.00000  Uiso   1.00
C12    C     0.75851   0.35823   0.13707   0.00000  Uiso   1.00
C13    C     0.86084   0.48872   0.05852   0.00000  Uiso   1.00
C14    C     0.80082   0.06967   0.21323   0.00000  Uiso   1.00
C15    C     0.75290   0.99037   0.19133   0.00000  Uiso   1.00
C16    C     0.79615   0.89962   0.15022   0.00000  Uiso   1.00
C17    C     0.74013   0.83737   0.13605   0.00000  Uiso   1.00
C18    C     0.73316   0.07925   0.29924   0.00000  Uiso   1.00
C19    C     0.75983   0.06325   0.34884   0.00000  Uiso   1.00
C20    C     0.68720   0.07582   0.42551   0.00000  Uiso   1.00
C21    C     0.79553   0.17421   0.18198   0.00000  Uiso   1.00
C22    C     0.87463   0.23805   0.13301   0.00000  Uiso   1.00
C23    C     0.85450   0.33059   0.11098   0.00000  Uiso   1.00
H24    H     0.54982   0.14197   0.28145   0.00000  Uiso   1.00
H25    H     0.52683   0.97721   0.22343   0.00000  Uiso   1.00
H26    H     0.49052   0.14082   0.42202   0.00000  Uiso   1.00
H27    H     0.60530   0.31560   0.20623   0.00000  Uiso   1.00
H28    H     0.54359   0.78237   0.14765   0.00000  Uiso   1.00
H29    H     0.46702   0.12738   0.56639   0.00000  Uiso   1.00
H30    H     0.70906   0.49593   0.11134   0.00000  Uiso   1.00
H31    H     0.87542   0.04819   0.19296   0.00000  Uiso   1.00
H32    H     0.87030   0.87829   0.13007   0.00000  Uiso   1.00
H33    H     0.83398   0.04190   0.32867   0.00000  Uiso   1.00
H34    H     0.94877   0.21667   0.11287   0.00000  Uiso   1.00
H35    H     0.82236   0.70207   0.07188   0.00000  Uiso   1.00
H36    H     0.74579   0.04709   0.49062   0.00000  Uiso   1.00
H37    H     0.98784   0.41563   0.03557   0.00000  Uiso   1.00
O38    O     0.67372   0.63213   0.07002   0.00000  Uiso   1.00
O39    O     0.57327   0.08480   0.61939   0.00000  Uiso   1.00
O40    O     0.89082   0.56831   0.02237   0.00000  Uiso   1.00
N41    N     0.60990   0.78680   0.13843   0.00000  Uiso   1.00
N42    N     0.53832   0.10935   0.52993   0.00000  Uiso   1.00
N43    N     0.76460   0.45392   0.10451   0.00000  Uiso   1.00
N44    N     0.75991   0.74359   0.09766   0.00000  Uiso   1.00
N45    N     0.68832   0.06614   0.48916   0.00000  Uiso   1.00
N46    N     0.91461   0.41072   0.06374   0.00000  Uiso   1.00
C47    C     0.37558   0.62048   0.23883   0.00000  Uiso   1.00
C48    C     0.34292   0.51797   0.28263   0.00000  Uiso   1.00
C49    C     0.39902   0.45584   0.29674   0.00000  Uiso   1.00
C50    C     0.35586   0.36501   0.33786   0.00000  Uiso   1.00
C51    C     0.31973   0.21001   0.40188   0.00000  Uiso   1.00
C52    C     0.36265   0.60685   0.17472   0.00000  Uiso   1.00
C53    C     0.43534   0.61946   0.09811   0.00000  Uiso   1.00
C54    C     0.40879   0.60347   0.04840   0.00000  Uiso   1.00
C55    C     0.40329   0.58653   0.94490   0.00000  Uiso   1.00
C56    C     0.30029   0.70180   0.29198   0.00000  Uiso   1.00
C57    C     0.32054   0.79427   0.31394   0.00000  Uiso   1.00
C58    C     0.24149   0.85823   0.36293   0.00000  Uiso   1.00
C59    C     0.13916   0.98872   0.44148   0.00000  Uiso   1.00
C60    C     0.19918   0.56967   0.28677   0.00000  Uiso   1.00
C61    C     0.24710   0.49037   0.30867   0.00000  Uiso   1.00
C62    C     0.20385   0.39962   0.34978   0.00000  Uiso   1.00
C63    C     0.25987   0.33737   0.36395   0.00000  Uiso   1.00
C64    C     0.26684   0.57925   0.20076   0.00000  Uiso   1.00
C65    C     0.24017   0.56325   0.15116   0.00000  Uiso   1.00
C66    C     0.31280   0.57582   0.07449   0.00000  Uiso   1.00
C67    C     0.20447   0.67421   0.31802   0.00000  Uiso   1.00
C68    C     0.12537   0.73805   0.36699   0.00000  Uiso   1.00
C69    C     0.14550   0.83059   0.38902   0.00000  Uiso   1.00
H70    H     0.45018   0.64197   0.21855   0.00000  Uiso   1.00
H71    H     0.47317   0.47721   0.27657   0.00000  Uiso   1.00
H72    H     0.50948   0.64082   0.07798   0.00000  Uiso   1.00
H73    H     0.39470   0.81560   0.29377   0.00000  Uiso   1.00
H74    H     0.45641   0.28237   0.35235   0.00000  Uiso   1.00
H75    H     0.53298   0.62738   0.93361   0.00000  Uiso   1.00
H76    H     0.29094   0.99593   0.38866   0.00000  Uiso   1.00
H77    H     0.12458   0.54819   0.30704   0.00000  Uiso   1.00
H78    H     0.12970   0.37829   0.36993   0.00000  Uiso   1.00
H79    H     0.16602   0.54190   0.17133   0.00000  Uiso   1.00
H80    H     0.05123   0.71667   0.38713   0.00000  Uiso   1.00
H81    H     0.17764   0.20207   0.42812   0.00000  Uiso   1.00
H82    H     0.25421   0.54709   0.00938   0.00000  Uiso   1.00
H83    H     0.01216   0.91563   0.46443   0.00000  Uiso   1.00
O84    O     0.32628   0.13213   0.42998   0.00000  Uiso   1.00
O85    O     0.42673   0.58480   0.88061   0.00000  Uiso   1.00
O86    O     0.10918   0.06831   0.47763   0.00000  Uiso   1.00
N87    N     0.39010   0.28680   0.36157   0.00000  Uiso   1.00
N88    N     0.46168   0.60935   0.97007   0.00000  Uiso   1.00
N89    N     0.23540   0.95392   0.39549   0.00000  Uiso   1.00
N90    N     0.24009   0.24359   0.40234   0.00000  Uiso   1.00
N91    N     0.31168   0.56614   0.01084   0.00000  Uiso   1.00
N92    N     0.08539   0.91072   0.43626   0.00000  Uiso   1.00
C93    C     0.37558   0.87952   0.73883   0.00000  Uiso   1.00
C94    C     0.34292   0.98203   0.78263   0.00000  Uiso   1.00
C95    C     0.39902   0.04416   0.79674   0.00000  Uiso   1.00
C96    C     0.35586   0.13499   0.83786   0.00000  Uiso   1.00
C97    C     0.31973   0.28999   0.90188   0.00000  Uiso   1.00
C98    C     0.36265   0.89315   0.67472   0.00000  Uiso   1.00
C99    C     0.43534   0.88054   0.59811   0.00000  Uiso   1.00
C100   C     0.40879   0.89653   0.54840   0.00000  Uiso   1.00
C101   C     0.40329   0.91347   0.44490   0.00000  Uiso   1.00
C102   C     0.30029   0.79820   0.79198   0.00000  Uiso   1.00
C103   C     0.32054   0.70573   0.81394   0.00000  Uiso   1.00
C104   C     0.24149   0.64177   0.86293   0.00000  Uiso   1.00
C105   C     0.13916   0.51128   0.94148   0.00000  Uiso   1.00
C106   C     0.19918   0.93033   0.78677   0.00000  Uiso   1.00
C107   C     0.24710   0.00963   0.80867   0.00000  Uiso   1.00
C108   C     0.20385   0.10038   0.84978   0.00000  Uiso   1.00
C109   C     0.25987   0.16263   0.86395   0.00000  Uiso   1.00
C110   C     0.26684   0.92075   0.70076   0.00000  Uiso   1.00
C111   C     0.24017   0.93675   0.65116   0.00000  Uiso   1.00
C112   C     0.31280   0.92418   0.57449   0.00000  Uiso   1.00
C113   C     0.20447   0.82579   0.81802   0.00000  Uiso   1.00
C114   C     0.12537   0.76195   0.86699   0.00000  Uiso   1.00
C115   C     0.14550   0.66941   0.88902   0.00000  Uiso   1.00
H116   H     0.45018   0.85803   0.71855   0.00000  Uiso   1.00
H117   H     0.47317   0.02279   0.77657   0.00000  Uiso   1.00
H118   H     0.50948   0.85918   0.57798   0.00000  Uiso   1.00
H119   H     0.39470   0.68440   0.79377   0.00000  Uiso   1.00
H120   H     0.45641   0.21763   0.85235   0.00000  Uiso   1.00
H121   H     0.53298   0.87262   0.43361   0.00000  Uiso   1.00
H122   H     0.29094   0.50407   0.88866   0.00000  Uiso   1.00
H123   H     0.12458   0.95181   0.80704   0.00000  Uiso   1.00
H124   H     0.12970   0.12171   0.86993   0.00000  Uiso   1.00
H125   H     0.16602   0.95810   0.67133   0.00000  Uiso   1.00
H126   H     0.05123   0.78333   0.88713   0.00000  Uiso   1.00
H127   H     0.17764   0.29793   0.92812   0.00000  Uiso   1.00
H128   H     0.25421   0.95291   0.50938   0.00000  Uiso   1.00
H129   H     0.01216   0.58437   0.96443   0.00000  Uiso   1.00
O130   O     0.32628   0.36787   0.92998   0.00000  Uiso   1.00
O131   O     0.42673   0.91520   0.38061   0.00000  Uiso   1.00
O132   O     0.10918   0.43169   0.97763   0.00000  Uiso   1.00
N133   N     0.39010   0.21320   0.86157   0.00000  Uiso   1.00
N134   N     0.46168   0.89065   0.47007   0.00000  Uiso   1.00
N135   N     0.23540   0.54608   0.89549   0.00000  Uiso   1.00
N136   N     0.24009   0.25641   0.90234   0.00000  Uiso   1.00
N137   N     0.31168   0.93386   0.51084   0.00000  Uiso   1.00
N138   N     0.08539   0.58928   0.93626   0.00000  Uiso   1.00
C139   C     0.62442   0.37952   0.76117   0.00000  Uiso   1.00
C140   C     0.65708   0.48203   0.71737   0.00000  Uiso   1.00
C141   C     0.60098   0.54416   0.70326   0.00000  Uiso   1.00
C142   C     0.64414   0.63499   0.66214   0.00000  Uiso   1.00
C143   C     0.68027   0.78999   0.59812   0.00000  Uiso   1.00
C144   C     0.63735   0.39315   0.82528   0.00000  Uiso   1.00
C145   C     0.56466   0.38054   0.90189   0.00000  Uiso   1.00
C146   C     0.59121   0.39653   0.95160   0.00000  Uiso   1.00
C147   C     0.59671   0.41347   0.05510   0.00000  Uiso   1.00
C148   C     0.69971   0.29820   0.70802   0.00000  Uiso   1.00
C149   C     0.67946   0.20573   0.68606   0.00000  Uiso   1.00
C150   C     0.75851   0.14177   0.63707   0.00000  Uiso   1.00
C151   C     0.86084   0.01128   0.55852   0.00000  Uiso   1.00
C152   C     0.80082   0.43033   0.71323   0.00000  Uiso   1.00
C153   C     0.75290   0.50963   0.69133   0.00000  Uiso   1.00
C154   C     0.79615   0.60038   0.65022   0.00000  Uiso   1.00
C155   C     0.74013   0.66263   0.63605   0.00000  Uiso   1.00
C156   C     0.73316   0.42075   0.79924   0.00000  Uiso   1.00
C157   C     0.75983   0.43675   0.84884   0.00000  Uiso   1.00
C158   C     0.68720   0.42418   0.92551   0.00000  Uiso   1.00
C159   C     0.79553   0.32579   0.68198   0.00000  Uiso   1.00
C160   C     0.87463   0.26195   0.63301   0.00000  Uiso   1.00
C161   C     0.85450   0.16941   0.61098   0.00000  Uiso   1.00
H162   H     0.54982   0.35803   0.78145   0.00000  Uiso   1.00
H163   H     0.52683   0.52279   0.72343   0.00000  Uiso   1.00
H164   H     0.49052   0.35918   0.92202   0.00000  Uiso   1.00
H165   H     0.60530   0.18440   0.70623   0.00000  Uiso   1.00
H166   H     0.54359   0.71763   0.64765   0.00000  Uiso   1.00
H167   H     0.46702   0.37262   0.06639   0.00000  Uiso   1.00
H168   H     0.70906   0.00407   0.61134   0.00000  Uiso   1.00
H169   H     0.87542   0.45181   0.69296   0.00000  Uiso   1.00
H170   H     0.87030   0.62171   0.63007   0.00000  Uiso   1.00
H171   H     0.83398   0.45810   0.82867   0.00000  Uiso   1.00
H172   H     0.94877   0.28333   0.61287   0.00000  Uiso   1.00
H173   H     0.82236   0.79793   0.57188   0.00000  Uiso   1.00
H174   H     0.74579   0.45291   0.99062   0.00000  Uiso   1.00
H175   H     0.98784   0.08437   0.53557   0.00000  Uiso   1.00
O176   O     0.67372   0.86787   0.57002   0.00000  Uiso   1.00
O177   O     0.57327   0.41520   0.11939   0.00000  Uiso   1.00
O178   O     0.89082   0.93169   0.52237   0.00000  Uiso   1.00
N179   N     0.60990   0.71320   0.63843   0.00000  Uiso   1.00
N180   N     0.53832   0.39065   0.02993   0.00000  Uiso   1.00
N181   N     0.76460   0.04608   0.60451   0.00000  Uiso   1.00
N182   N     0.75991   0.75641   0.59766   0.00000  Uiso   1.00
N183   N     0.68832   0.43386   0.98916   0.00000  Uiso   1.00
N184   N     0.91461   0.08928   0.56374   0.00000  Uiso   1.00
