data_job_05172
_audit_creation_date              2018-12-19
_audit_creation_method            'Materials Studio'
_symmetry_space_group_name_H-M    'P1'
_symmetry_Int_Tables_number       1
_symmetry_cell_setting            triclinic
loop_
_symmetry_equiv_pos_as_xyz
  x,y,z
_cell_length_a                    7.2332
_cell_length_b                    23.3990
_cell_length_c                    23.5795
_cell_angle_alpha                 90.0000
_cell_angle_beta                  90.0000
_cell_angle_gamma                 90.0000
loop_
_atom_site_label
_atom_site_type_symbol
_atom_site_fract_x
_atom_site_fract_y
_atom_site_fract_z
_atom_site_U_iso_or_equiv
_atom_site_adp_type
_atom_site_occupancy
C1     C     0.42818   0.21398   0.88418   0.00000  Uiso   1.00
C2     C     0.34646   0.18066   0.83458   0.00000  Uiso   1.00
C3     C     0.44659   0.15264   0.79278   0.00000  Uiso   1.00
C4     C     0.34615   0.12460   0.75103   0.00000  Uiso   1.00
C5     C     0.24871   0.07288   0.67397   0.00000  Uiso   1.00
C6     C     0.34676   0.27398   0.88040   0.00000  Uiso   1.00
C7     C     0.44716   0.32442   0.87714   0.00000  Uiso   1.00
C8     C     0.34696   0.37493   0.87398   0.00000  Uiso   1.00
C9     C     0.24999   0.46809   0.86811   0.00000  Uiso   1.00
C10    C     0.34704   0.18733   0.93769   0.00000  Uiso   1.00
C11    C     0.44765   0.16493   0.98260   0.00000  Uiso   1.00
C12    C     0.34768   0.14250   0.02768   0.00000  Uiso   1.00
C13    C     0.25114   0.10113   0.11076   0.00000  Uiso   1.00
C14    C     0.07172   0.21400   0.88437   0.00000  Uiso   1.00
C15    C     0.15285   0.18067   0.83468   0.00000  Uiso   1.00
C16    C     0.05222   0.15266   0.79298   0.00000  Uiso   1.00
C17    C     0.15219   0.12461   0.75113   0.00000  Uiso   1.00
C18    C     0.15316   0.27399   0.88051   0.00000  Uiso   1.00
C19    C     0.05278   0.32444   0.87735   0.00000  Uiso   1.00
C20    C     0.15300   0.37494   0.87408   0.00000  Uiso   1.00
C21    C     0.15342   0.18734   0.93779   0.00000  Uiso   1.00
C22    C     0.05328   0.16495   0.98281   0.00000  Uiso   1.00
C23    C     0.15372   0.14251   0.02778   0.00000  Uiso   1.00
H24    H     0.57891   0.21398   0.88410   0.00000  Uiso   1.00
H25    H     0.59643   0.15265   0.79271   0.00000  Uiso   1.00
H26    H     0.59698   0.32439   0.87707   0.00000  Uiso   1.00
H27    H     0.59748   0.16493   0.98251   0.00000  Uiso   1.00
H28    H     0.53046   0.08467   0.69142   0.00000  Uiso   1.00
H29    H     0.53164   0.44681   0.86931   0.00000  Uiso   1.00
H30    H     0.53269   0.11055   0.09166   0.00000  Uiso   1.00
H31    H     0.92098   0.21401   0.88445   0.00000  Uiso   1.00
H32    H     0.90239   0.15268   0.79307   0.00000  Uiso   1.00
H33    H     0.90296   0.32443   0.87743   0.00000  Uiso   1.00
H34    H     0.90345   0.16496   0.98287   0.00000  Uiso   1.00
H35    H     0.96716   0.08470   0.69171   0.00000  Uiso   1.00
H36    H     0.96834   0.44684   0.86961   0.00000  Uiso   1.00
H37    H     0.96938   0.11058   0.09195   0.00000  Uiso   1.00
O38    O     0.24845   0.04436   0.63144   0.00000  Uiso   1.00
O39    O     0.25001   0.51947   0.86484   0.00000  Uiso   1.00
O40    O     0.25138   0.07830   0.15655   0.00000  Uiso   1.00
N41    N     0.40044   0.09309   0.70403   0.00000  Uiso   1.00
N42    N     0.40154   0.43166   0.87035   0.00000  Uiso   1.00
N43    N     0.40252   0.11730   0.07823   0.00000  Uiso   1.00
N44    N     0.09733   0.09310   0.70419   0.00000  Uiso   1.00
N45    N     0.09844   0.43168   0.87050   0.00000  Uiso   1.00
N46    N     0.09941   0.11732   0.07838   0.00000  Uiso   1.00
C47    C     0.57182   0.78602   0.88418   0.00000  Uiso   1.00
C48    C     0.65354   0.81934   0.83458   0.00000  Uiso   1.00
C49    C     0.55341   0.84736   0.79278   0.00000  Uiso   1.00
C50    C     0.65385   0.87540   0.75103   0.00000  Uiso   1.00
C51    C     0.75129   0.92712   0.67397   0.00000  Uiso   1.00
C52    C     0.65324   0.72602   0.88040   0.00000  Uiso   1.00
C53    C     0.55284   0.67558   0.87714   0.00000  Uiso   1.00
C54    C     0.65304   0.62507   0.87398   0.00000  Uiso   1.00
C55    C     0.75001   0.53191   0.86811   0.00000  Uiso   1.00
C56    C     0.65296   0.81267   0.93769   0.00000  Uiso   1.00
C57    C     0.55235   0.83507   0.98260   0.00000  Uiso   1.00
C58    C     0.65232   0.85750   0.02768   0.00000  Uiso   1.00
C59    C     0.74886   0.89887   0.11076   0.00000  Uiso   1.00
C60    C     0.92828   0.78600   0.88437   0.00000  Uiso   1.00
C61    C     0.84715   0.81933   0.83468   0.00000  Uiso   1.00
C62    C     0.94778   0.84734   0.79298   0.00000  Uiso   1.00
C63    C     0.84781   0.87539   0.75113   0.00000  Uiso   1.00
C64    C     0.84684   0.72601   0.88051   0.00000  Uiso   1.00
C65    C     0.94722   0.67556   0.87735   0.00000  Uiso   1.00
C66    C     0.84700   0.62506   0.87408   0.00000  Uiso   1.00
C67    C     0.84658   0.81266   0.93779   0.00000  Uiso   1.00
C68    C     0.94672   0.83505   0.98281   0.00000  Uiso   1.00
C69    C     0.84628   0.85749   0.02778   0.00000  Uiso   1.00
H70    H     0.42109   0.78602   0.88410   0.00000  Uiso   1.00
H71    H     0.40357   0.84735   0.79271   0.00000  Uiso   1.00
H72    H     0.40302   0.67561   0.87707   0.00000  Uiso   1.00
H73    H     0.40252   0.83507   0.98251   0.00000  Uiso   1.00
H74    H     0.46954   0.91533   0.69142   0.00000  Uiso   1.00
H75    H     0.46836   0.55319   0.86931   0.00000  Uiso   1.00
H76    H     0.46731   0.88945   0.09166   0.00000  Uiso   1.00
H77    H     0.07902   0.78599   0.88445   0.00000  Uiso   1.00
H78    H     0.09761   0.84732   0.79307   0.00000  Uiso   1.00
H79    H     0.09704   0.67557   0.87743   0.00000  Uiso   1.00
H80    H     0.09655   0.83504   0.98287   0.00000  Uiso   1.00
H81    H     0.03284   0.91530   0.69171   0.00000  Uiso   1.00
H82    H     0.03166   0.55316   0.86961   0.00000  Uiso   1.00
H83    H     0.03062   0.88942   0.09195   0.00000  Uiso   1.00
O84    O     0.75155   0.95564   0.63144   0.00000  Uiso   1.00
O85    O     0.74999   0.48053   0.86484   0.00000  Uiso   1.00
O86    O     0.74862   0.92170   0.15655   0.00000  Uiso   1.00
N87    N     0.59956   0.90691   0.70403   0.00000  Uiso   1.00
N88    N     0.59846   0.56834   0.87035   0.00000  Uiso   1.00
N89    N     0.59748   0.88270   0.07823   0.00000  Uiso   1.00
N90    N     0.90267   0.90690   0.70419   0.00000  Uiso   1.00
N91    N     0.90156   0.56832   0.87050   0.00000  Uiso   1.00
N92    N     0.90059   0.88268   0.07838   0.00000  Uiso   1.00
C93    C     0.42818   0.78602   0.38418   0.00000  Uiso   1.00
C94    C     0.34646   0.81934   0.33458   0.00000  Uiso   1.00
C95    C     0.44659   0.84736   0.29278   0.00000  Uiso   1.00
C96    C     0.34615   0.87540   0.25103   0.00000  Uiso   1.00
C97    C     0.24871   0.92712   0.17397   0.00000  Uiso   1.00
C98    C     0.34676   0.72602   0.38040   0.00000  Uiso   1.00
C99    C     0.44716   0.67558   0.37714   0.00000  Uiso   1.00
C100   C     0.34696   0.62507   0.37398   0.00000  Uiso   1.00
C101   C     0.24999   0.53191   0.36811   0.00000  Uiso   1.00
C102   C     0.34704   0.81267   0.43769   0.00000  Uiso   1.00
C103   C     0.44765   0.83507   0.48260   0.00000  Uiso   1.00
C104   C     0.34768   0.85750   0.52768   0.00000  Uiso   1.00
C105   C     0.25114   0.89887   0.61076   0.00000  Uiso   1.00
C106   C     0.07172   0.78600   0.38437   0.00000  Uiso   1.00
C107   C     0.15285   0.81933   0.33468   0.00000  Uiso   1.00
C108   C     0.05222   0.84734   0.29298   0.00000  Uiso   1.00
C109   C     0.15219   0.87539   0.25113   0.00000  Uiso   1.00
C110   C     0.15316   0.72601   0.38051   0.00000  Uiso   1.00
C111   C     0.05278   0.67556   0.37735   0.00000  Uiso   1.00
C112   C     0.15300   0.62506   0.37408   0.00000  Uiso   1.00
C113   C     0.15342   0.81266   0.43779   0.00000  Uiso   1.00
C114   C     0.05328   0.83505   0.48281   0.00000  Uiso   1.00
C115   C     0.15372   0.85749   0.52778   0.00000  Uiso   1.00
H116   H     0.57891   0.78602   0.38410   0.00000  Uiso   1.00
H117   H     0.59643   0.84735   0.29271   0.00000  Uiso   1.00
H118   H     0.59698   0.67561   0.37707   0.00000  Uiso   1.00
H119   H     0.59748   0.83507   0.48251   0.00000  Uiso   1.00
H120   H     0.53046   0.91533   0.19142   0.00000  Uiso   1.00
H121   H     0.53164   0.55319   0.36931   0.00000  Uiso   1.00
H122   H     0.53269   0.88945   0.59166   0.00000  Uiso   1.00
H123   H     0.92098   0.78599   0.38445   0.00000  Uiso   1.00
H124   H     0.90239   0.84732   0.29307   0.00000  Uiso   1.00
H125   H     0.90296   0.67557   0.37743   0.00000  Uiso   1.00
H126   H     0.90345   0.83504   0.48287   0.00000  Uiso   1.00
H127   H     0.96716   0.91530   0.19171   0.00000  Uiso   1.00
H128   H     0.96834   0.55316   0.36961   0.00000  Uiso   1.00
H129   H     0.96938   0.88942   0.59195   0.00000  Uiso   1.00
O130   O     0.24845   0.95564   0.13144   0.00000  Uiso   1.00
O131   O     0.25001   0.48053   0.36484   0.00000  Uiso   1.00
O132   O     0.25138   0.92170   0.65655   0.00000  Uiso   1.00
N133   N     0.40044   0.90691   0.20403   0.00000  Uiso   1.00
N134   N     0.40154   0.56834   0.37035   0.00000  Uiso   1.00
N135   N     0.40252   0.88270   0.57823   0.00000  Uiso   1.00
N136   N     0.09733   0.90690   0.20419   0.00000  Uiso   1.00
N137   N     0.09844   0.56832   0.37050   0.00000  Uiso   1.00
N138   N     0.09941   0.88268   0.57838   0.00000  Uiso   1.00
C139   C     0.57182   0.21398   0.38418   0.00000  Uiso   1.00
C140   C     0.65354   0.18066   0.33458   0.00000  Uiso   1.00
C141   C     0.55341   0.15264   0.29278   0.00000  Uiso   1.00
C142   C     0.65385   0.12460   0.25103   0.00000  Uiso   1.00
C143   C     0.75129   0.07288   0.17397   0.00000  Uiso   1.00
C144   C     0.65324   0.27398   0.38040   0.00000  Uiso   1.00
C145   C     0.55284   0.32442   0.37714   0.00000  Uiso   1.00
C146   C     0.65304   0.37493   0.37398   0.00000  Uiso   1.00
C147   C     0.75001   0.46809   0.36811   0.00000  Uiso   1.00
C148   C     0.65296   0.18733   0.43769   0.00000  Uiso   1.00
C149   C     0.55235   0.16493   0.48260   0.00000  Uiso   1.00
C150   C     0.65232   0.14250   0.52768   0.00000  Uiso   1.00
C151   C     0.74886   0.10113   0.61076   0.00000  Uiso   1.00
C152   C     0.92828   0.21400   0.38437   0.00000  Uiso   1.00
C153   C     0.84715   0.18067   0.33468   0.00000  Uiso   1.00
C154   C     0.94778   0.15266   0.29298   0.00000  Uiso   1.00
C155   C     0.84781   0.12461   0.25113   0.00000  Uiso   1.00
C156   C     0.84684   0.27399   0.38051   0.00000  Uiso   1.00
C157   C     0.94722   0.32444   0.37735   0.00000  Uiso   1.00
C158   C     0.84700   0.37494   0.37408   0.00000  Uiso   1.00
C159   C     0.84658   0.18734   0.43779   0.00000  Uiso   1.00
C160   C     0.94672   0.16495   0.48281   0.00000  Uiso   1.00
C161   C     0.84628   0.14251   0.52778   0.00000  Uiso   1.00
H162   H     0.42109   0.21398   0.38410   0.00000  Uiso   1.00
H163   H     0.40357   0.15265   0.29271   0.00000  Uiso   1.00
H164   H     0.40302   0.32439   0.37707   0.00000  Uiso   1.00
H165   H     0.40252   0.16493   0.48251   0.00000  Uiso   1.00
H166   H     0.46954   0.08467   0.19142   0.00000  Uiso   1.00
H167   H     0.46836   0.44681   0.36931   0.00000  Uiso   1.00
H168   H     0.46731   0.11055   0.59166   0.00000  Uiso   1.00
H169   H     0.07902   0.21401   0.38445   0.00000  Uiso   1.00
H170   H     0.09761   0.15268   0.29307   0.00000  Uiso   1.00
H171   H     0.09704   0.32443   0.37743   0.00000  Uiso   1.00
H172   H     0.09655   0.16496   0.48287   0.00000  Uiso   1.00
H173   H     0.03284   0.08470   0.19171   0.00000  Uiso   1.00
H174   H     0.03166   0.44684   0.36961   0.00000  Uiso   1.00
H175   H     0.03062   0.11058   0.59195   0.00000  Uiso   1.00
O176   O     0.75155   0.04436   0.13144   0.00000  Uiso   1.00
O177   O     0.74999   0.51947   0.36484   0.00000  Uiso   1.00
O178   O     0.74862   0.07830   0.65655   0.00000  Uiso   1.00
N179   N     0.59956   0.09309   0.20403   0.00000  Uiso   1.00
N180   N     0.59846   0.43166   0.37035   0.00000  Uiso   1.00
N181   N     0.59748   0.11730   0.57823   0.00000  Uiso   1.00
N182   N     0.90267   0.09310   0.20419   0.00000  Uiso   1.00
N183   N     0.90156   0.43168   0.37050   0.00000  Uiso   1.00
N184   N     0.90059   0.11732   0.57838   0.00000  Uiso   1.00
