data_job_01365
_audit_creation_date              2018-12-19
_audit_creation_method            'Materials Studio'
_symmetry_space_group_name_H-M    'P1'
_symmetry_Int_Tables_number       1
_symmetry_cell_setting            triclinic
loop_
_symmetry_equiv_pos_as_xyz
  x,y,z
_cell_length_a                    14.8493
_cell_length_b                    9.6076
_cell_length_c                    29.6898
_cell_angle_alpha                 90.0000
_cell_angle_beta                  90.0000
_cell_angle_gamma                 90.0000
loop_
_atom_site_label
_atom_site_type_symbol
_atom_site_fract_x
_atom_site_fract_y
_atom_site_fract_z
_atom_site_U_iso_or_equiv
_atom_site_adp_type
_atom_site_occupancy
C1     C     0.07786   0.27274   0.40358   0.00000  Uiso   1.00
C2     C     0.11175   0.23180   0.35694   0.00000  Uiso   1.00
C3     C     0.18314   0.14274   0.34804   0.00000  Uiso   1.00
C4     C     0.20362   0.11850   0.30309   0.00000  Uiso   1.00
C5     C     0.26370   0.04536   0.23596   0.00000  Uiso   1.00
C6     C     0.97826   0.23417   0.40465   0.00000  Uiso   1.00
C7     C     0.93743   0.14711   0.43586   0.00000  Uiso   1.00
C8     C     0.84554   0.12488   0.43107   0.00000  Uiso   1.00
C9     C     0.69837   0.05549   0.43802   0.00000  Uiso   1.00
C10    C     0.08148   0.43126   0.40530   0.00000  Uiso   1.00
C11    C     0.12740   0.50993   0.43707   0.00000  Uiso   1.00
C12    C     0.12239   0.65365   0.43284   0.00000  Uiso   1.00
C13    C     0.13548   0.89028   0.44080   0.00000  Uiso   1.00
C14    C     0.98727   0.38807   0.33958   0.00000  Uiso   1.00
C15    C     0.06254   0.29445   0.32218   0.00000  Uiso   1.00
C16    C     0.08292   0.27034   0.27723   0.00000  Uiso   1.00
C17    C     0.15433   0.18126   0.26827   0.00000  Uiso   1.00
C18    C     0.92906   0.29681   0.36989   0.00000  Uiso   1.00
C19    C     0.83721   0.27471   0.36505   0.00000  Uiso   1.00
C20    C     0.79624   0.18764   0.39625   0.00000  Uiso   1.00
C21    C     0.03228   0.49391   0.37054   0.00000  Uiso   1.00
C22    C     0.02718   0.63753   0.36626   0.00000  Uiso   1.00
C23    C     0.07310   0.71641   0.39801   0.00000  Uiso   1.00
H24    H     0.11616   0.22396   0.43064   0.00000  Uiso   1.00
H25    H     0.22119   0.09427   0.37495   0.00000  Uiso   1.00
H26    H     0.97552   0.09866   0.46276   0.00000  Uiso   1.00
H27    H     0.16547   0.46142   0.46396   0.00000  Uiso   1.00
H28    H     0.31593   0.97807   0.29787   0.00000  Uiso   1.00
H29    H     0.79790   0.98735   0.48303   0.00000  Uiso   1.00
H30    H     0.19845   0.75231   0.48558   0.00000  Uiso   1.00
H31    H     0.94896   0.43684   0.31252   0.00000  Uiso   1.00
H32    H     0.04483   0.31884   0.25034   0.00000  Uiso   1.00
H33    H     0.79915   0.32322   0.33815   0.00000  Uiso   1.00
H34    H     0.98910   0.68598   0.33935   0.00000  Uiso   1.00
H35    H     0.17278   0.16033   0.19674   0.00000  Uiso   1.00
H36    H     0.65476   0.16962   0.38189   0.00000  Uiso   1.00
H37    H     0.05530   0.93457   0.38444   0.00000  Uiso   1.00
O38    O     0.31042   0.98769   0.20853   0.00000  Uiso   1.00
O39    O     0.63079   0.99990   0.45146   0.00000  Uiso   1.00
O40    O     0.15629   0.00349   0.45479   0.00000  Uiso   1.00
N41    N     0.26910   0.03718   0.28260   0.00000  Uiso   1.00
N42    N     0.78477   0.04584   0.45571   0.00000  Uiso   1.00
N43    N     0.15923   0.76101   0.45810   0.00000  Uiso   1.00
N44    N     0.19207   0.13526   0.22818   0.00000  Uiso   1.00
N45    N     0.70775   0.14392   0.40129   0.00000  Uiso   1.00
N46    N     0.08220   0.85909   0.40367   0.00000  Uiso   1.00
C47    C     0.42214   0.72726   0.90358   0.00000  Uiso   1.00
C48    C     0.38825   0.76820   0.85694   0.00000  Uiso   1.00
C49    C     0.31686   0.85726   0.84804   0.00000  Uiso   1.00
C50    C     0.29638   0.88150   0.80309   0.00000  Uiso   1.00
C51    C     0.23630   0.95464   0.73596   0.00000  Uiso   1.00
C52    C     0.52174   0.76583   0.90465   0.00000  Uiso   1.00
C53    C     0.56257   0.85289   0.93586   0.00000  Uiso   1.00
C54    C     0.65446   0.87512   0.93107   0.00000  Uiso   1.00
C55    C     0.80163   0.94451   0.93802   0.00000  Uiso   1.00
C56    C     0.41852   0.56874   0.90530   0.00000  Uiso   1.00
C57    C     0.37260   0.49007   0.93707   0.00000  Uiso   1.00
C58    C     0.37761   0.34635   0.93284   0.00000  Uiso   1.00
C59    C     0.36452   0.10972   0.94080   0.00000  Uiso   1.00
C60    C     0.51273   0.61193   0.83958   0.00000  Uiso   1.00
C61    C     0.43746   0.70555   0.82218   0.00000  Uiso   1.00
C62    C     0.41708   0.72966   0.77723   0.00000  Uiso   1.00
C63    C     0.34567   0.81874   0.76827   0.00000  Uiso   1.00
C64    C     0.57094   0.70319   0.86989   0.00000  Uiso   1.00
C65    C     0.66279   0.72529   0.86505   0.00000  Uiso   1.00
C66    C     0.70376   0.81236   0.89625   0.00000  Uiso   1.00
C67    C     0.46772   0.50609   0.87054   0.00000  Uiso   1.00
C68    C     0.47282   0.36247   0.86626   0.00000  Uiso   1.00
C69    C     0.42690   0.28359   0.89801   0.00000  Uiso   1.00
H70    H     0.38384   0.77604   0.93064   0.00000  Uiso   1.00
H71    H     0.27881   0.90573   0.87495   0.00000  Uiso   1.00
H72    H     0.52448   0.90134   0.96276   0.00000  Uiso   1.00
H73    H     0.33453   0.53858   0.96396   0.00000  Uiso   1.00
H74    H     0.18407   0.02193   0.79787   0.00000  Uiso   1.00
H75    H     0.70210   0.01265   0.98303   0.00000  Uiso   1.00
H76    H     0.30155   0.24769   0.98558   0.00000  Uiso   1.00
H77    H     0.55104   0.56316   0.81252   0.00000  Uiso   1.00
H78    H     0.45517   0.68116   0.75034   0.00000  Uiso   1.00
H79    H     0.70085   0.67678   0.83815   0.00000  Uiso   1.00
H80    H     0.51090   0.31402   0.83935   0.00000  Uiso   1.00
H81    H     0.32722   0.83967   0.69674   0.00000  Uiso   1.00
H82    H     0.84524   0.83038   0.88189   0.00000  Uiso   1.00
H83    H     0.44470   0.06543   0.88444   0.00000  Uiso   1.00
O84    O     0.18958   0.01231   0.70853   0.00000  Uiso   1.00
O85    O     0.86921   0.00010   0.95146   0.00000  Uiso   1.00
O86    O     0.34371   0.99651   0.95479   0.00000  Uiso   1.00
N87    N     0.23090   0.96282   0.78260   0.00000  Uiso   1.00
N88    N     0.71523   0.95416   0.95571   0.00000  Uiso   1.00
N89    N     0.34077   0.23899   0.95810   0.00000  Uiso   1.00
N90    N     0.30793   0.86474   0.72818   0.00000  Uiso   1.00
N91    N     0.79225   0.85608   0.90129   0.00000  Uiso   1.00
N92    N     0.41780   0.14091   0.90367   0.00000  Uiso   1.00
C93    C     0.92214   0.77274   0.09642   0.00000  Uiso   1.00
C94    C     0.88825   0.73180   0.14306   0.00000  Uiso   1.00
C95    C     0.81686   0.64274   0.15196   0.00000  Uiso   1.00
C96    C     0.79638   0.61850   0.19691   0.00000  Uiso   1.00
C97    C     0.73630   0.54536   0.26404   0.00000  Uiso   1.00
C98    C     0.02174   0.73417   0.09535   0.00000  Uiso   1.00
C99    C     0.06257   0.64711   0.06414   0.00000  Uiso   1.00
C100   C     0.15446   0.62488   0.06893   0.00000  Uiso   1.00
C101   C     0.30163   0.55549   0.06198   0.00000  Uiso   1.00
C102   C     0.91852   0.93126   0.09470   0.00000  Uiso   1.00
C103   C     0.87260   0.00993   0.06293   0.00000  Uiso   1.00
C104   C     0.87761   0.15365   0.06716   0.00000  Uiso   1.00
C105   C     0.86452   0.39028   0.05920   0.00000  Uiso   1.00
C106   C     0.01273   0.88807   0.16042   0.00000  Uiso   1.00
C107   C     0.93746   0.79445   0.17782   0.00000  Uiso   1.00
C108   C     0.91708   0.77034   0.22277   0.00000  Uiso   1.00
C109   C     0.84567   0.68126   0.23173   0.00000  Uiso   1.00
C110   C     0.07094   0.79681   0.13011   0.00000  Uiso   1.00
C111   C     0.16279   0.77471   0.13495   0.00000  Uiso   1.00
C112   C     0.20376   0.68764   0.10375   0.00000  Uiso   1.00
C113   C     0.96772   0.99391   0.12946   0.00000  Uiso   1.00
C114   C     0.97282   0.13753   0.13374   0.00000  Uiso   1.00
C115   C     0.92690   0.21641   0.10199   0.00000  Uiso   1.00
H116   H     0.88384   0.72396   0.06936   0.00000  Uiso   1.00
H117   H     0.77881   0.59427   0.12505   0.00000  Uiso   1.00
H118   H     0.02448   0.59866   0.03724   0.00000  Uiso   1.00
H119   H     0.83453   0.96142   0.03604   0.00000  Uiso   1.00
H120   H     0.68407   0.47807   0.20213   0.00000  Uiso   1.00
H121   H     0.20210   0.48735   0.01697   0.00000  Uiso   1.00
H122   H     0.80155   0.25231   0.01442   0.00000  Uiso   1.00
H123   H     0.05104   0.93684   0.18748   0.00000  Uiso   1.00
H124   H     0.95517   0.81884   0.24966   0.00000  Uiso   1.00
H125   H     0.20085   0.82322   0.16185   0.00000  Uiso   1.00
H126   H     0.01090   0.18598   0.16065   0.00000  Uiso   1.00
H127   H     0.82722   0.66033   0.30326   0.00000  Uiso   1.00
H128   H     0.34524   0.66962   0.11811   0.00000  Uiso   1.00
H129   H     0.94470   0.43457   0.11556   0.00000  Uiso   1.00
O130   O     0.68958   0.48769   0.29147   0.00000  Uiso   1.00
O131   O     0.36921   0.49990   0.04854   0.00000  Uiso   1.00
O132   O     0.84371   0.50349   0.04521   0.00000  Uiso   1.00
N133   N     0.73090   0.53718   0.21740   0.00000  Uiso   1.00
N134   N     0.21523   0.54584   0.04429   0.00000  Uiso   1.00
N135   N     0.84077   0.26101   0.04190   0.00000  Uiso   1.00
N136   N     0.80793   0.63526   0.27182   0.00000  Uiso   1.00
N137   N     0.29225   0.64392   0.09871   0.00000  Uiso   1.00
N138   N     0.91780   0.35909   0.09633   0.00000  Uiso   1.00
C139   C     0.57786   0.22726   0.59642   0.00000  Uiso   1.00
C140   C     0.61175   0.26820   0.64306   0.00000  Uiso   1.00
C141   C     0.68314   0.35726   0.65196   0.00000  Uiso   1.00
C142   C     0.70362   0.38150   0.69691   0.00000  Uiso   1.00
C143   C     0.76370   0.45464   0.76404   0.00000  Uiso   1.00
C144   C     0.47826   0.26583   0.59535   0.00000  Uiso   1.00
C145   C     0.43743   0.35289   0.56414   0.00000  Uiso   1.00
C146   C     0.34554   0.37512   0.56893   0.00000  Uiso   1.00
C147   C     0.19837   0.44451   0.56198   0.00000  Uiso   1.00
C148   C     0.58148   0.06874   0.59470   0.00000  Uiso   1.00
C149   C     0.62740   0.99007   0.56293   0.00000  Uiso   1.00
C150   C     0.62239   0.84635   0.56716   0.00000  Uiso   1.00
C151   C     0.63548   0.60972   0.55920   0.00000  Uiso   1.00
C152   C     0.48727   0.11193   0.66042   0.00000  Uiso   1.00
C153   C     0.56254   0.20555   0.67782   0.00000  Uiso   1.00
C154   C     0.58292   0.22966   0.72277   0.00000  Uiso   1.00
C155   C     0.65433   0.31874   0.73173   0.00000  Uiso   1.00
C156   C     0.42906   0.20319   0.63011   0.00000  Uiso   1.00
C157   C     0.33721   0.22529   0.63495   0.00000  Uiso   1.00
C158   C     0.29624   0.31236   0.60375   0.00000  Uiso   1.00
C159   C     0.53228   0.00609   0.62946   0.00000  Uiso   1.00
C160   C     0.52718   0.86247   0.63374   0.00000  Uiso   1.00
C161   C     0.57310   0.78359   0.60199   0.00000  Uiso   1.00
H162   H     0.61616   0.27604   0.56936   0.00000  Uiso   1.00
H163   H     0.72119   0.40573   0.62505   0.00000  Uiso   1.00
H164   H     0.47552   0.40134   0.53724   0.00000  Uiso   1.00
H165   H     0.66547   0.03858   0.53604   0.00000  Uiso   1.00
H166   H     0.81593   0.52193   0.70213   0.00000  Uiso   1.00
H167   H     0.29790   0.51265   0.51697   0.00000  Uiso   1.00
H168   H     0.69845   0.74769   0.51442   0.00000  Uiso   1.00
H169   H     0.44896   0.06316   0.68748   0.00000  Uiso   1.00
H170   H     0.54483   0.18116   0.74966   0.00000  Uiso   1.00
H171   H     0.29915   0.17678   0.66185   0.00000  Uiso   1.00
H172   H     0.48910   0.81402   0.66065   0.00000  Uiso   1.00
H173   H     0.67278   0.33967   0.80326   0.00000  Uiso   1.00
H174   H     0.15476   0.33038   0.61811   0.00000  Uiso   1.00
H175   H     0.55530   0.56543   0.61556   0.00000  Uiso   1.00
O176   O     0.81042   0.51231   0.79147   0.00000  Uiso   1.00
O177   O     0.13079   0.50010   0.54854   0.00000  Uiso   1.00
O178   O     0.65629   0.49651   0.54521   0.00000  Uiso   1.00
N179   N     0.76910   0.46282   0.71740   0.00000  Uiso   1.00
N180   N     0.28477   0.45416   0.54429   0.00000  Uiso   1.00
N181   N     0.65923   0.73899   0.54190   0.00000  Uiso   1.00
N182   N     0.69207   0.36474   0.77182   0.00000  Uiso   1.00
N183   N     0.20775   0.35608   0.59871   0.00000  Uiso   1.00
N184   N     0.58220   0.64091   0.59633   0.00000  Uiso   1.00
C185   C     0.92214   0.72726   0.59642   0.00000  Uiso   1.00
C186   C     0.88825   0.76820   0.64306   0.00000  Uiso   1.00
C187   C     0.81686   0.85726   0.65196   0.00000  Uiso   1.00
C188   C     0.79638   0.88150   0.69691   0.00000  Uiso   1.00
C189   C     0.73630   0.95464   0.76404   0.00000  Uiso   1.00
C190   C     0.02174   0.76583   0.59535   0.00000  Uiso   1.00
C191   C     0.06257   0.85289   0.56414   0.00000  Uiso   1.00
C192   C     0.15446   0.87512   0.56893   0.00000  Uiso   1.00
C193   C     0.30163   0.94451   0.56198   0.00000  Uiso   1.00
C194   C     0.91852   0.56874   0.59470   0.00000  Uiso   1.00
C195   C     0.87260   0.49007   0.56293   0.00000  Uiso   1.00
C196   C     0.87761   0.34635   0.56716   0.00000  Uiso   1.00
C197   C     0.86452   0.10972   0.55920   0.00000  Uiso   1.00
C198   C     0.01273   0.61193   0.66042   0.00000  Uiso   1.00
C199   C     0.93746   0.70555   0.67782   0.00000  Uiso   1.00
C200   C     0.91708   0.72966   0.72277   0.00000  Uiso   1.00
C201   C     0.84567   0.81874   0.73173   0.00000  Uiso   1.00
C202   C     0.07094   0.70319   0.63011   0.00000  Uiso   1.00
C203   C     0.16279   0.72529   0.63495   0.00000  Uiso   1.00
C204   C     0.20376   0.81236   0.60375   0.00000  Uiso   1.00
C205   C     0.96772   0.50609   0.62946   0.00000  Uiso   1.00
C206   C     0.97282   0.36247   0.63374   0.00000  Uiso   1.00
C207   C     0.92690   0.28359   0.60199   0.00000  Uiso   1.00
H208   H     0.88384   0.77604   0.56936   0.00000  Uiso   1.00
H209   H     0.77881   0.90573   0.62505   0.00000  Uiso   1.00
H210   H     0.02448   0.90134   0.53724   0.00000  Uiso   1.00
H211   H     0.83453   0.53858   0.53604   0.00000  Uiso   1.00
H212   H     0.68407   0.02193   0.70213   0.00000  Uiso   1.00
H213   H     0.20210   0.01265   0.51697   0.00000  Uiso   1.00
H214   H     0.80155   0.24769   0.51442   0.00000  Uiso   1.00
H215   H     0.05104   0.56316   0.68748   0.00000  Uiso   1.00
H216   H     0.95517   0.68116   0.74966   0.00000  Uiso   1.00
H217   H     0.20085   0.67678   0.66185   0.00000  Uiso   1.00
H218   H     0.01090   0.31402   0.66065   0.00000  Uiso   1.00
H219   H     0.82722   0.83967   0.80326   0.00000  Uiso   1.00
H220   H     0.34524   0.83038   0.61811   0.00000  Uiso   1.00
H221   H     0.94470   0.06543   0.61556   0.00000  Uiso   1.00
O222   O     0.68958   0.01231   0.79147   0.00000  Uiso   1.00
O223   O     0.36921   0.00010   0.54854   0.00000  Uiso   1.00
O224   O     0.84371   0.99651   0.54521   0.00000  Uiso   1.00
N225   N     0.73090   0.96282   0.71740   0.00000  Uiso   1.00
N226   N     0.21523   0.95416   0.54429   0.00000  Uiso   1.00
N227   N     0.84077   0.23899   0.54190   0.00000  Uiso   1.00
N228   N     0.80793   0.86474   0.77182   0.00000  Uiso   1.00
N229   N     0.29225   0.85608   0.59871   0.00000  Uiso   1.00
N230   N     0.91780   0.14091   0.59633   0.00000  Uiso   1.00
C231   C     0.57786   0.27274   0.09642   0.00000  Uiso   1.00
C232   C     0.61175   0.23180   0.14306   0.00000  Uiso   1.00
C233   C     0.68314   0.14274   0.15196   0.00000  Uiso   1.00
C234   C     0.70362   0.11850   0.19691   0.00000  Uiso   1.00
C235   C     0.76370   0.04536   0.26404   0.00000  Uiso   1.00
C236   C     0.47826   0.23417   0.09535   0.00000  Uiso   1.00
C237   C     0.43743   0.14711   0.06414   0.00000  Uiso   1.00
C238   C     0.34554   0.12488   0.06893   0.00000  Uiso   1.00
C239   C     0.19837   0.05549   0.06198   0.00000  Uiso   1.00
C240   C     0.58148   0.43126   0.09470   0.00000  Uiso   1.00
C241   C     0.62740   0.50993   0.06293   0.00000  Uiso   1.00
C242   C     0.62239   0.65365   0.06716   0.00000  Uiso   1.00
C243   C     0.63548   0.89028   0.05920   0.00000  Uiso   1.00
C244   C     0.48727   0.38807   0.16042   0.00000  Uiso   1.00
C245   C     0.56254   0.29445   0.17782   0.00000  Uiso   1.00
C246   C     0.58292   0.27034   0.22277   0.00000  Uiso   1.00
C247   C     0.65433   0.18126   0.23173   0.00000  Uiso   1.00
C248   C     0.42906   0.29681   0.13011   0.00000  Uiso   1.00
C249   C     0.33721   0.27471   0.13495   0.00000  Uiso   1.00
C250   C     0.29624   0.18764   0.10375   0.00000  Uiso   1.00
C251   C     0.53228   0.49391   0.12946   0.00000  Uiso   1.00
C252   C     0.52718   0.63753   0.13374   0.00000  Uiso   1.00
C253   C     0.57310   0.71641   0.10199   0.00000  Uiso   1.00
H254   H     0.61616   0.22396   0.06936   0.00000  Uiso   1.00
H255   H     0.72119   0.09427   0.12505   0.00000  Uiso   1.00
H256   H     0.47552   0.09866   0.03724   0.00000  Uiso   1.00
H257   H     0.66547   0.46142   0.03604   0.00000  Uiso   1.00
H258   H     0.81593   0.97807   0.20213   0.00000  Uiso   1.00
H259   H     0.29790   0.98735   0.01697   0.00000  Uiso   1.00
H260   H     0.69845   0.75231   0.01442   0.00000  Uiso   1.00
H261   H     0.44896   0.43684   0.18748   0.00000  Uiso   1.00
H262   H     0.54483   0.31884   0.24966   0.00000  Uiso   1.00
H263   H     0.29915   0.32322   0.16185   0.00000  Uiso   1.00
H264   H     0.48910   0.68598   0.16065   0.00000  Uiso   1.00
H265   H     0.67278   0.16033   0.30326   0.00000  Uiso   1.00
H266   H     0.15476   0.16962   0.11811   0.00000  Uiso   1.00
H267   H     0.55530   0.93457   0.11556   0.00000  Uiso   1.00
O268   O     0.81042   0.98769   0.29147   0.00000  Uiso   1.00
O269   O     0.13079   0.99990   0.04854   0.00000  Uiso   1.00
O270   O     0.65629   0.00349   0.04521   0.00000  Uiso   1.00
N271   N     0.76910   0.03718   0.21740   0.00000  Uiso   1.00
N272   N     0.28477   0.04584   0.04429   0.00000  Uiso   1.00
N273   N     0.65923   0.76101   0.04190   0.00000  Uiso   1.00
N274   N     0.69207   0.13526   0.27182   0.00000  Uiso   1.00
N275   N     0.20775   0.14392   0.09871   0.00000  Uiso   1.00
N276   N     0.58220   0.85909   0.09633   0.00000  Uiso   1.00
C277   C     0.07786   0.22726   0.90358   0.00000  Uiso   1.00
C278   C     0.11175   0.26820   0.85694   0.00000  Uiso   1.00
C279   C     0.18314   0.35726   0.84804   0.00000  Uiso   1.00
C280   C     0.20362   0.38150   0.80309   0.00000  Uiso   1.00
C281   C     0.26370   0.45464   0.73596   0.00000  Uiso   1.00
C282   C     0.97826   0.26583   0.90465   0.00000  Uiso   1.00
C283   C     0.93743   0.35289   0.93586   0.00000  Uiso   1.00
C284   C     0.84554   0.37512   0.93107   0.00000  Uiso   1.00
C285   C     0.69837   0.44451   0.93802   0.00000  Uiso   1.00
C286   C     0.08148   0.06874   0.90530   0.00000  Uiso   1.00
C287   C     0.12740   0.99007   0.93707   0.00000  Uiso   1.00
C288   C     0.12239   0.84635   0.93284   0.00000  Uiso   1.00
C289   C     0.13548   0.60972   0.94080   0.00000  Uiso   1.00
C290   C     0.98727   0.11193   0.83958   0.00000  Uiso   1.00
C291   C     0.06254   0.20555   0.82218   0.00000  Uiso   1.00
C292   C     0.08292   0.22966   0.77723   0.00000  Uiso   1.00
C293   C     0.15433   0.31874   0.76827   0.00000  Uiso   1.00
C294   C     0.92906   0.20319   0.86989   0.00000  Uiso   1.00
C295   C     0.83721   0.22529   0.86505   0.00000  Uiso   1.00
C296   C     0.79624   0.31236   0.89625   0.00000  Uiso   1.00
C297   C     0.03228   0.00609   0.87054   0.00000  Uiso   1.00
C298   C     0.02718   0.86247   0.86626   0.00000  Uiso   1.00
C299   C     0.07310   0.78359   0.89801   0.00000  Uiso   1.00
H300   H     0.11616   0.27604   0.93064   0.00000  Uiso   1.00
H301   H     0.22119   0.40573   0.87495   0.00000  Uiso   1.00
H302   H     0.97552   0.40134   0.96276   0.00000  Uiso   1.00
H303   H     0.16547   0.03858   0.96396   0.00000  Uiso   1.00
H304   H     0.31593   0.52193   0.79787   0.00000  Uiso   1.00
H305   H     0.79790   0.51265   0.98303   0.00000  Uiso   1.00
H306   H     0.19845   0.74769   0.98558   0.00000  Uiso   1.00
H307   H     0.94896   0.06316   0.81252   0.00000  Uiso   1.00
H308   H     0.04483   0.18116   0.75034   0.00000  Uiso   1.00
H309   H     0.79915   0.17678   0.83815   0.00000  Uiso   1.00
H310   H     0.98910   0.81402   0.83935   0.00000  Uiso   1.00
H311   H     0.17278   0.33967   0.69674   0.00000  Uiso   1.00
H312   H     0.65476   0.33038   0.88189   0.00000  Uiso   1.00
H313   H     0.05530   0.56543   0.88444   0.00000  Uiso   1.00
O314   O     0.31042   0.51231   0.70853   0.00000  Uiso   1.00
O315   O     0.63079   0.50010   0.95146   0.00000  Uiso   1.00
O316   O     0.15629   0.49651   0.95479   0.00000  Uiso   1.00
N317   N     0.26910   0.46282   0.78260   0.00000  Uiso   1.00
N318   N     0.78477   0.45416   0.95571   0.00000  Uiso   1.00
N319   N     0.15923   0.73899   0.95810   0.00000  Uiso   1.00
N320   N     0.19207   0.36474   0.72818   0.00000  Uiso   1.00
N321   N     0.70775   0.35608   0.90129   0.00000  Uiso   1.00
N322   N     0.08220   0.64091   0.90367   0.00000  Uiso   1.00
C323   C     0.42214   0.77274   0.40358   0.00000  Uiso   1.00
C324   C     0.38825   0.73180   0.35694   0.00000  Uiso   1.00
C325   C     0.31686   0.64274   0.34804   0.00000  Uiso   1.00
C326   C     0.29638   0.61850   0.30309   0.00000  Uiso   1.00
C327   C     0.23630   0.54536   0.23596   0.00000  Uiso   1.00
C328   C     0.52174   0.73417   0.40465   0.00000  Uiso   1.00
C329   C     0.56257   0.64711   0.43586   0.00000  Uiso   1.00
C330   C     0.65446   0.62488   0.43107   0.00000  Uiso   1.00
C331   C     0.80163   0.55549   0.43802   0.00000  Uiso   1.00
C332   C     0.41852   0.93126   0.40530   0.00000  Uiso   1.00
C333   C     0.37260   0.00993   0.43707   0.00000  Uiso   1.00
C334   C     0.37761   0.15365   0.43284   0.00000  Uiso   1.00
C335   C     0.36452   0.39028   0.44080   0.00000  Uiso   1.00
C336   C     0.51273   0.88807   0.33958   0.00000  Uiso   1.00
C337   C     0.43746   0.79445   0.32218   0.00000  Uiso   1.00
C338   C     0.41708   0.77034   0.27723   0.00000  Uiso   1.00
C339   C     0.34567   0.68126   0.26827   0.00000  Uiso   1.00
C340   C     0.57094   0.79681   0.36989   0.00000  Uiso   1.00
C341   C     0.66279   0.77471   0.36505   0.00000  Uiso   1.00
C342   C     0.70376   0.68764   0.39625   0.00000  Uiso   1.00
C343   C     0.46772   0.99391   0.37054   0.00000  Uiso   1.00
C344   C     0.47282   0.13753   0.36626   0.00000  Uiso   1.00
C345   C     0.42690   0.21641   0.39801   0.00000  Uiso   1.00
H346   H     0.38384   0.72396   0.43064   0.00000  Uiso   1.00
H347   H     0.27881   0.59427   0.37495   0.00000  Uiso   1.00
H348   H     0.52448   0.59866   0.46276   0.00000  Uiso   1.00
H349   H     0.33453   0.96142   0.46396   0.00000  Uiso   1.00
H350   H     0.18407   0.47807   0.29787   0.00000  Uiso   1.00
H351   H     0.70210   0.48735   0.48303   0.00000  Uiso   1.00
H352   H     0.30155   0.25231   0.48558   0.00000  Uiso   1.00
H353   H     0.55104   0.93684   0.31252   0.00000  Uiso   1.00
H354   H     0.45517   0.81884   0.25034   0.00000  Uiso   1.00
H355   H     0.70085   0.82322   0.33815   0.00000  Uiso   1.00
H356   H     0.51090   0.18598   0.33935   0.00000  Uiso   1.00
H357   H     0.32722   0.66033   0.19674   0.00000  Uiso   1.00
H358   H     0.84524   0.66962   0.38189   0.00000  Uiso   1.00
H359   H     0.44470   0.43457   0.38444   0.00000  Uiso   1.00
O360   O     0.18958   0.48769   0.20853   0.00000  Uiso   1.00
O361   O     0.86921   0.49990   0.45146   0.00000  Uiso   1.00
O362   O     0.34371   0.50349   0.45479   0.00000  Uiso   1.00
N363   N     0.23090   0.53718   0.28260   0.00000  Uiso   1.00
N364   N     0.71523   0.54584   0.45571   0.00000  Uiso   1.00
N365   N     0.34077   0.26101   0.45810   0.00000  Uiso   1.00
N366   N     0.30793   0.63526   0.22818   0.00000  Uiso   1.00
N367   N     0.79225   0.64392   0.40129   0.00000  Uiso   1.00
N368   N     0.41780   0.35909   0.40367   0.00000  Uiso   1.00
