data_job_00642
_audit_creation_date              2018-12-19
_audit_creation_method            'Materials Studio'
_symmetry_space_group_name_H-M    'P1'
_symmetry_Int_Tables_number       1
_symmetry_cell_setting            triclinic
loop_
_symmetry_equiv_pos_as_xyz
  x,y,z
_cell_length_a                    12.8148
_cell_length_b                    28.5470
_cell_length_c                    17.0719
_cell_angle_alpha                 90.0000
_cell_angle_beta                  133.2837
_cell_angle_gamma                 90.0000
loop_
_atom_site_label
_atom_site_type_symbol
_atom_site_fract_x
_atom_site_fract_y
_atom_site_fract_z
_atom_site_U_iso_or_equiv
_atom_site_adp_type
_atom_site_occupancy
C1     C     0.52784   0.63328   0.38215   0.00000  Uiso   1.00
C2     C     0.68876   0.63729   0.45075   0.00000  Uiso   1.00
C3     C     0.78375   0.66399   0.54346   0.00000  Uiso   1.00
C4     C     0.92677   0.66299   0.59465   0.00000  Uiso   1.00
C5     C     0.16960   0.67330   0.70726   0.00000  Uiso   1.00
C6     C     0.45599   0.64765   0.26862   0.00000  Uiso   1.00
C7     C     0.35526   0.68306   0.20818   0.00000  Uiso   1.00
C8     C     0.30234   0.69078   0.10604   0.00000  Uiso   1.00
C9     C     0.18371   0.71714   0.93585   0.00000  Uiso   1.00
C10    C     0.49708   0.58117   0.37637   0.00000  Uiso   1.00
C11    C     0.43085   0.56068   0.40652   0.00000  Uiso   1.00
C12    C     0.41248   0.51242   0.39507   0.00000  Uiso   1.00
C13    C     0.35764   0.43557   0.39219   0.00000  Uiso   1.00
C14    C     0.61293   0.58404   0.30819   0.00000  Uiso   1.00
C15    C     0.73497   0.61054   0.41058   0.00000  Uiso   1.00
C16    C     0.87790   0.60950   0.46164   0.00000  Uiso   1.00
C17    C     0.97308   0.63619   0.55441   0.00000  Uiso   1.00
C18    C     0.50221   0.62090   0.22844   0.00000  Uiso   1.00
C19    C     0.44941   0.62857   0.12636   0.00000  Uiso   1.00
C20    C     0.34864   0.66398   0.06579   0.00000  Uiso   1.00
C21    C     0.54330   0.55442   0.33621   0.00000  Uiso   1.00
C22    C     0.52501   0.50619   0.32470   0.00000  Uiso   1.00
C23    C     0.45878   0.48563   0.35482   0.00000  Uiso   1.00
H24    H     0.49185   0.65411   0.41341   0.00000  Uiso   1.00
H25    H     0.74794   0.68469   0.57452   0.00000  Uiso   1.00
H26    H     0.31951   0.70375   0.23929   0.00000  Uiso   1.00
H27    H     0.39510   0.58139   0.43760   0.00000  Uiso   1.00
H28    H     0.05223   0.70681   0.73540   0.00000  Uiso   1.00
H29    H     0.14883   0.74698   0.02853   0.00000  Uiso   1.00
H30    H     0.30822   0.48896   0.44671   0.00000  Uiso   1.00
H31    H     0.64891   0.56321   0.27691   0.00000  Uiso   1.00
H32    H     0.91363   0.58880   0.43053   0.00000  Uiso   1.00
H33    H     0.48520   0.60786   0.09530   0.00000  Uiso   1.00
H34    H     0.56079   0.48550   0.29361   0.00000  Uiso   1.00
H35    H     0.18671   0.62898   0.61853   0.00000  Uiso   1.00
H36    H     0.28330   0.66916   0.91166   0.00000  Uiso   1.00
H37    H     0.44270   0.41114   0.32984   0.00000  Uiso   1.00
O38    O     0.29076   0.68638   0.78046   0.00000  Uiso   1.00
O39    O     0.10552   0.73908   0.85308   0.00000  Uiso   1.00
O40    O     0.31465   0.40057   0.40172   0.00000  Uiso   1.00
N41    N     0.04756   0.68497   0.68682   0.00000  Uiso   1.00
N42    N     0.20295   0.72254   0.02595   0.00000  Uiso   1.00
N43    N     0.35193   0.48131   0.41688   0.00000  Uiso   1.00
N44    N     0.11992   0.64309   0.62394   0.00000  Uiso   1.00
N45    N     0.27531   0.68066   0.96307   0.00000  Uiso   1.00
N46    N     0.42429   0.43944   0.35400   0.00000  Uiso   1.00
C47    C     0.95785   0.13920   0.43197   0.00000  Uiso   1.00
C48    C     0.11876   0.14257   0.50009   0.00000  Uiso   1.00
C49    C     0.21502   0.16914   0.59283   0.00000  Uiso   1.00
C50    C     0.35780   0.16754   0.64353   0.00000  Uiso   1.00
C51    C     0.60083   0.17693   0.75546   0.00000  Uiso   1.00
C52    C     0.88579   0.15345   0.31833   0.00000  Uiso   1.00
C53    C     0.78615   0.18917   0.25825   0.00000  Uiso   1.00
C54    C     0.73280   0.19671   0.15592   0.00000  Uiso   1.00
C55    C     0.61406   0.22297   0.98564   0.00000  Uiso   1.00
C56    C     0.92547   0.08725   0.42615   0.00000  Uiso   1.00
C57    C     0.85916   0.06730   0.45669   0.00000  Uiso   1.00
C58    C     0.83919   0.01910   0.44512   0.00000  Uiso   1.00
C59    C     0.78206   0.94257   0.44225   0.00000  Uiso   1.00
C60    C     0.04025   0.08909   0.35707   0.00000  Uiso   1.00
C61    C     0.16352   0.11535   0.45940   0.00000  Uiso   1.00
C62    C     0.30619   0.11370   0.50997   0.00000  Uiso   1.00
C63    C     0.40264   0.14027   0.60278   0.00000  Uiso   1.00
C64    C     0.93054   0.12624   0.27764   0.00000  Uiso   1.00
C65    C     0.87732   0.13373   0.17538   0.00000  Uiso   1.00
C66    C     0.77764   0.16945   0.11516   0.00000  Uiso   1.00
C67    C     0.97023   0.06003   0.38547   0.00000  Uiso   1.00
C68    C     0.95034   0.01186   0.37383   0.00000  Uiso   1.00
C69    C     0.88402   0.99184   0.40437   0.00000  Uiso   1.00
H70    H     0.92300   0.16039   0.46363   0.00000  Uiso   1.00
H71    H     0.18034   0.19020   0.62429   0.00000  Uiso   1.00
H72    H     0.75153   0.21022   0.28975   0.00000  Uiso   1.00
H73    H     0.82454   0.08837   0.48817   0.00000  Uiso   1.00
H74    H     0.48538   0.21127   0.78444   0.00000  Uiso   1.00
H75    H     0.58117   0.25346   0.07903   0.00000  Uiso   1.00
H76    H     0.73512   0.99652   0.49745   0.00000  Uiso   1.00
H77    H     0.07510   0.06790   0.32539   0.00000  Uiso   1.00
H78    H     0.34079   0.09264   0.47847   0.00000  Uiso   1.00
H79    H     0.91198   0.11266   0.14392   0.00000  Uiso   1.00
H80    H     0.98499   0.99081   0.34235   0.00000  Uiso   1.00
H81    H     0.61561   0.13209   0.66608   0.00000  Uiso   1.00
H82    H     0.71138   0.17428   0.96067   0.00000  Uiso   1.00
H83    H     0.86535   0.91733   0.37909   0.00000  Uiso   1.00
O84    O     0.72252   0.18963   0.82843   0.00000  Uiso   1.00
O85    O     0.53621   0.24498   0.90296   0.00000  Uiso   1.00
O86    O     0.73820   0.90788   0.45192   0.00000  Uiso   1.00
N87    N     0.47957   0.18923   0.73559   0.00000  Uiso   1.00
N88    N     0.63420   0.22868   0.07608   0.00000  Uiso   1.00
N89    N     0.77810   0.98846   0.46724   0.00000  Uiso   1.00
N90    N     0.54964   0.14662   0.67190   0.00000  Uiso   1.00
N91    N     0.70428   0.18608   0.01239   0.00000  Uiso   1.00
N92    N     0.84818   0.94585   0.40355   0.00000  Uiso   1.00
C93    C     0.78936   0.37751   0.65982   0.00000  Uiso   1.00
C94    C     0.77490   0.36280   0.56687   0.00000  Uiso   1.00
C95    C     0.65403   0.34305   0.47068   0.00000  Uiso   1.00
C96    C     0.66225   0.33204   0.39582   0.00000  Uiso   1.00
C97    C     0.62085   0.30788   0.24837   0.00000  Uiso   1.00
C98    C     0.91925   0.35125   0.75851   0.00000  Uiso   1.00
C99    C     0.91974   0.32181   0.82345   0.00000  Uiso   1.00
C100   C     0.04948   0.30109   0.90992   0.00000  Uiso   1.00
C101   C     0.23221   0.25904   0.06004   0.00000  Uiso   1.00
C102   C     0.83122   0.42914   0.68020   0.00000  Uiso   1.00
C103   C     0.75774   0.46518   0.67932   0.00000  Uiso   1.00
C104   C     0.81339   0.51003   0.69989   0.00000  Uiso   1.00
C105   C     0.85945   0.58891   0.72841   0.00000  Uiso   1.00
C106   C     0.01887   0.39308   0.69793   0.00000  Uiso   1.00
C107   C     0.89957   0.37125   0.58758   0.00000  Uiso   1.00
C108   C     0.90796   0.36027   0.51284   0.00000  Uiso   1.00
C109   C     0.78713   0.34051   0.41655   0.00000  Uiso   1.00
C110   C     0.04391   0.35971   0.77921   0.00000  Uiso   1.00
C111   C     0.17367   0.33903   0.86561   0.00000  Uiso   1.00
C112   C     0.17437   0.30956   0.93066   0.00000  Uiso   1.00
C113   C     0.95589   0.43760   0.70089   0.00000  Uiso   1.00
C114   C     0.01167   0.48240   0.72147   0.00000  Uiso   1.00
C115   C     0.93828   0.51850   0.72062   0.00000  Uiso   1.00
H116   H     0.69231   0.37092   0.64372   0.00000  Uiso   1.00
H117   H     0.55758   0.33650   0.45470   0.00000  Uiso   1.00
H118   H     0.82326   0.31527   0.80742   0.00000  Uiso   1.00
H119   H     0.66127   0.45862   0.66330   0.00000  Uiso   1.00
H120   H     0.46321   0.30206   0.25428   0.00000  Uiso   1.00
H121   H     0.02340   0.25730   0.99803   0.00000  Uiso   1.00
H122   H     0.68183   0.55958   0.69414   0.00000  Uiso   1.00
H123   H     0.11594   0.39966   0.71405   0.00000  Uiso   1.00
H124   H     0.00445   0.36682   0.52888   0.00000  Uiso   1.00
H125   H     0.27012   0.34558   0.88160   0.00000  Uiso   1.00
H126   H     0.10814   0.48893   0.73749   0.00000  Uiso   1.00
H127   H     0.82590   0.32666   0.31450   0.00000  Uiso   1.00
H128   H     0.38610   0.28190   0.05825   0.00000  Uiso   1.00
H129   H     0.04453   0.58418   0.75436   0.00000  Uiso   1.00
O130   O     0.56359   0.29222   0.16133   0.00000  Uiso   1.00
O131   O     0.29855   0.23351   0.13711   0.00000  Uiso   1.00
O132   O     0.85041   0.63008   0.73841   0.00000  Uiso   1.00
N133   N     0.56386   0.31236   0.29386   0.00000  Uiso   1.00
N134   N     0.08760   0.27051   0.98921   0.00000  Uiso   1.00
N135   N     0.76828   0.55311   0.70513   0.00000  Uiso   1.00
N136   N     0.75902   0.32560   0.32626   0.00000  Uiso   1.00
N137   N     0.28277   0.28375   0.02161   0.00000  Uiso   1.00
N138   N     0.96345   0.56635   0.73752   0.00000  Uiso   1.00
C139   C     0.18951   0.88431   0.67947   0.00000  Uiso   1.00
C140   C     0.17250   0.87100   0.58471   0.00000  Uiso   1.00
C141   C     0.04831   0.85407   0.48615   0.00000  Uiso   1.00
C142   C     0.05460   0.84393   0.40992   0.00000  Uiso   1.00
C143   C     0.00903   0.82225   0.25950   0.00000  Uiso   1.00
C144   C     0.31438   0.85518   0.77458   0.00000  Uiso   1.00
C145   C     0.30948   0.82495   0.83566   0.00000  Uiso   1.00
C146   C     0.43521   0.80151   0.91928   0.00000  Uiso   1.00
C147   C     0.60994   0.75530   0.06369   0.00000  Uiso   1.00
C148   C     0.24066   0.93504   0.70646   0.00000  Uiso   1.00
C149   C     0.17380   0.97195   0.71030   0.00000  Uiso   1.00
C150   C     0.23748   0.01574   0.73659   0.00000  Uiso   1.00
C151   C     0.29775   0.09352   0.77524   0.00000  Uiso   1.00
C152   C     0.42153   0.89643   0.71935   0.00000  Uiso   1.00
C153   C     0.29853   0.87759   0.60638   0.00000  Uiso   1.00
C154   C     0.30501   0.86748   0.53027   0.00000  Uiso   1.00
C155   C     0.18084   0.85053   0.43161   0.00000  Uiso   1.00
C156   C     0.44040   0.86177   0.79624   0.00000  Uiso   1.00
C157   C     0.56617   0.83837   0.87979   0.00000  Uiso   1.00
C158   C     0.56146   0.80811   0.94098   0.00000  Uiso   1.00
C159   C     0.36668   0.94163   0.72812   0.00000  Uiso   1.00
C160   C     0.43049   0.98537   0.75442   0.00000  Uiso   1.00
C161   C     0.36373   0.02234   0.75830   0.00000  Uiso   1.00
H162   H     0.09141   0.87918   0.66261   0.00000  Uiso   1.00
H163   H     0.95081   0.84897   0.46942   0.00000  Uiso   1.00
H164   H     0.21194   0.81987   0.81889   0.00000  Uiso   1.00
H165   H     0.07628   0.96684   0.69354   0.00000  Uiso   1.00
H166   H     0.85052   0.81837   0.26479   0.00000  Uiso   1.00
H167   H     0.40114   0.75702   0.00169   0.00000  Uiso   1.00
H168   H     0.11507   0.06694   0.73737   0.00000  Uiso   1.00
H169   H     0.51965   0.90156   0.73622   0.00000  Uiso   1.00
H170   H     0.40255   0.87258   0.54706   0.00000  Uiso   1.00
H171   H     0.66368   0.84348   0.89653   0.00000  Uiso   1.00
H172   H     0.52801   0.99045   0.77118   0.00000  Uiso   1.00
H173   H     0.21717   0.83752   0.32781   0.00000  Uiso   1.00
H174   H     0.76779   0.77618   0.06472   0.00000  Uiso   1.00
H175   H     0.48172   0.08610   0.80039   0.00000  Uiso   1.00
O176   O     0.94909   0.80846   0.17055   0.00000  Uiso   1.00
O177   O     0.67150   0.72798   0.13735   0.00000  Uiso   1.00
O178   O     0.29617   0.13460   0.79055   0.00000  Uiso   1.00
N179   N     0.95287   0.82686   0.30558   0.00000  Uiso   1.00
N180   N     0.46767   0.76950   0.99452   0.00000  Uiso   1.00
N181   N     0.20023   0.05925   0.74743   0.00000  Uiso   1.00
N182   N     0.15016   0.83717   0.33949   0.00000  Uiso   1.00
N183   N     0.66496   0.77981   0.02843   0.00000  Uiso   1.00
N184   N     0.39752   0.06956   0.78134   0.00000  Uiso   1.00
C185   C     0.52784   0.36672   0.88215   0.00000  Uiso   1.00
C186   C     0.68876   0.36271   0.95075   0.00000  Uiso   1.00
C187   C     0.78375   0.33601   0.04346   0.00000  Uiso   1.00
C188   C     0.92677   0.33701   0.09465   0.00000  Uiso   1.00
C189   C     0.16960   0.32670   0.20726   0.00000  Uiso   1.00
C190   C     0.45599   0.35235   0.76862   0.00000  Uiso   1.00
C191   C     0.35526   0.31694   0.70818   0.00000  Uiso   1.00
C192   C     0.30234   0.30922   0.60604   0.00000  Uiso   1.00
C193   C     0.18371   0.28286   0.43585   0.00000  Uiso   1.00
C194   C     0.49708   0.41883   0.87637   0.00000  Uiso   1.00
C195   C     0.43085   0.43932   0.90652   0.00000  Uiso   1.00
C196   C     0.41248   0.48758   0.89507   0.00000  Uiso   1.00
C197   C     0.35764   0.56443   0.89219   0.00000  Uiso   1.00
C198   C     0.61293   0.41596   0.80819   0.00000  Uiso   1.00
C199   C     0.73497   0.38946   0.91058   0.00000  Uiso   1.00
C200   C     0.87790   0.39050   0.96164   0.00000  Uiso   1.00
C201   C     0.97308   0.36381   0.05441   0.00000  Uiso   1.00
C202   C     0.50221   0.37910   0.72844   0.00000  Uiso   1.00
C203   C     0.44941   0.37143   0.62636   0.00000  Uiso   1.00
C204   C     0.34864   0.33602   0.56579   0.00000  Uiso   1.00
C205   C     0.54330   0.44558   0.83621   0.00000  Uiso   1.00
C206   C     0.52501   0.49381   0.82470   0.00000  Uiso   1.00
C207   C     0.45878   0.51437   0.85482   0.00000  Uiso   1.00
H208   H     0.49185   0.34589   0.91341   0.00000  Uiso   1.00
H209   H     0.74794   0.31531   0.07452   0.00000  Uiso   1.00
H210   H     0.31951   0.29625   0.73929   0.00000  Uiso   1.00
H211   H     0.39510   0.41861   0.93760   0.00000  Uiso   1.00
H212   H     0.05223   0.29319   0.23540   0.00000  Uiso   1.00
H213   H     0.14883   0.25302   0.52853   0.00000  Uiso   1.00
H214   H     0.30822   0.51104   0.94671   0.00000  Uiso   1.00
H215   H     0.64891   0.43679   0.77691   0.00000  Uiso   1.00
H216   H     0.91363   0.41120   0.93053   0.00000  Uiso   1.00
H217   H     0.48520   0.39214   0.59530   0.00000  Uiso   1.00
H218   H     0.56079   0.51450   0.79361   0.00000  Uiso   1.00
H219   H     0.18671   0.37102   0.11853   0.00000  Uiso   1.00
H220   H     0.28330   0.33084   0.41166   0.00000  Uiso   1.00
H221   H     0.44270   0.58886   0.82984   0.00000  Uiso   1.00
O222   O     0.29076   0.31362   0.28046   0.00000  Uiso   1.00
O223   O     0.10552   0.26092   0.35308   0.00000  Uiso   1.00
O224   O     0.31465   0.59943   0.90172   0.00000  Uiso   1.00
N225   N     0.04756   0.31503   0.18682   0.00000  Uiso   1.00
N226   N     0.20295   0.27746   0.52595   0.00000  Uiso   1.00
N227   N     0.35193   0.51869   0.91688   0.00000  Uiso   1.00
N228   N     0.11992   0.35691   0.12394   0.00000  Uiso   1.00
N229   N     0.27531   0.31934   0.46307   0.00000  Uiso   1.00
N230   N     0.42429   0.56056   0.85400   0.00000  Uiso   1.00
C231   C     0.95785   0.86080   0.93197   0.00000  Uiso   1.00
C232   C     0.11876   0.85743   0.00009   0.00000  Uiso   1.00
C233   C     0.21502   0.83086   0.09283   0.00000  Uiso   1.00
C234   C     0.35780   0.83246   0.14353   0.00000  Uiso   1.00
C235   C     0.60083   0.82307   0.25546   0.00000  Uiso   1.00
C236   C     0.88579   0.84655   0.81833   0.00000  Uiso   1.00
C237   C     0.78615   0.81083   0.75825   0.00000  Uiso   1.00
C238   C     0.73280   0.80329   0.65592   0.00000  Uiso   1.00
C239   C     0.61406   0.77703   0.48564   0.00000  Uiso   1.00
C240   C     0.92547   0.91275   0.92615   0.00000  Uiso   1.00
C241   C     0.85916   0.93270   0.95669   0.00000  Uiso   1.00
C242   C     0.83919   0.98090   0.94512   0.00000  Uiso   1.00
C243   C     0.78206   0.05743   0.94225   0.00000  Uiso   1.00
C244   C     0.04025   0.91091   0.85707   0.00000  Uiso   1.00
C245   C     0.16352   0.88465   0.95940   0.00000  Uiso   1.00
C246   C     0.30619   0.88630   0.00997   0.00000  Uiso   1.00
C247   C     0.40264   0.85973   0.10278   0.00000  Uiso   1.00
C248   C     0.93054   0.87376   0.77764   0.00000  Uiso   1.00
C249   C     0.87732   0.86627   0.67538   0.00000  Uiso   1.00
C250   C     0.77764   0.83055   0.61516   0.00000  Uiso   1.00
C251   C     0.97023   0.93997   0.88547   0.00000  Uiso   1.00
C252   C     0.95034   0.98814   0.87383   0.00000  Uiso   1.00
C253   C     0.88402   0.00816   0.90437   0.00000  Uiso   1.00
H254   H     0.92300   0.83961   0.96363   0.00000  Uiso   1.00
H255   H     0.18034   0.80980   0.12429   0.00000  Uiso   1.00
H256   H     0.75153   0.78978   0.78975   0.00000  Uiso   1.00
H257   H     0.82454   0.91163   0.98817   0.00000  Uiso   1.00
H258   H     0.48538   0.78873   0.28444   0.00000  Uiso   1.00
H259   H     0.58117   0.74654   0.57903   0.00000  Uiso   1.00
H260   H     0.73512   0.00348   0.99745   0.00000  Uiso   1.00
H261   H     0.07510   0.93210   0.82539   0.00000  Uiso   1.00
H262   H     0.34079   0.90736   0.97847   0.00000  Uiso   1.00
H263   H     0.91198   0.88734   0.64392   0.00000  Uiso   1.00
H264   H     0.98499   0.00919   0.84235   0.00000  Uiso   1.00
H265   H     0.61561   0.86791   0.16608   0.00000  Uiso   1.00
H266   H     0.71138   0.82572   0.46067   0.00000  Uiso   1.00
H267   H     0.86535   0.08267   0.87909   0.00000  Uiso   1.00
O268   O     0.72252   0.81037   0.32843   0.00000  Uiso   1.00
O269   O     0.53621   0.75502   0.40296   0.00000  Uiso   1.00
O270   O     0.73820   0.09212   0.95192   0.00000  Uiso   1.00
N271   N     0.47957   0.81077   0.23559   0.00000  Uiso   1.00
N272   N     0.63420   0.77132   0.57608   0.00000  Uiso   1.00
N273   N     0.77810   0.01154   0.96724   0.00000  Uiso   1.00
N274   N     0.54964   0.85338   0.17190   0.00000  Uiso   1.00
N275   N     0.70428   0.81392   0.51239   0.00000  Uiso   1.00
N276   N     0.84818   0.05415   0.90355   0.00000  Uiso   1.00
C277   C     0.78936   0.62249   0.15982   0.00000  Uiso   1.00
C278   C     0.77490   0.63720   0.06687   0.00000  Uiso   1.00
C279   C     0.65403   0.65695   0.97068   0.00000  Uiso   1.00
C280   C     0.66225   0.66796   0.89582   0.00000  Uiso   1.00
C281   C     0.62085   0.69212   0.74837   0.00000  Uiso   1.00
C282   C     0.91925   0.64875   0.25851   0.00000  Uiso   1.00
C283   C     0.91974   0.67819   0.32345   0.00000  Uiso   1.00
C284   C     0.04948   0.69891   0.40992   0.00000  Uiso   1.00
C285   C     0.23221   0.74096   0.56004   0.00000  Uiso   1.00
C286   C     0.83122   0.57086   0.18020   0.00000  Uiso   1.00
C287   C     0.75774   0.53482   0.17932   0.00000  Uiso   1.00
C288   C     0.81339   0.48997   0.19989   0.00000  Uiso   1.00
C289   C     0.85945   0.41109   0.22841   0.00000  Uiso   1.00
C290   C     0.01887   0.60692   0.19793   0.00000  Uiso   1.00
C291   C     0.89957   0.62875   0.08758   0.00000  Uiso   1.00
C292   C     0.90796   0.63973   0.01284   0.00000  Uiso   1.00
C293   C     0.78713   0.65949   0.91655   0.00000  Uiso   1.00
C294   C     0.04391   0.64029   0.27921   0.00000  Uiso   1.00
C295   C     0.17367   0.66097   0.36561   0.00000  Uiso   1.00
C296   C     0.17437   0.69044   0.43066   0.00000  Uiso   1.00
C297   C     0.95589   0.56240   0.20089   0.00000  Uiso   1.00
C298   C     0.01167   0.51760   0.22147   0.00000  Uiso   1.00
C299   C     0.93828   0.48150   0.22062   0.00000  Uiso   1.00
H300   H     0.69231   0.62908   0.14372   0.00000  Uiso   1.00
H301   H     0.55758   0.66350   0.95470   0.00000  Uiso   1.00
H302   H     0.82326   0.68473   0.30742   0.00000  Uiso   1.00
H303   H     0.66127   0.54138   0.16330   0.00000  Uiso   1.00
H304   H     0.46321   0.69794   0.75428   0.00000  Uiso   1.00
H305   H     0.02340   0.74270   0.49803   0.00000  Uiso   1.00
H306   H     0.68183   0.44042   0.19414   0.00000  Uiso   1.00
H307   H     0.11594   0.60034   0.21405   0.00000  Uiso   1.00
H308   H     0.00445   0.63318   0.02888   0.00000  Uiso   1.00
H309   H     0.27012   0.65442   0.38160   0.00000  Uiso   1.00
H310   H     0.10814   0.51107   0.23749   0.00000  Uiso   1.00
H311   H     0.82590   0.67334   0.81450   0.00000  Uiso   1.00
H312   H     0.38610   0.71810   0.55825   0.00000  Uiso   1.00
H313   H     0.04453   0.41582   0.25436   0.00000  Uiso   1.00
O314   O     0.56359   0.70778   0.66133   0.00000  Uiso   1.00
O315   O     0.29855   0.76649   0.63711   0.00000  Uiso   1.00
O316   O     0.85041   0.36992   0.23841   0.00000  Uiso   1.00
N317   N     0.56386   0.68764   0.79386   0.00000  Uiso   1.00
N318   N     0.08760   0.72949   0.48921   0.00000  Uiso   1.00
N319   N     0.76828   0.44689   0.20513   0.00000  Uiso   1.00
N320   N     0.75902   0.67440   0.82626   0.00000  Uiso   1.00
N321   N     0.28277   0.71625   0.52161   0.00000  Uiso   1.00
N322   N     0.96345   0.43365   0.23752   0.00000  Uiso   1.00
C323   C     0.18951   0.11569   0.17947   0.00000  Uiso   1.00
C324   C     0.17250   0.12900   0.08471   0.00000  Uiso   1.00
C325   C     0.04831   0.14593   0.98615   0.00000  Uiso   1.00
C326   C     0.05460   0.15607   0.90992   0.00000  Uiso   1.00
C327   C     0.00903   0.17775   0.75950   0.00000  Uiso   1.00
C328   C     0.31438   0.14482   0.27458   0.00000  Uiso   1.00
C329   C     0.30948   0.17505   0.33566   0.00000  Uiso   1.00
C330   C     0.43521   0.19849   0.41928   0.00000  Uiso   1.00
C331   C     0.60994   0.24470   0.56369   0.00000  Uiso   1.00
C332   C     0.24066   0.06496   0.20646   0.00000  Uiso   1.00
C333   C     0.17380   0.02805   0.21030   0.00000  Uiso   1.00
C334   C     0.23748   0.98426   0.23659   0.00000  Uiso   1.00
C335   C     0.29775   0.90648   0.27524   0.00000  Uiso   1.00
C336   C     0.42153   0.10357   0.21935   0.00000  Uiso   1.00
C337   C     0.29853   0.12241   0.10638   0.00000  Uiso   1.00
C338   C     0.30501   0.13252   0.03027   0.00000  Uiso   1.00
C339   C     0.18084   0.14947   0.93161   0.00000  Uiso   1.00
C340   C     0.44040   0.13823   0.29624   0.00000  Uiso   1.00
C341   C     0.56617   0.16163   0.37979   0.00000  Uiso   1.00
C342   C     0.56146   0.19189   0.44098   0.00000  Uiso   1.00
C343   C     0.36668   0.05837   0.22812   0.00000  Uiso   1.00
C344   C     0.43049   0.01463   0.25442   0.00000  Uiso   1.00
C345   C     0.36373   0.97766   0.25830   0.00000  Uiso   1.00
H346   H     0.09141   0.12082   0.16261   0.00000  Uiso   1.00
H347   H     0.95081   0.15103   0.96942   0.00000  Uiso   1.00
H348   H     0.21194   0.18013   0.31889   0.00000  Uiso   1.00
H349   H     0.07628   0.03316   0.19354   0.00000  Uiso   1.00
H350   H     0.85052   0.18163   0.76479   0.00000  Uiso   1.00
H351   H     0.40114   0.24298   0.50169   0.00000  Uiso   1.00
H352   H     0.11507   0.93306   0.23737   0.00000  Uiso   1.00
H353   H     0.51965   0.09844   0.23622   0.00000  Uiso   1.00
H354   H     0.40255   0.12742   0.04706   0.00000  Uiso   1.00
H355   H     0.66368   0.15652   0.39653   0.00000  Uiso   1.00
H356   H     0.52801   0.00955   0.27118   0.00000  Uiso   1.00
H357   H     0.21717   0.16248   0.82781   0.00000  Uiso   1.00
H358   H     0.76779   0.22382   0.56472   0.00000  Uiso   1.00
H359   H     0.48172   0.91390   0.30039   0.00000  Uiso   1.00
O360   O     0.94909   0.19154   0.67055   0.00000  Uiso   1.00
O361   O     0.67150   0.27202   0.63735   0.00000  Uiso   1.00
O362   O     0.29617   0.86540   0.29055   0.00000  Uiso   1.00
N363   N     0.95287   0.17314   0.80558   0.00000  Uiso   1.00
N364   N     0.46767   0.23050   0.49452   0.00000  Uiso   1.00
N365   N     0.20023   0.94075   0.24743   0.00000  Uiso   1.00
N366   N     0.15016   0.16283   0.83949   0.00000  Uiso   1.00
N367   N     0.66496   0.22019   0.52843   0.00000  Uiso   1.00
N368   N     0.39752   0.93044   0.28134   0.00000  Uiso   1.00
