data_job_06003
_audit_creation_date              2018-12-19
_audit_creation_method            'Materials Studio'
_symmetry_space_group_name_H-M    'P1'
_symmetry_Int_Tables_number       1
_symmetry_cell_setting            triclinic
loop_
_symmetry_equiv_pos_as_xyz
  x,y,z
_cell_length_a                    16.3011
_cell_length_b                    15.4954
_cell_length_c                    15.2012
_cell_angle_alpha                 93.1048
_cell_angle_beta                  92.2370
_cell_angle_gamma                 92.6404
loop_
_atom_site_label
_atom_site_type_symbol
_atom_site_fract_x
_atom_site_fract_y
_atom_site_fract_z
_atom_site_U_iso_or_equiv
_atom_site_adp_type
_atom_site_occupancy
C1     C     0.58361   0.62336   0.20145   0.00000  Uiso   1.00
C2     C     0.62811   0.55063   0.15494   0.00000  Uiso   1.00
C3     C     0.59893   0.46515   0.14200   0.00000  Uiso   1.00
C4     C     0.64889   0.40847   0.09794   0.00000  Uiso   1.00
C5     C     0.70639   0.29129   0.03032   0.00000  Uiso   1.00
C6     C     0.64236   0.66077   0.27585   0.00000  Uiso   1.00
C7     C     0.62514   0.66790   0.36457   0.00000  Uiso   1.00
C8     C     0.68709   0.70396   0.42230   0.00000  Uiso   1.00
C9     C     0.76668   0.75783   0.54239   0.00000  Uiso   1.00
C10    C     0.57674   0.69387   0.13573   0.00000  Uiso   1.00
C11    C     0.50434   0.72886   0.10666   0.00000  Uiso   1.00
C12    C     0.51105   0.79280   0.04643   0.00000  Uiso   1.00
C13    C     0.48875   0.89807   0.94897   0.00000  Uiso   1.00
C14    C     0.72424   0.67471   0.14622   0.00000  Uiso   1.00
C15    C     0.70450   0.57852   0.12494   0.00000  Uiso   1.00
C16    C     0.75451   0.52197   0.08089   0.00000  Uiso   1.00
C17    C     0.72540   0.43642   0.06789   0.00000  Uiso   1.00
C18    C     0.71874   0.68866   0.24586   0.00000  Uiso   1.00
C19    C     0.78073   0.72472   0.30347   0.00000  Uiso   1.00
C20    C     0.76361   0.73190   0.39225   0.00000  Uiso   1.00
C21    C     0.65312   0.72177   0.10573   0.00000  Uiso   1.00
C22    C     0.65993   0.78567   0.04555   0.00000  Uiso   1.00
C23    C     0.58757   0.82075   0.01638   0.00000  Uiso   1.00
H24    H     0.52415   0.60164   0.22481   0.00000  Uiso   1.00
H25    H     0.53981   0.44358   0.16523   0.00000  Uiso   1.00
H26    H     0.56602   0.64632   0.38776   0.00000  Uiso   1.00
H27    H     0.44525   0.70726   0.12989   0.00000  Uiso   1.00
H28    H     0.59088   0.28064   0.08597   0.00000  Uiso   1.00
H29    H     0.64614   0.70814   0.55519   0.00000  Uiso   1.00
H30    H     0.39145   0.83665   0.01141   0.00000  Uiso   1.00
H31    H     0.78371   0.69643   0.12287   0.00000  Uiso   1.00
H32    H     0.81362   0.54357   0.05769   0.00000  Uiso   1.00
H33    H     0.83983   0.74631   0.28023   0.00000  Uiso   1.00
H34    H     0.71905   0.80725   0.02235   0.00000  Uiso   1.00
H35    H     0.81312   0.36179   0.99869   0.00000  Uiso   1.00
H36    H     0.86837   0.78930   0.46792   0.00000  Uiso   1.00
H37    H     0.61369   0.91781   0.92413   0.00000  Uiso   1.00
O38    O     0.71701   0.21894   0.00131   0.00000  Uiso   1.00
O39    O     0.78949   0.77982   0.61692   0.00000  Uiso   1.00
O40    O     0.45535   0.94842   0.90349   0.00000  Uiso   1.00
N41    N     0.63907   0.32072   0.07436   0.00000  Uiso   1.00
N42    N     0.69074   0.72040   0.51306   0.00000  Uiso   1.00
N43    N     0.45263   0.84056   0.00468   0.00000  Uiso   1.00
N44    N     0.75866   0.36439   0.02739   0.00000  Uiso   1.00
N45    N     0.81032   0.76407   0.46609   0.00000  Uiso   1.00
N46    N     0.57221   0.88423   0.95772   0.00000  Uiso   1.00
C47    C     0.19742   0.58142   0.62127   0.00000  Uiso   1.00
C48    C     0.15476   0.62869   0.54830   0.00000  Uiso   1.00
C49    C     0.14218   0.59804   0.46111   0.00000  Uiso   1.00
C50    C     0.10191   0.65103   0.40451   0.00000  Uiso   1.00
C51    C     0.03977   0.71217   0.28668   0.00000  Uiso   1.00
C52    C     0.26768   0.64261   0.65872   0.00000  Uiso   1.00
C53    C     0.35004   0.62366   0.66439   0.00000  Uiso   1.00
C54    C     0.40482   0.68838   0.70076   0.00000  Uiso   1.00
C55    C     0.51798   0.77111   0.75442   0.00000  Uiso   1.00
C56    C     0.13615   0.57481   0.69417   0.00000  Uiso   1.00
C57    C     0.10793   0.49886   0.72966   0.00000  Uiso   1.00
C58    C     0.05199   0.50649   0.79589   0.00000  Uiso   1.00
C59    C     0.96093   0.48395   0.90460   0.00000  Uiso   1.00
C60    C     0.14827   0.73004   0.67580   0.00000  Uiso   1.00
C61    C     0.12807   0.70941   0.57792   0.00000  Uiso   1.00
C62    C     0.08780   0.76247   0.52144   0.00000  Uiso   1.00
C63    C     0.07517   0.73190   0.43418   0.00000  Uiso   1.00
C64    C     0.24098   0.72334   0.68834   0.00000  Uiso   1.00
C65    C     0.29566   0.78810   0.72472   0.00000  Uiso   1.00
C66    C     0.37808   0.76925   0.73043   0.00000  Uiso   1.00
C67    C     0.10945   0.65553   0.72379   0.00000  Uiso   1.00
C68    C     0.05355   0.66329   0.78999   0.00000  Uiso   1.00
C69    C     0.02525   0.58736   0.82556   0.00000  Uiso   1.00
H70    H     0.21821   0.51857   0.59822   0.00000  Uiso   1.00
H71    H     0.16286   0.53556   0.43821   0.00000  Uiso   1.00
H72    H     0.37068   0.56119   0.64147   0.00000  Uiso   1.00
H73    H     0.12861   0.43640   0.70672   0.00000  Uiso   1.00
H74    H     0.08974   0.59002   0.27386   0.00000  Uiso   1.00
H75    H     0.52794   0.64403   0.70247   0.00000  Uiso   1.00
H76    H     0.01749   0.38089   0.84008   0.00000  Uiso   1.00
H77    H     0.12749   0.79289   0.69887   0.00000  Uiso   1.00
H78    H     0.06715   0.82494   0.54438   0.00000  Uiso   1.00
H79    H     0.27498   0.85056   0.74763   0.00000  Uiso   1.00
H80    H     0.03290   0.72577   0.81289   0.00000  Uiso   1.00
H81    H     0.01207   0.82488   0.36003   0.00000  Uiso   1.00
H82    H     0.45027   0.87889   0.78865   0.00000  Uiso   1.00
H83    H     0.93981   0.61576   0.92625   0.00000  Uiso   1.00
O84    O     0.01288   0.72359   0.21350   0.00000  Uiso   1.00
O85    O     0.58777   0.79445   0.77583   0.00000  Uiso   1.00
O86    O     0.91807   0.44922   0.95636   0.00000  Uiso   1.00
N87    N     0.07973   0.64089   0.31535   0.00000  Uiso   1.00
N88    N     0.48942   0.69139   0.71606   0.00000  Uiso   1.00
N89    N     0.01221   0.44538   0.84473   0.00000  Uiso   1.00
N90    N     0.03793   0.76727   0.36171   0.00000  Uiso   1.00
N91    N     0.44762   0.81777   0.76243   0.00000  Uiso   1.00
N92    N     0.97041   0.57176   0.89110   0.00000  Uiso   1.00
C93    C     0.62580   0.20056   0.58219   0.00000  Uiso   1.00
C94    C     0.55718   0.15633   0.63118   0.00000  Uiso   1.00
C95    C     0.47575   0.14387   0.60125   0.00000  Uiso   1.00
C96    C     0.42243   0.10201   0.65584   0.00000  Uiso   1.00
C97    C     0.31173   0.03768   0.71953   0.00000  Uiso   1.00
C98    C     0.66185   0.27423   0.64459   0.00000  Uiso   1.00
C99    C     0.66843   0.36090   0.62593   0.00000  Uiso   1.00
C100   C     0.70322   0.41828   0.69180   0.00000  Uiso   1.00
C101   C     0.75507   0.53698   0.77628   0.00000  Uiso   1.00
C102   C     0.69271   0.13536   0.57370   0.00000  Uiso   1.00
C103   C     0.72526   0.10529   0.49544   0.00000  Uiso   1.00
C104   C     0.78605   0.04578   0.50163   0.00000  Uiso   1.00
C105   C     0.88582   0.94887   0.47605   0.00000  Uiso   1.00
C106   C     0.67590   0.14835   0.73235   0.00000  Uiso   1.00
C107   C     0.58440   0.12797   0.71275   0.00000  Uiso   1.00
C108   C     0.53118   0.08611   0.76739   0.00000  Uiso   1.00
C109   C     0.44969   0.07360   0.73755   0.00000  Uiso   1.00
C110   C     0.68906   0.24587   0.72615   0.00000  Uiso   1.00
C111   C     0.72386   0.30314   0.79207   0.00000  Uiso   1.00
C112   C     0.73049   0.38987   0.77351   0.00000  Uiso   1.00
C113   C     0.71992   0.10700   0.65527   0.00000  Uiso   1.00
C114   C     0.78069   0.04753   0.66158   0.00000  Uiso   1.00
C115   C     0.81332   0.01737   0.58334   0.00000  Uiso   1.00
H116   H     0.60462   0.22264   0.51869   0.00000  Uiso   1.00
H117   H     0.45471   0.16584   0.53813   0.00000  Uiso   1.00
H118   H     0.64737   0.38282   0.56280   0.00000  Uiso   1.00
H119   H     0.70419   0.12725   0.43233   0.00000  Uiso   1.00
H120   H     0.30052   0.09038   0.59567   0.00000  Uiso   1.00
H121   H     0.70676   0.54790   0.64767   0.00000  Uiso   1.00
H122   H     0.82657   0.00899   0.37256   0.00000  Uiso   1.00
H123   H     0.69709   0.12628   0.79586   0.00000  Uiso   1.00
H124   H     0.55226   0.06417   0.83051   0.00000  Uiso   1.00
H125   H     0.74491   0.28117   0.85518   0.00000  Uiso   1.00
H126   H     0.80173   0.02560   0.72471   0.00000  Uiso   1.00
H127   H     0.37969   0.00787   0.83298   0.00000  Uiso   1.00
H128   H     0.78594   0.46540   0.88498   0.00000  Uiso   1.00
H129   H     0.90574   0.92648   0.60987   0.00000  Uiso   1.00
O130   O     0.24315   0.01004   0.73213   0.00000  Uiso   1.00
O131   O     0.77615   0.61029   0.80035   0.00000  Uiso   1.00
O132   O     0.93333   0.90324   0.43940   0.00000  Uiso   1.00
N133   N     0.33903   0.07947   0.64676   0.00000  Uiso   1.00
N134   N     0.71883   0.50723   0.69538   0.00000  Uiso   1.00
N135   N     0.83086   0.00340   0.43817   0.00000  Uiso   1.00
N136   N     0.38163   0.03507   0.77445   0.00000  Uiso   1.00
N137   N     0.76143   0.46283   0.82307   0.00000  Uiso   1.00
N138   N     0.87346   0.95901   0.56587   0.00000  Uiso   1.00
C139   C     0.41639   0.37664   0.79855   0.00000  Uiso   1.00
C140   C     0.37188   0.44937   0.84506   0.00000  Uiso   1.00
C141   C     0.40107   0.53485   0.85800   0.00000  Uiso   1.00
C142   C     0.35111   0.59153   0.90206   0.00000  Uiso   1.00
C143   C     0.29361   0.70871   0.96968   0.00000  Uiso   1.00
C144   C     0.35764   0.33923   0.72415   0.00000  Uiso   1.00
C145   C     0.37486   0.33210   0.63543   0.00000  Uiso   1.00
C146   C     0.31291   0.29604   0.57770   0.00000  Uiso   1.00
C147   C     0.23332   0.24217   0.45761   0.00000  Uiso   1.00
C148   C     0.42326   0.30613   0.86427   0.00000  Uiso   1.00
C149   C     0.49566   0.27114   0.89334   0.00000  Uiso   1.00
C150   C     0.48895   0.20720   0.95357   0.00000  Uiso   1.00
C151   C     0.51125   0.10193   0.05103   0.00000  Uiso   1.00
C152   C     0.27576   0.32528   0.85378   0.00000  Uiso   1.00
C153   C     0.29550   0.42148   0.87506   0.00000  Uiso   1.00
C154   C     0.24549   0.47803   0.91911   0.00000  Uiso   1.00
C155   C     0.27460   0.56358   0.93211   0.00000  Uiso   1.00
C156   C     0.28126   0.31134   0.75414   0.00000  Uiso   1.00
C157   C     0.21927   0.27528   0.69653   0.00000  Uiso   1.00
C158   C     0.23639   0.26810   0.60775   0.00000  Uiso   1.00
C159   C     0.34688   0.27823   0.89427   0.00000  Uiso   1.00
C160   C     0.34007   0.21432   0.95445   0.00000  Uiso   1.00
C161   C     0.41243   0.17925   0.98362   0.00000  Uiso   1.00
H162   H     0.47585   0.39836   0.77519   0.00000  Uiso   1.00
H163   H     0.46019   0.55642   0.83477   0.00000  Uiso   1.00
H164   H     0.43398   0.35368   0.61224   0.00000  Uiso   1.00
H165   H     0.55475   0.29274   0.87011   0.00000  Uiso   1.00
H166   H     0.40912   0.71936   0.91403   0.00000  Uiso   1.00
H167   H     0.35386   0.29186   0.44481   0.00000  Uiso   1.00
H168   H     0.60855   0.16335   0.98859   0.00000  Uiso   1.00
H169   H     0.21629   0.30357   0.87713   0.00000  Uiso   1.00
H170   H     0.18638   0.45643   0.94231   0.00000  Uiso   1.00
H171   H     0.16017   0.25369   0.71977   0.00000  Uiso   1.00
H172   H     0.28095   0.19275   0.97765   0.00000  Uiso   1.00
H173   H     0.18688   0.63821   0.00131   0.00000  Uiso   1.00
H174   H     0.13163   0.21070   0.53208   0.00000  Uiso   1.00
H175   H     0.38631   0.08219   0.07587   0.00000  Uiso   1.00
O176   O     0.28299   0.78106   0.99869   0.00000  Uiso   1.00
O177   O     0.21051   0.22018   0.38308   0.00000  Uiso   1.00
O178   O     0.54465   0.05158   0.09651   0.00000  Uiso   1.00
N179   N     0.36093   0.67928   0.92564   0.00000  Uiso   1.00
N180   N     0.30926   0.27960   0.48694   0.00000  Uiso   1.00
N181   N     0.54737   0.15944   0.99531   0.00000  Uiso   1.00
N182   N     0.24134   0.63561   0.97261   0.00000  Uiso   1.00
N183   N     0.18968   0.23593   0.53391   0.00000  Uiso   1.00
N184   N     0.42779   0.11577   0.04228   0.00000  Uiso   1.00
C185   C     0.80258   0.41858   0.37873   0.00000  Uiso   1.00
C186   C     0.84524   0.37131   0.45170   0.00000  Uiso   1.00
C187   C     0.85782   0.40196   0.53889   0.00000  Uiso   1.00
C188   C     0.89809   0.34897   0.59549   0.00000  Uiso   1.00
C189   C     0.96023   0.28783   0.71332   0.00000  Uiso   1.00
C190   C     0.73232   0.35739   0.34128   0.00000  Uiso   1.00
C191   C     0.64996   0.37634   0.33561   0.00000  Uiso   1.00
C192   C     0.59518   0.31162   0.29924   0.00000  Uiso   1.00
C193   C     0.48202   0.22889   0.24558   0.00000  Uiso   1.00
C194   C     0.86385   0.42519   0.30583   0.00000  Uiso   1.00
C195   C     0.89207   0.50114   0.27034   0.00000  Uiso   1.00
C196   C     0.94801   0.49351   0.20411   0.00000  Uiso   1.00
C197   C     0.03907   0.51605   0.09540   0.00000  Uiso   1.00
C198   C     0.85173   0.26996   0.32420   0.00000  Uiso   1.00
C199   C     0.87193   0.29059   0.42208   0.00000  Uiso   1.00
C200   C     0.91220   0.23753   0.47856   0.00000  Uiso   1.00
C201   C     0.92483   0.26810   0.56582   0.00000  Uiso   1.00
C202   C     0.75902   0.27666   0.31166   0.00000  Uiso   1.00
C203   C     0.70434   0.21190   0.27528   0.00000  Uiso   1.00
C204   C     0.62192   0.23075   0.26957   0.00000  Uiso   1.00
C205   C     0.89055   0.34447   0.27621   0.00000  Uiso   1.00
C206   C     0.94645   0.33671   0.21001   0.00000  Uiso   1.00
C207   C     0.97475   0.41264   0.17444   0.00000  Uiso   1.00
H208   H     0.78179   0.48143   0.40178   0.00000  Uiso   1.00
H209   H     0.83714   0.46444   0.56179   0.00000  Uiso   1.00
H210   H     0.62932   0.43881   0.35853   0.00000  Uiso   1.00
H211   H     0.87139   0.56360   0.29328   0.00000  Uiso   1.00
H212   H     0.91026   0.40998   0.72614   0.00000  Uiso   1.00
H213   H     0.47206   0.35597   0.29753   0.00000  Uiso   1.00
H214   H     0.98251   0.61911   0.15992   0.00000  Uiso   1.00
H215   H     0.87251   0.20711   0.30113   0.00000  Uiso   1.00
H216   H     0.93285   0.17506   0.45562   0.00000  Uiso   1.00
H217   H     0.72502   0.14944   0.25237   0.00000  Uiso   1.00
H218   H     0.96710   0.27423   0.18711   0.00000  Uiso   1.00
H219   H     0.98793   0.17512   0.63997   0.00000  Uiso   1.00
H220   H     0.54973   0.12111   0.21135   0.00000  Uiso   1.00
H221   H     0.06019   0.38424   0.07375   0.00000  Uiso   1.00
O222   O     0.98712   0.27641   0.78650   0.00000  Uiso   1.00
O223   O     0.41223   0.20555   0.22417   0.00000  Uiso   1.00
O224   O     0.08193   0.55078   0.04364   0.00000  Uiso   1.00
N225   N     0.92027   0.35911   0.68465   0.00000  Uiso   1.00
N226   N     0.51058   0.30861   0.28394   0.00000  Uiso   1.00
N227   N     0.98779   0.55462   0.15527   0.00000  Uiso   1.00
N228   N     0.96207   0.23273   0.63829   0.00000  Uiso   1.00
N229   N     0.55238   0.18223   0.23757   0.00000  Uiso   1.00
N230   N     0.02959   0.42824   0.10890   0.00000  Uiso   1.00
C231   C     0.37420   0.79944   0.41781   0.00000  Uiso   1.00
C232   C     0.44282   0.84367   0.36882   0.00000  Uiso   1.00
C233   C     0.52425   0.85613   0.39875   0.00000  Uiso   1.00
C234   C     0.57757   0.89799   0.34416   0.00000  Uiso   1.00
C235   C     0.68827   0.96232   0.28047   0.00000  Uiso   1.00
C236   C     0.33815   0.72577   0.35541   0.00000  Uiso   1.00
C237   C     0.33157   0.63910   0.37407   0.00000  Uiso   1.00
C238   C     0.29678   0.58172   0.30820   0.00000  Uiso   1.00
C239   C     0.24493   0.46302   0.22372   0.00000  Uiso   1.00
C240   C     0.30729   0.86464   0.42630   0.00000  Uiso   1.00
C241   C     0.27474   0.89471   0.50456   0.00000  Uiso   1.00
C242   C     0.21395   0.95422   0.49837   0.00000  Uiso   1.00
C243   C     0.11418   0.05113   0.52395   0.00000  Uiso   1.00
C244   C     0.32410   0.85165   0.26765   0.00000  Uiso   1.00
C245   C     0.41560   0.87203   0.28725   0.00000  Uiso   1.00
C246   C     0.46882   0.91389   0.23261   0.00000  Uiso   1.00
C247   C     0.55031   0.92640   0.26245   0.00000  Uiso   1.00
C248   C     0.31094   0.75413   0.27385   0.00000  Uiso   1.00
C249   C     0.27614   0.69686   0.20793   0.00000  Uiso   1.00
C250   C     0.26951   0.61013   0.22649   0.00000  Uiso   1.00
C251   C     0.28008   0.89300   0.34473   0.00000  Uiso   1.00
C252   C     0.21931   0.95247   0.33842   0.00000  Uiso   1.00
C253   C     0.18668   0.98263   0.41666   0.00000  Uiso   1.00
H254   H     0.39538   0.77736   0.48131   0.00000  Uiso   1.00
H255   H     0.54529   0.83416   0.46187   0.00000  Uiso   1.00
H256   H     0.35263   0.61718   0.43720   0.00000  Uiso   1.00
H257   H     0.29581   0.87275   0.56767   0.00000  Uiso   1.00
H258   H     0.69948   0.90962   0.40433   0.00000  Uiso   1.00
H259   H     0.29324   0.45210   0.35233   0.00000  Uiso   1.00
H260   H     0.17343   0.99101   0.62744   0.00000  Uiso   1.00
H261   H     0.30291   0.87372   0.20414   0.00000  Uiso   1.00
H262   H     0.44774   0.93583   0.16949   0.00000  Uiso   1.00
H263   H     0.25509   0.71883   0.14482   0.00000  Uiso   1.00
H264   H     0.19827   0.97440   0.27529   0.00000  Uiso   1.00
H265   H     0.62031   0.99213   0.16702   0.00000  Uiso   1.00
H266   H     0.21406   0.53460   0.11502   0.00000  Uiso   1.00
H267   H     0.09426   0.07352   0.39013   0.00000  Uiso   1.00
O268   O     0.75685   0.98996   0.26787   0.00000  Uiso   1.00
O269   O     0.22385   0.38971   0.19965   0.00000  Uiso   1.00
O270   O     0.06667   0.09676   0.56060   0.00000  Uiso   1.00
N271   N     0.66097   0.92053   0.35324   0.00000  Uiso   1.00
N272   N     0.28117   0.49277   0.30462   0.00000  Uiso   1.00
N273   N     0.16914   0.99660   0.56183   0.00000  Uiso   1.00
N274   N     0.61837   0.96493   0.22555   0.00000  Uiso   1.00
N275   N     0.23857   0.53717   0.17693   0.00000  Uiso   1.00
N276   N     0.12654   0.04099   0.43413   0.00000  Uiso   1.00
