data_job_06067
_audit_creation_date              2018-12-19
_audit_creation_method            'Materials Studio'
_symmetry_space_group_name_H-M    'P1'
_symmetry_Int_Tables_number       1
_symmetry_cell_setting            triclinic
loop_
_symmetry_equiv_pos_as_xyz
  x,y,z
_cell_length_a                    15.3240
_cell_length_b                    15.3289
_cell_length_c                    15.3336
_cell_angle_alpha                 97.8739
_cell_angle_beta                  97.8896
_cell_angle_gamma                 97.9047
loop_
_atom_site_label
_atom_site_type_symbol
_atom_site_fract_x
_atom_site_fract_y
_atom_site_fract_z
_atom_site_U_iso_or_equiv
_atom_site_adp_type
_atom_site_occupancy
C1     C     0.40755   0.81911   0.20798   0.00000  Uiso   1.00
C2     C     0.37968   0.72020   0.21057   0.00000  Uiso   1.00
C3     C     0.33144   0.65777   0.14036   0.00000  Uiso   1.00
C4     C     0.31262   0.57063   0.15612   0.00000  Uiso   1.00
C5     C     0.26499   0.42068   0.14754   0.00000  Uiso   1.00
C6     C     0.37009   0.86931   0.28358   0.00000  Uiso   1.00
C7     C     0.31379   0.93225   0.27476   0.00000  Uiso   1.00
C8     C     0.28690   0.97063   0.35198   0.00000  Uiso   1.00
C9     C     0.22443   0.05222   0.45676   0.00000  Uiso   1.00
C10    C     0.50874   0.83783   0.23451   0.00000  Uiso   1.00
C11    C     0.56903   0.87433   0.18445   0.00000  Uiso   1.00
C12    C     0.65889   0.88622   0.22037   0.00000  Uiso   1.00
C13    C     0.81170   0.91894   0.24896   0.00000  Uiso   1.00
C14    C     0.45991   0.77536   0.36081   0.00000  Uiso   1.00
C15    C     0.40812   0.69645   0.29358   0.00000  Uiso   1.00
C16    C     0.38938   0.60937   0.30945   0.00000  Uiso   1.00
C17    C     0.34112   0.54682   0.23928   0.00000  Uiso   1.00
C18    C     0.39853   0.84555   0.36659   0.00000  Uiso   1.00
C19    C     0.37172   0.88385   0.44385   0.00000  Uiso   1.00
C20    C     0.31539   0.94683   0.43515   0.00000  Uiso   1.00
C21    C     0.53719   0.81407   0.31752   0.00000  Uiso   1.00
C22    C     0.62697   0.82592   0.35354   0.00000  Uiso   1.00
C23    C     0.68738   0.86242   0.30353   0.00000  Uiso   1.00
H24    H     0.38540   0.83761   0.14335   0.00000  Uiso   1.00
H25    H     0.30943   0.67619   0.07613   0.00000  Uiso   1.00
H26    H     0.29179   0.95063   0.21051   0.00000  Uiso   1.00
H27    H     0.54700   0.89271   0.12021   0.00000  Uiso   1.00
H28    H     0.23773   0.48675   0.03823   0.00000  Uiso   1.00
H29    H     0.20056   0.06544   0.32158   0.00000  Uiso   1.00
H30    H     0.73871   0.94331   0.13116   0.00000  Uiso   1.00
H31    H     0.48206   0.75686   0.42544   0.00000  Uiso   1.00
H32    H     0.41140   0.59101   0.37370   0.00000  Uiso   1.00
H33    H     0.39375   0.86545   0.50808   0.00000  Uiso   1.00
H34    H     0.64896   0.80753   0.41778   0.00000  Uiso   1.00
H35    H     0.32048   0.41762   0.27975   0.00000  Uiso   1.00
H36    H     0.28331   0.99632   0.56309   0.00000  Uiso   1.00
H37    H     0.82146   0.87417   0.37268   0.00000  Uiso   1.00
O38    O     0.23085   0.34454   0.11987   0.00000  Uiso   1.00
O39    O     0.18210   0.10378   0.49161   0.00000  Uiso   1.00
O40    O     0.88814   0.94353   0.24179   0.00000  Uiso   1.00
N41    N     0.26691   0.49324   0.10217   0.00000  Uiso   1.00
N42    N     0.23215   0.03427   0.36708   0.00000  Uiso   1.00
N43    N     0.73528   0.92011   0.18907   0.00000  Uiso   1.00
N44    N     0.31144   0.45604   0.23212   0.00000  Uiso   1.00
N45    N     0.27668   0.99707   0.49703   0.00000  Uiso   1.00
N46    N     0.77981   0.88291   0.31902   0.00000  Uiso   1.00
C47    C     0.20791   0.40762   0.81917   0.00000  Uiso   1.00
C48    C     0.21049   0.37979   0.72031   0.00000  Uiso   1.00
C49    C     0.14023   0.33157   0.65789   0.00000  Uiso   1.00
C50    C     0.15599   0.31278   0.57079   0.00000  Uiso   1.00
C51    C     0.14739   0.26520   0.42090   0.00000  Uiso   1.00
C52    C     0.28357   0.37017   0.86938   0.00000  Uiso   1.00
C53    C     0.27474   0.31387   0.93231   0.00000  Uiso   1.00
C54    C     0.35202   0.28700   0.97070   0.00000  Uiso   1.00
C55    C     0.45686   0.22455   0.05229   0.00000  Uiso   1.00
C56    C     0.23447   0.50878   0.83786   0.00000  Uiso   1.00
C57    C     0.18438   0.56903   0.87432   0.00000  Uiso   1.00
C58    C     0.22034   0.65886   0.88620   0.00000  Uiso   1.00
C59    C     0.24896   0.81162   0.91887   0.00000  Uiso   1.00
C60    C     0.36084   0.46001   0.77545   0.00000  Uiso   1.00
C61    C     0.29357   0.40824   0.69656   0.00000  Uiso   1.00
C62    C     0.30944   0.38953   0.60953   0.00000  Uiso   1.00
C63    C     0.23921   0.34129   0.54700   0.00000  Uiso   1.00
C64    C     0.36663   0.39862   0.84563   0.00000  Uiso   1.00
C65    C     0.44394   0.37183   0.88394   0.00000  Uiso   1.00
C66    C     0.43524   0.31551   0.94691   0.00000  Uiso   1.00
C67    C     0.31754   0.53724   0.81412   0.00000  Uiso   1.00
C68    C     0.35358   0.62699   0.82595   0.00000  Uiso   1.00
C69    C     0.30356   0.68737   0.86241   0.00000  Uiso   1.00
H70    H     0.14324   0.38546   0.83766   0.00000  Uiso   1.00
H71    H     0.07596   0.30955   0.67630   0.00000  Uiso   1.00
H72    H     0.21045   0.29187   0.95068   0.00000  Uiso   1.00
H73    H     0.12010   0.54699   0.89269   0.00000  Uiso   1.00
H74    H     0.03801   0.23791   0.48694   0.00000  Uiso   1.00
H75    H     0.32159   0.20066   0.06550   0.00000  Uiso   1.00
H76    H     0.13108   0.73862   0.94323   0.00000  Uiso   1.00
H77    H     0.42552   0.48216   0.75697   0.00000  Uiso   1.00
H78    H     0.37373   0.41156   0.59117   0.00000  Uiso   1.00
H79    H     0.50821   0.39387   0.86555   0.00000  Uiso   1.00
H80    H     0.41787   0.64899   0.80757   0.00000  Uiso   1.00
H81    H     0.27969   0.32070   0.41785   0.00000  Uiso   1.00
H82    H     0.56327   0.28344   0.99641   0.00000  Uiso   1.00
H83    H     0.37276   0.82141   0.87414   0.00000  Uiso   1.00
O84    O     0.11970   0.23109   0.34479   0.00000  Uiso   1.00
O85    O     0.49174   0.18223   0.10385   0.00000  Uiso   1.00
O86    O     0.24179   0.88802   0.94343   0.00000  Uiso   1.00
N87    N     0.10199   0.26710   0.49343   0.00000  Uiso   1.00
N88    N     0.36712   0.23226   0.03434   0.00000  Uiso   1.00
N89    N     0.18902   0.73521   0.92005   0.00000  Uiso   1.00
N90    N     0.23204   0.31165   0.45625   0.00000  Uiso   1.00
N91    N     0.49717   0.27680   0.99716   0.00000  Uiso   1.00
N92    N     0.31906   0.77975   0.88287   0.00000  Uiso   1.00
C93    C     0.81905   0.20796   0.40772   0.00000  Uiso   1.00
C94    C     0.72012   0.21053   0.37988   0.00000  Uiso   1.00
C95    C     0.65766   0.14030   0.33168   0.00000  Uiso   1.00
C96    C     0.57049   0.15604   0.31288   0.00000  Uiso   1.00
C97    C     0.42050   0.14743   0.26529   0.00000  Uiso   1.00
C98    C     0.86930   0.28361   0.37027   0.00000  Uiso   1.00
C99    C     0.93227   0.27481   0.31401   0.00000  Uiso   1.00
C100   C     0.97069   0.35208   0.28713   0.00000  Uiso   1.00
C101   C     0.05234   0.45692   0.22469   0.00000  Uiso   1.00
C102   C     0.83777   0.23449   0.50884   0.00000  Uiso   1.00
C103   C     0.87426   0.18441   0.56909   0.00000  Uiso   1.00
C104   C     0.88615   0.22033   0.65889   0.00000  Uiso   1.00
C105   C     0.91885   0.24891   0.81159   0.00000  Uiso   1.00
C106   C     0.77532   0.36082   0.46004   0.00000  Uiso   1.00
C107   C     0.69637   0.29357   0.40830   0.00000  Uiso   1.00
C108   C     0.60928   0.30942   0.38957   0.00000  Uiso   1.00
C109   C     0.54669   0.23922   0.34135   0.00000  Uiso   1.00
C110   C     0.84555   0.36664   0.39869   0.00000  Uiso   1.00
C111   C     0.88389   0.44393   0.37190   0.00000  Uiso   1.00
C112   C     0.94689   0.43526   0.31560   0.00000  Uiso   1.00
C113   C     0.81402   0.31752   0.53727   0.00000  Uiso   1.00
C114   C     0.82587   0.35353   0.62698   0.00000  Uiso   1.00
C115   C     0.86236   0.30351   0.68736   0.00000  Uiso   1.00
H116   H     0.83755   0.14332   0.38559   0.00000  Uiso   1.00
H117   H     0.67607   0.07606   0.30969   0.00000  Uiso   1.00
H118   H     0.95064   0.21055   0.29203   0.00000  Uiso   1.00
H119   H     0.89263   0.12016   0.54708   0.00000  Uiso   1.00
H120   H     0.48657   0.03811   0.23805   0.00000  Uiso   1.00
H121   H     0.06554   0.32170   0.20084   0.00000  Uiso   1.00
H122   H     0.94322   0.13109   0.73865   0.00000  Uiso   1.00
H123   H     0.75683   0.42547   0.48217   0.00000  Uiso   1.00
H124   H     0.59092   0.37368   0.41157   0.00000  Uiso   1.00
H125   H     0.86549   0.50817   0.39391   0.00000  Uiso   1.00
H126   H     0.80748   0.41778   0.64895   0.00000  Uiso   1.00
H127   H     0.41746   0.27967   0.32073   0.00000  Uiso   1.00
H128   H     0.99644   0.56327   0.28352   0.00000  Uiso   1.00
H129   H     0.87411   0.37266   0.82134   0.00000  Uiso   1.00
O130   O     0.34433   0.11974   0.23118   0.00000  Uiso   1.00
O131   O     0.10394   0.49181   0.18238   0.00000  Uiso   1.00
O132   O     0.94344   0.24173   0.88797   0.00000  Uiso   1.00
N133   N     0.49307   0.10206   0.26721   0.00000  Uiso   1.00
N134   N     0.03437   0.36720   0.23241   0.00000  Uiso   1.00
N135   N     0.92002   0.18901   0.73522   0.00000  Uiso   1.00
N136   N     0.45588   0.23204   0.31170   0.00000  Uiso   1.00
N137   N     0.99718   0.49718   0.27690   0.00000  Uiso   1.00
N138   N     0.88283   0.31899   0.77971   0.00000  Uiso   1.00
C139   C     0.59245   0.18089   0.79202   0.00000  Uiso   1.00
C140   C     0.62032   0.27980   0.78943   0.00000  Uiso   1.00
C141   C     0.66856   0.34223   0.85964   0.00000  Uiso   1.00
C142   C     0.68738   0.42937   0.84388   0.00000  Uiso   1.00
C143   C     0.73501   0.57932   0.85246   0.00000  Uiso   1.00
C144   C     0.62991   0.13069   0.71642   0.00000  Uiso   1.00
C145   C     0.68621   0.06775   0.72524   0.00000  Uiso   1.00
C146   C     0.71310   0.02937   0.64802   0.00000  Uiso   1.00
C147   C     0.77557   0.94778   0.54324   0.00000  Uiso   1.00
C148   C     0.49126   0.16217   0.76549   0.00000  Uiso   1.00
C149   C     0.43096   0.12567   0.81555   0.00000  Uiso   1.00
C150   C     0.34111   0.11378   0.77963   0.00000  Uiso   1.00
C151   C     0.18830   0.08106   0.75104   0.00000  Uiso   1.00
C152   C     0.54009   0.22464   0.63919   0.00000  Uiso   1.00
C153   C     0.59187   0.30355   0.70642   0.00000  Uiso   1.00
C154   C     0.61062   0.39063   0.69055   0.00000  Uiso   1.00
C155   C     0.65888   0.45318   0.76072   0.00000  Uiso   1.00
C156   C     0.60147   0.15445   0.63341   0.00000  Uiso   1.00
C157   C     0.62828   0.11615   0.55615   0.00000  Uiso   1.00
C158   C     0.68461   0.05317   0.56485   0.00000  Uiso   1.00
C159   C     0.46281   0.18593   0.68248   0.00000  Uiso   1.00
C160   C     0.37303   0.17408   0.64646   0.00000  Uiso   1.00
C161   C     0.31262   0.13758   0.69647   0.00000  Uiso   1.00
H162   H     0.61460   0.16239   0.85665   0.00000  Uiso   1.00
H163   H     0.69057   0.32381   0.92387   0.00000  Uiso   1.00
H164   H     0.70821   0.04937   0.78949   0.00000  Uiso   1.00
H165   H     0.45300   0.10729   0.87979   0.00000  Uiso   1.00
H166   H     0.76227   0.51325   0.96177   0.00000  Uiso   1.00
H167   H     0.79944   0.93455   0.67842   0.00000  Uiso   1.00
H168   H     0.26129   0.05669   0.86884   0.00000  Uiso   1.00
H169   H     0.51794   0.24314   0.57456   0.00000  Uiso   1.00
H170   H     0.58860   0.40899   0.62630   0.00000  Uiso   1.00
H171   H     0.60625   0.13455   0.49192   0.00000  Uiso   1.00
H172   H     0.35104   0.19247   0.58222   0.00000  Uiso   1.00
H173   H     0.67952   0.58238   0.72025   0.00000  Uiso   1.00
H174   H     0.71669   0.00368   0.43691   0.00000  Uiso   1.00
H175   H     0.17854   0.12583   0.62732   0.00000  Uiso   1.00
O176   O     0.76915   0.65546   0.88013   0.00000  Uiso   1.00
O177   O     0.81790   0.89622   0.50839   0.00000  Uiso   1.00
O178   O     0.11186   0.05647   0.75821   0.00000  Uiso   1.00
N179   N     0.73308   0.50676   0.89783   0.00000  Uiso   1.00
N180   N     0.76785   0.96573   0.63292   0.00000  Uiso   1.00
N181   N     0.26472   0.07989   0.81093   0.00000  Uiso   1.00
N182   N     0.68856   0.54396   0.76788   0.00000  Uiso   1.00
N183   N     0.72332   0.00293   0.50297   0.00000  Uiso   1.00
N184   N     0.22019   0.11709   0.68098   0.00000  Uiso   1.00
C185   C     0.79209   0.59238   0.18083   0.00000  Uiso   1.00
C186   C     0.78951   0.62021   0.27969   0.00000  Uiso   1.00
C187   C     0.85977   0.66843   0.34211   0.00000  Uiso   1.00
C188   C     0.84401   0.68722   0.42921   0.00000  Uiso   1.00
C189   C     0.85261   0.73480   0.57910   0.00000  Uiso   1.00
C190   C     0.71643   0.62983   0.13062   0.00000  Uiso   1.00
C191   C     0.72526   0.68612   0.06769   0.00000  Uiso   1.00
C192   C     0.64798   0.71300   0.02930   0.00000  Uiso   1.00
C193   C     0.54314   0.77545   0.94771   0.00000  Uiso   1.00
C194   C     0.76553   0.49122   0.16214   0.00000  Uiso   1.00
C195   C     0.81562   0.43097   0.12568   0.00000  Uiso   1.00
C196   C     0.77966   0.34114   0.11380   0.00000  Uiso   1.00
C197   C     0.75104   0.18838   0.08113   0.00000  Uiso   1.00
C198   C     0.63916   0.53999   0.22455   0.00000  Uiso   1.00
C199   C     0.70643   0.59175   0.30344   0.00000  Uiso   1.00
C200   C     0.69056   0.61047   0.39047   0.00000  Uiso   1.00
C201   C     0.76079   0.65871   0.45300   0.00000  Uiso   1.00
C202   C     0.63337   0.60138   0.15437   0.00000  Uiso   1.00
C203   C     0.55606   0.62817   0.11606   0.00000  Uiso   1.00
C204   C     0.56476   0.68449   0.05309   0.00000  Uiso   1.00
C205   C     0.68246   0.46276   0.18588   0.00000  Uiso   1.00
C206   C     0.64642   0.37301   0.17405   0.00000  Uiso   1.00
C207   C     0.69644   0.31263   0.13759   0.00000  Uiso   1.00
H208   H     0.85676   0.61454   0.16234   0.00000  Uiso   1.00
H209   H     0.92404   0.69045   0.32370   0.00000  Uiso   1.00
H210   H     0.78955   0.70813   0.04932   0.00000  Uiso   1.00
H211   H     0.87990   0.45301   0.10731   0.00000  Uiso   1.00
H212   H     0.96199   0.76209   0.51306   0.00000  Uiso   1.00
H213   H     0.67841   0.79934   0.93450   0.00000  Uiso   1.00
H214   H     0.86892   0.26138   0.05677   0.00000  Uiso   1.00
H215   H     0.57448   0.51784   0.24303   0.00000  Uiso   1.00
H216   H     0.62627   0.58844   0.40883   0.00000  Uiso   1.00
H217   H     0.49179   0.60613   0.13445   0.00000  Uiso   1.00
H218   H     0.58213   0.35101   0.19243   0.00000  Uiso   1.00
H219   H     0.72031   0.67930   0.58215   0.00000  Uiso   1.00
H220   H     0.43673   0.71656   0.00358   0.00000  Uiso   1.00
H221   H     0.62724   0.17859   0.12586   0.00000  Uiso   1.00
O222   O     0.88030   0.76891   0.65521   0.00000  Uiso   1.00
O223   O     0.50826   0.81777   0.89615   0.00000  Uiso   1.00
O224   O     0.75821   0.11198   0.05657   0.00000  Uiso   1.00
N225   N     0.89801   0.73290   0.50658   0.00000  Uiso   1.00
N226   N     0.63288   0.76774   0.96566   0.00000  Uiso   1.00
N227   N     0.81098   0.26479   0.07995   0.00000  Uiso   1.00
N228   N     0.76796   0.68835   0.54375   0.00000  Uiso   1.00
N229   N     0.50283   0.72320   0.00284   0.00000  Uiso   1.00
N230   N     0.68094   0.22025   0.11713   0.00000  Uiso   1.00
C231   C     0.18095   0.79204   0.59228   0.00000  Uiso   1.00
C232   C     0.27988   0.78946   0.62012   0.00000  Uiso   1.00
C233   C     0.34234   0.85970   0.66832   0.00000  Uiso   1.00
C234   C     0.42951   0.84396   0.68712   0.00000  Uiso   1.00
C235   C     0.57950   0.85257   0.73471   0.00000  Uiso   1.00
C236   C     0.13070   0.71639   0.62973   0.00000  Uiso   1.00
C237   C     0.06773   0.72519   0.68599   0.00000  Uiso   1.00
C238   C     0.02931   0.64792   0.71287   0.00000  Uiso   1.00
C239   C     0.94766   0.54308   0.77531   0.00000  Uiso   1.00
C240   C     0.16223   0.76551   0.49116   0.00000  Uiso   1.00
C241   C     0.12574   0.81559   0.43091   0.00000  Uiso   1.00
C242   C     0.11385   0.77967   0.34111   0.00000  Uiso   1.00
C243   C     0.08115   0.75109   0.18841   0.00000  Uiso   1.00
C244   C     0.22468   0.63918   0.53996   0.00000  Uiso   1.00
C245   C     0.30363   0.70643   0.59170   0.00000  Uiso   1.00
C246   C     0.39072   0.69058   0.61043   0.00000  Uiso   1.00
C247   C     0.45330   0.76078   0.65865   0.00000  Uiso   1.00
C248   C     0.15445   0.63336   0.60131   0.00000  Uiso   1.00
C249   C     0.11611   0.55607   0.62810   0.00000  Uiso   1.00
C250   C     0.05311   0.56474   0.68440   0.00000  Uiso   1.00
C251   C     0.18598   0.68248   0.46273   0.00000  Uiso   1.00
C252   C     0.17413   0.64647   0.37302   0.00000  Uiso   1.00
C253   C     0.13764   0.69649   0.31264   0.00000  Uiso   1.00
H254   H     0.16245   0.85668   0.61441   0.00000  Uiso   1.00
H255   H     0.32393   0.92394   0.69031   0.00000  Uiso   1.00
H256   H     0.04936   0.78945   0.70797   0.00000  Uiso   1.00
H257   H     0.10737   0.87984   0.45292   0.00000  Uiso   1.00
H258   H     0.51343   0.96189   0.76195   0.00000  Uiso   1.00
H259   H     0.93446   0.67830   0.79916   0.00000  Uiso   1.00
H260   H     0.05678   0.86890   0.26135   0.00000  Uiso   1.00
H261   H     0.24317   0.57453   0.51783   0.00000  Uiso   1.00
H262   H     0.40908   0.62632   0.58843   0.00000  Uiso   1.00
H263   H     0.13451   0.49183   0.60609   0.00000  Uiso   1.00
H264   H     0.19252   0.58222   0.35105   0.00000  Uiso   1.00
H265   H     0.58254   0.72033   0.67927   0.00000  Uiso   1.00
H266   H     0.00356   0.43673   0.71648   0.00000  Uiso   1.00
H267   H     0.12589   0.62734   0.17866   0.00000  Uiso   1.00
O268   O     0.65567   0.88026   0.76882   0.00000  Uiso   1.00
O269   O     0.89606   0.50819   0.81762   0.00000  Uiso   1.00
O270   O     0.05656   0.75827   0.11203   0.00000  Uiso   1.00
N271   N     0.50693   0.89794   0.73279   0.00000  Uiso   1.00
N272   N     0.96563   0.63280   0.76759   0.00000  Uiso   1.00
N273   N     0.07998   0.81099   0.26478   0.00000  Uiso   1.00
N274   N     0.54412   0.76796   0.68830   0.00000  Uiso   1.00
N275   N     0.00282   0.50282   0.72310   0.00000  Uiso   1.00
N276   N     0.11717   0.68101   0.22029   0.00000  Uiso   1.00
