data_job_05215
_audit_creation_date              2018-12-19
_audit_creation_method            'Materials Studio'
_symmetry_space_group_name_H-M    'P1'
_symmetry_Int_Tables_number       1
_symmetry_cell_setting            triclinic
loop_
_symmetry_equiv_pos_as_xyz
  x,y,z
_cell_length_a                    12.3245
_cell_length_b                    7.0993
_cell_length_c                    29.6090
_cell_angle_alpha                 90.0000
_cell_angle_beta                  98.2556
_cell_angle_gamma                 90.0000
loop_
_atom_site_label
_atom_site_type_symbol
_atom_site_fract_x
_atom_site_fract_y
_atom_site_fract_z
_atom_site_U_iso_or_equiv
_atom_site_adp_type
_atom_site_occupancy
C1     C     0.17120   0.88795   0.87436   0.00000  Uiso   1.00
C2     C     0.10010   0.01383   0.89984   0.00000  Uiso   1.00
C3     C     0.01236   0.95457   0.92084   0.00000  Uiso   1.00
C4     C     0.95772   0.09150   0.94236   0.00000  Uiso   1.00
C5     C     0.84241   0.25817   0.98182   0.00000  Uiso   1.00
C6     C     0.16505   0.97120   0.82659   0.00000  Uiso   1.00
C7     C     0.13194   0.87607   0.78599   0.00000  Uiso   1.00
C8     C     0.13200   0.97712   0.74585   0.00000  Uiso   1.00
C9     C     0.11761   0.07756   0.67159   0.00000  Uiso   1.00
C10    C     0.28888   0.91770   0.89726   0.00000  Uiso   1.00
C11    C     0.35990   0.77760   0.91608   0.00000  Uiso   1.00
C12    C     0.46422   0.83360   0.93543   0.00000  Uiso   1.00
C13    C     0.64208   0.85098   0.97090   0.00000  Uiso   1.00
C14    C     0.23019   0.23652   0.87524   0.00000  Uiso   1.00
C15    C     0.13214   0.20316   0.90031   0.00000  Uiso   1.00
C16    C     0.07763   0.34022   0.92181   0.00000  Uiso   1.00
C17    C     0.98982   0.28117   0.94283   0.00000  Uiso   1.00
C18    C     0.19709   0.16052   0.82706   0.00000  Uiso   1.00
C19    C     0.19721   0.26173   0.78697   0.00000  Uiso   1.00
C20    C     0.16410   0.16679   0.74633   0.00000  Uiso   1.00
C21    C     0.32092   0.10704   0.89774   0.00000  Uiso   1.00
C22    C     0.42516   0.16326   0.91706   0.00000  Uiso   1.00
C23    C     0.49632   0.02327   0.93591   0.00000  Uiso   1.00
H24    H     0.14626   0.74055   0.87399   0.00000  Uiso   1.00
H25    H     0.98758   0.80803   0.92046   0.00000  Uiso   1.00
H26    H     0.10716   0.72955   0.78564   0.00000  Uiso   1.00
H27    H     0.33508   0.63110   0.91571   0.00000  Uiso   1.00
H28    H     0.82577   0.96636   0.97217   0.00000  Uiso   1.00
H29    H     0.07794   0.80086   0.68790   0.00000  Uiso   1.00
H30    H     0.55855   0.59324   0.96218   0.00000  Uiso   1.00
H31    H     0.25514   0.38393   0.87561   0.00000  Uiso   1.00
H32    H     0.10244   0.48673   0.92217   0.00000  Uiso   1.00
H33    H     0.22201   0.40824   0.78735   0.00000  Uiso   1.00
H34    H     0.44993   0.30978   0.91742   0.00000  Uiso   1.00
H35    H     0.91899   0.51721   0.97356   0.00000  Uiso   1.00
H36    H     0.17116   0.35170   0.68928   0.00000  Uiso   1.00
H37    H     0.65176   0.14409   0.96356   0.00000  Uiso   1.00
O38    O     0.76994   0.29781   0.00345   0.00000  Uiso   1.00
O39    O     0.10080   0.08065   0.63049   0.00000  Uiso   1.00
O40    O     0.73133   0.80827   0.99034   0.00000  Uiso   1.00
N41    N     0.86868   0.08189   0.96612   0.00000  Uiso   1.00
N42    N     0.10443   0.92716   0.70034   0.00000  Uiso   1.00
N43    N     0.55376   0.73305   0.95675   0.00000  Uiso   1.00
N44    N     0.91884   0.37830   0.96686   0.00000  Uiso   1.00
N45    N     0.15459   0.22357   0.70108   0.00000  Uiso   1.00
N46    N     0.60392   0.02946   0.95750   0.00000  Uiso   1.00
C47    C     0.82880   0.38795   0.62564   0.00000  Uiso   1.00
C48    C     0.89990   0.51383   0.60016   0.00000  Uiso   1.00
C49    C     0.98764   0.45457   0.57916   0.00000  Uiso   1.00
C50    C     0.04228   0.59150   0.55764   0.00000  Uiso   1.00
C51    C     0.15759   0.75817   0.51818   0.00000  Uiso   1.00
C52    C     0.83495   0.47120   0.67341   0.00000  Uiso   1.00
C53    C     0.86806   0.37607   0.71401   0.00000  Uiso   1.00
C54    C     0.86800   0.47712   0.75415   0.00000  Uiso   1.00
C55    C     0.88239   0.57756   0.82841   0.00000  Uiso   1.00
C56    C     0.71112   0.41770   0.60274   0.00000  Uiso   1.00
C57    C     0.64010   0.27760   0.58392   0.00000  Uiso   1.00
C58    C     0.53578   0.33360   0.56457   0.00000  Uiso   1.00
C59    C     0.35792   0.35098   0.52910   0.00000  Uiso   1.00
C60    C     0.76981   0.73652   0.62476   0.00000  Uiso   1.00
C61    C     0.86786   0.70316   0.59969   0.00000  Uiso   1.00
C62    C     0.92237   0.84022   0.57819   0.00000  Uiso   1.00
C63    C     0.01018   0.78117   0.55717   0.00000  Uiso   1.00
C64    C     0.80291   0.66052   0.67294   0.00000  Uiso   1.00
C65    C     0.80279   0.76173   0.71303   0.00000  Uiso   1.00
C66    C     0.83590   0.66679   0.75367   0.00000  Uiso   1.00
C67    C     0.67908   0.60704   0.60226   0.00000  Uiso   1.00
C68    C     0.57484   0.66326   0.58294   0.00000  Uiso   1.00
C69    C     0.50368   0.52327   0.56409   0.00000  Uiso   1.00
H70    H     0.85374   0.24055   0.62601   0.00000  Uiso   1.00
H71    H     0.01242   0.30803   0.57954   0.00000  Uiso   1.00
H72    H     0.89284   0.22955   0.71436   0.00000  Uiso   1.00
H73    H     0.66492   0.13110   0.58429   0.00000  Uiso   1.00
H74    H     0.17423   0.46636   0.52783   0.00000  Uiso   1.00
H75    H     0.92206   0.30086   0.81210   0.00000  Uiso   1.00
H76    H     0.44145   0.09324   0.53782   0.00000  Uiso   1.00
H77    H     0.74486   0.88393   0.62439   0.00000  Uiso   1.00
H78    H     0.89756   0.98673   0.57783   0.00000  Uiso   1.00
H79    H     0.77799   0.90824   0.71265   0.00000  Uiso   1.00
H80    H     0.55007   0.80978   0.58258   0.00000  Uiso   1.00
H81    H     0.08101   0.01721   0.52644   0.00000  Uiso   1.00
H82    H     0.82884   0.85170   0.81072   0.00000  Uiso   1.00
H83    H     0.34824   0.64409   0.53644   0.00000  Uiso   1.00
O84    O     0.23006   0.79781   0.49655   0.00000  Uiso   1.00
O85    O     0.89920   0.58065   0.86951   0.00000  Uiso   1.00
O86    O     0.26867   0.30827   0.50966   0.00000  Uiso   1.00
N87    N     0.13132   0.58189   0.53388   0.00000  Uiso   1.00
N88    N     0.89557   0.42716   0.79966   0.00000  Uiso   1.00
N89    N     0.44624   0.23305   0.54325   0.00000  Uiso   1.00
N90    N     0.08116   0.87830   0.53314   0.00000  Uiso   1.00
N91    N     0.84541   0.72357   0.79892   0.00000  Uiso   1.00
N92    N     0.39608   0.52946   0.54250   0.00000  Uiso   1.00
C93    C     0.82880   0.11205   0.12564   0.00000  Uiso   1.00
C94    C     0.89990   0.98617   0.10016   0.00000  Uiso   1.00
C95    C     0.98764   0.04543   0.07916   0.00000  Uiso   1.00
C96    C     0.04228   0.90850   0.05764   0.00000  Uiso   1.00
C97    C     0.15759   0.74183   0.01818   0.00000  Uiso   1.00
C98    C     0.83495   0.02880   0.17341   0.00000  Uiso   1.00
C99    C     0.86806   0.12393   0.21401   0.00000  Uiso   1.00
C100   C     0.86800   0.02288   0.25415   0.00000  Uiso   1.00
C101   C     0.88239   0.92244   0.32841   0.00000  Uiso   1.00
C102   C     0.71112   0.08230   0.10274   0.00000  Uiso   1.00
C103   C     0.64010   0.22240   0.08392   0.00000  Uiso   1.00
C104   C     0.53578   0.16640   0.06457   0.00000  Uiso   1.00
C105   C     0.35792   0.14902   0.02910   0.00000  Uiso   1.00
C106   C     0.76981   0.76348   0.12476   0.00000  Uiso   1.00
C107   C     0.86786   0.79684   0.09969   0.00000  Uiso   1.00
C108   C     0.92237   0.65978   0.07819   0.00000  Uiso   1.00
C109   C     0.01018   0.71883   0.05717   0.00000  Uiso   1.00
C110   C     0.80291   0.83948   0.17294   0.00000  Uiso   1.00
C111   C     0.80279   0.73827   0.21303   0.00000  Uiso   1.00
C112   C     0.83590   0.83321   0.25367   0.00000  Uiso   1.00
C113   C     0.67908   0.89296   0.10226   0.00000  Uiso   1.00
C114   C     0.57484   0.83674   0.08294   0.00000  Uiso   1.00
C115   C     0.50368   0.97673   0.06409   0.00000  Uiso   1.00
H116   H     0.85374   0.25945   0.12601   0.00000  Uiso   1.00
H117   H     0.01242   0.19197   0.07954   0.00000  Uiso   1.00
H118   H     0.89284   0.27045   0.21436   0.00000  Uiso   1.00
H119   H     0.66492   0.36890   0.08429   0.00000  Uiso   1.00
H120   H     0.17423   0.03364   0.02783   0.00000  Uiso   1.00
H121   H     0.92206   0.19914   0.31210   0.00000  Uiso   1.00
H122   H     0.44145   0.40676   0.03782   0.00000  Uiso   1.00
H123   H     0.74486   0.61607   0.12439   0.00000  Uiso   1.00
H124   H     0.89756   0.51327   0.07783   0.00000  Uiso   1.00
H125   H     0.77799   0.59176   0.21265   0.00000  Uiso   1.00
H126   H     0.55007   0.69022   0.08258   0.00000  Uiso   1.00
H127   H     0.08101   0.48279   0.02644   0.00000  Uiso   1.00
H128   H     0.82884   0.64830   0.31072   0.00000  Uiso   1.00
H129   H     0.34824   0.85591   0.03644   0.00000  Uiso   1.00
O130   O     0.23006   0.70219   0.99655   0.00000  Uiso   1.00
O131   O     0.89920   0.91935   0.36951   0.00000  Uiso   1.00
O132   O     0.26867   0.19173   0.00966   0.00000  Uiso   1.00
N133   N     0.13132   0.91811   0.03388   0.00000  Uiso   1.00
N134   N     0.89557   0.07284   0.29966   0.00000  Uiso   1.00
N135   N     0.44624   0.26695   0.04325   0.00000  Uiso   1.00
N136   N     0.08116   0.62170   0.03314   0.00000  Uiso   1.00
N137   N     0.84541   0.77643   0.29892   0.00000  Uiso   1.00
N138   N     0.39608   0.97054   0.04250   0.00000  Uiso   1.00
C139   C     0.17120   0.61205   0.37436   0.00000  Uiso   1.00
C140   C     0.10010   0.48617   0.39984   0.00000  Uiso   1.00
C141   C     0.01236   0.54543   0.42084   0.00000  Uiso   1.00
C142   C     0.95772   0.40850   0.44236   0.00000  Uiso   1.00
C143   C     0.84241   0.24183   0.48182   0.00000  Uiso   1.00
C144   C     0.16505   0.52880   0.32659   0.00000  Uiso   1.00
C145   C     0.13194   0.62393   0.28599   0.00000  Uiso   1.00
C146   C     0.13200   0.52288   0.24585   0.00000  Uiso   1.00
C147   C     0.11761   0.42244   0.17159   0.00000  Uiso   1.00
C148   C     0.28888   0.58230   0.39726   0.00000  Uiso   1.00
C149   C     0.35990   0.72240   0.41608   0.00000  Uiso   1.00
C150   C     0.46422   0.66640   0.43543   0.00000  Uiso   1.00
C151   C     0.64208   0.64902   0.47090   0.00000  Uiso   1.00
C152   C     0.23019   0.26348   0.37524   0.00000  Uiso   1.00
C153   C     0.13214   0.29684   0.40031   0.00000  Uiso   1.00
C154   C     0.07763   0.15978   0.42181   0.00000  Uiso   1.00
C155   C     0.98982   0.21883   0.44283   0.00000  Uiso   1.00
C156   C     0.19709   0.33948   0.32706   0.00000  Uiso   1.00
C157   C     0.19721   0.23827   0.28697   0.00000  Uiso   1.00
C158   C     0.16410   0.33321   0.24633   0.00000  Uiso   1.00
C159   C     0.32092   0.39296   0.39774   0.00000  Uiso   1.00
C160   C     0.42516   0.33674   0.41706   0.00000  Uiso   1.00
C161   C     0.49632   0.47673   0.43591   0.00000  Uiso   1.00
H162   H     0.14626   0.75945   0.37399   0.00000  Uiso   1.00
H163   H     0.98758   0.69197   0.42046   0.00000  Uiso   1.00
H164   H     0.10716   0.77045   0.28564   0.00000  Uiso   1.00
H165   H     0.33508   0.86890   0.41571   0.00000  Uiso   1.00
H166   H     0.82577   0.53364   0.47217   0.00000  Uiso   1.00
H167   H     0.07794   0.69914   0.18790   0.00000  Uiso   1.00
H168   H     0.55855   0.90676   0.46218   0.00000  Uiso   1.00
H169   H     0.25514   0.11607   0.37561   0.00000  Uiso   1.00
H170   H     0.10244   0.01327   0.42217   0.00000  Uiso   1.00
H171   H     0.22201   0.09176   0.28735   0.00000  Uiso   1.00
H172   H     0.44993   0.19022   0.41742   0.00000  Uiso   1.00
H173   H     0.91899   0.98279   0.47356   0.00000  Uiso   1.00
H174   H     0.17116   0.14830   0.18928   0.00000  Uiso   1.00
H175   H     0.65176   0.35591   0.46356   0.00000  Uiso   1.00
O176   O     0.76994   0.20219   0.50345   0.00000  Uiso   1.00
O177   O     0.10080   0.41935   0.13049   0.00000  Uiso   1.00
O178   O     0.73133   0.69173   0.49034   0.00000  Uiso   1.00
N179   N     0.86868   0.41811   0.46612   0.00000  Uiso   1.00
N180   N     0.10443   0.57284   0.20034   0.00000  Uiso   1.00
N181   N     0.55376   0.76695   0.45675   0.00000  Uiso   1.00
N182   N     0.91884   0.12170   0.46686   0.00000  Uiso   1.00
N183   N     0.15459   0.27643   0.20108   0.00000  Uiso   1.00
N184   N     0.60392   0.47054   0.45750   0.00000  Uiso   1.00
