data_job_06891
_audit_creation_date              2018-12-19
_audit_creation_method            'Materials Studio'
_symmetry_space_group_name_H-M    'P1'
_symmetry_Int_Tables_number       1
_symmetry_cell_setting            triclinic
loop_
_symmetry_equiv_pos_as_xyz
  x,y,z
_cell_length_a                    22.9094
_cell_length_b                    23.2761
_cell_length_c                    24.0967
_cell_angle_alpha                 66.3589
_cell_angle_beta                  66.3019
_cell_angle_gamma                 86.9201
loop_
_atom_site_label
_atom_site_type_symbol
_atom_site_fract_x
_atom_site_fract_y
_atom_site_fract_z
_atom_site_U_iso_or_equiv
_atom_site_adp_type
_atom_site_occupancy
C1     C     0.87952   0.15203   0.20024   0.00000  Uiso   1.00
C2     C     0.89364   0.14017   0.26035   0.00000  Uiso   1.00
C3     C     0.85029   0.11056   0.32659   0.00000  Uiso   1.00
C4     C     0.87252   0.10428   0.37425   0.00000  Uiso   1.00
C5     C     0.88481   0.08247   0.47032   0.00000  Uiso   1.00
C6     C     0.89575   0.22309   0.15764   0.00000  Uiso   1.00
C7     C     0.85419   0.26319   0.13751   0.00000  Uiso   1.00
C8     C     0.87821   0.32670   0.09870   0.00000  Uiso   1.00
C9     C     0.89379   0.43361   0.03527   0.00000  Uiso   1.00
C10    C     0.92905   0.12125   0.16002   0.00000  Uiso   1.00
C11    C     0.91547   0.07574   0.14188   0.00000  Uiso   1.00
C12    C     0.96753   0.05353   0.10506   0.00000  Uiso   1.00
C13    C     0.03481   0.00233   0.04533   0.00000  Uiso   1.00
C14    C     0.99610   0.19351   0.16710   0.00000  Uiso   1.00
C15    C     0.95696   0.16271   0.24235   0.00000  Uiso   1.00
C16    C     0.97927   0.15646   0.28993   0.00000  Uiso   1.00
C17    C     0.93596   0.12685   0.35622   0.00000  Uiso   1.00
C18    C     0.95907   0.24562   0.13964   0.00000  Uiso   1.00
C19    C     0.98317   0.30909   0.10085   0.00000  Uiso   1.00
C20    C     0.94165   0.34928   0.08067   0.00000  Uiso   1.00
C21    C     0.99237   0.14379   0.14202   0.00000  Uiso   1.00
C22    C     0.04446   0.12164   0.10522   0.00000  Uiso   1.00
C23    C     0.03097   0.07610   0.08703   0.00000  Uiso   1.00
H24    H     0.83022   0.13449   0.21425   0.00000  Uiso   1.00
H25    H     0.80129   0.09314   0.34049   0.00000  Uiso   1.00
H26    H     0.80519   0.24574   0.15144   0.00000  Uiso   1.00
H27    H     0.86647   0.05832   0.15581   0.00000  Uiso   1.00
H28    H     0.79713   0.05725   0.47252   0.00000  Uiso   1.00
H29    H     0.80536   0.37901   0.07387   0.00000  Uiso   1.00
H30    H     0.93458   0.98381   0.08309   0.00000  Uiso   1.00
H31    H     0.04540   0.21106   0.15309   0.00000  Uiso   1.00
H32    H     0.02828   0.17391   0.27598   0.00000  Uiso   1.00
H33    H     0.03217   0.32651   0.08693   0.00000  Uiso   1.00
H34    H     0.09345   0.13909   0.09130   0.00000  Uiso   1.00
H35    H     0.98136   0.12281   0.42016   0.00000  Uiso   1.00
H36    H     0.98959   0.44457   0.02151   0.00000  Uiso   1.00
H37    H     0.11881   0.04936   0.03073   0.00000  Uiso   1.00
O38    O     0.87409   0.06423   0.52829   0.00000  Uiso   1.00
O39    O     0.88489   0.48636   0.00526   0.00000  Uiso   1.00
O40    O     0.05442   0.96786   0.01736   0.00000  Uiso   1.00
N41    N     0.84284   0.07777   0.44334   0.00000  Uiso   1.00
N42    N     0.85053   0.37860   0.07063   0.00000  Uiso   1.00
N43    N     0.97134   0.00912   0.07923   0.00000  Uiso   1.00
N44    N     0.94197   0.11304   0.41516   0.00000  Uiso   1.00
N45    N     0.94967   0.41387   0.04245   0.00000  Uiso   1.00
N46    N     0.07048   0.04440   0.05106   0.00000  Uiso   1.00
C47    C     0.24946   0.01320   0.00800   0.00000  Uiso   1.00
C48    C     0.32034   0.01953   0.99444   0.00000  Uiso   1.00
C49    C     0.36157   0.97471   0.98652   0.00000  Uiso   1.00
C50    C     0.42468   0.98943   0.97446   0.00000  Uiso   1.00
C51    C     0.53152   0.99049   0.95404   0.00000  Uiso   1.00
C52    C     0.21288   0.02225   0.07197   0.00000  Uiso   1.00
C53    C     0.16377   0.97972   0.12923   0.00000  Uiso   1.00
C54    C     0.13642   0.99673   0.18243   0.00000  Uiso   1.00
C55    C     0.07640   0.00204   0.28236   0.00000  Uiso   1.00
C56    C     0.24172   0.07036   0.95258   0.00000  Uiso   1.00
C57    C     0.21683   0.06829   0.90947   0.00000  Uiso   1.00
C58    C     0.21373   0.12581   0.86216   0.00000  Uiso   1.00
C59    C     0.19849   0.20582   0.77672   0.00000  Uiso   1.00
C60    C     0.28821   0.11904   0.00067   0.00000  Uiso   1.00
C61    C     0.34138   0.07701   0.99046   0.00000  Uiso   1.00
C62    C     0.40444   0.09181   0.97840   0.00000  Uiso   1.00
C63    C     0.44577   0.04702   0.97046   0.00000  Uiso   1.00
C64    C     0.23393   0.07973   0.06799   0.00000  Uiso   1.00
C65    C     0.20664   0.09681   0.12111   0.00000  Uiso   1.00
C66    C     0.15750   0.05432   0.17844   0.00000  Uiso   1.00
C67    C     0.26276   0.12785   0.94859   0.00000  Uiso   1.00
C68    C     0.25970   0.18539   0.90135   0.00000  Uiso   1.00
C69    C     0.23482   0.18340   0.85817   0.00000  Uiso   1.00
H70    H     0.23307   0.96845   0.01111   0.00000  Uiso   1.00
H71    H     0.34527   0.93022   0.98961   0.00000  Uiso   1.00
H72    H     0.14749   0.93524   0.13230   0.00000  Uiso   1.00
H73    H     0.20054   0.02379   0.91257   0.00000  Uiso   1.00
H74    H     0.47893   0.91319   0.96405   0.00000  Uiso   1.00
H75    H     0.06189   0.92377   0.26490   0.00000  Uiso   1.00
H76    H     0.17376   0.11051   0.80155   0.00000  Uiso   1.00
H77    H     0.30460   0.16380   0.99756   0.00000  Uiso   1.00
H78    H     0.42072   0.13630   0.97532   0.00000  Uiso   1.00
H79    H     0.22294   0.14131   0.11801   0.00000  Uiso   1.00
H80    H     0.27599   0.22986   0.89828   0.00000  Uiso   1.00
H81    H     0.54016   0.08044   0.95245   0.00000  Uiso   1.00
H82    H     0.12312   0.09102   0.25331   0.00000  Uiso   1.00
H83    H     0.23500   0.27776   0.78995   0.00000  Uiso   1.00
O84    O     0.58464   0.97519   0.94389   0.00000  Uiso   1.00
O85    O     0.03749   0.98907   0.33859   0.00000  Uiso   1.00
O86    O     0.18427   0.23407   0.73068   0.00000  Uiso   1.00
N87    N     0.47741   0.95633   0.96436   0.00000  Uiso   1.00
N88    N     0.08751   0.96622   0.24564   0.00000  Uiso   1.00
N89    N     0.19208   0.14080   0.81246   0.00000  Uiso   1.00
N90    N     0.51036   0.04633   0.95812   0.00000  Uiso   1.00
N91    N     0.12046   0.05622   0.23940   0.00000  Uiso   1.00
N92    N     0.22504   0.23080   0.80622   0.00000  Uiso   1.00
C93    C     0.19467   0.41588   0.76141   0.00000  Uiso   1.00
C94    C     0.18385   0.47282   0.77891   0.00000  Uiso   1.00
C95    C     0.17307   0.53163   0.74035   0.00000  Uiso   1.00
C96    C     0.16428   0.57753   0.76507   0.00000  Uiso   1.00
C97    C     0.14722   0.66786   0.78294   0.00000  Uiso   1.00
C98    C     0.25896   0.39674   0.76277   0.00000  Uiso   1.00
C99    C     0.31133   0.39156   0.71064   0.00000  Uiso   1.00
C100   C     0.36577   0.37341   0.72178   0.00000  Uiso   1.00
C101   C     0.46530   0.34558   0.71461   0.00000  Uiso   1.00
C102   C     0.14366   0.36227   0.81961   0.00000  Uiso   1.00
C103   C     0.09909   0.32810   0.81527   0.00000  Uiso   1.00
C104   C     0.05647   0.28091   0.87426   0.00000  Uiso   1.00
C105   C     0.97697   0.19957   0.95535   0.00000  Uiso   1.00
C106   C     0.19825   0.39283   0.87388   0.00000  Uiso   1.00
C107   C     0.18579   0.46030   0.84000   0.00000  Uiso   1.00
C108   C     0.17702   0.50613   0.86479   0.00000  Uiso   1.00
C109   C     0.16623   0.56498   0.82627   0.00000  Uiso   1.00
C110   C     0.26090   0.38422   0.82386   0.00000  Uiso   1.00
C111   C     0.31528   0.36606   0.83508   0.00000  Uiso   1.00
C112   C     0.36771   0.36086   0.78298   0.00000  Uiso   1.00
C113   C     0.14560   0.34975   0.88070   0.00000  Uiso   1.00
C114   C     0.10304   0.30260   0.93971   0.00000  Uiso   1.00
C115   C     0.05841   0.26837   0.93547   0.00000  Uiso   1.00
H116   H     0.19316   0.42562   0.71384   0.00000  Uiso   1.00
H117   H     0.17157   0.54130   0.69307   0.00000  Uiso   1.00
H118   H     0.30981   0.40125   0.66337   0.00000  Uiso   1.00
H119   H     0.09760   0.33780   0.76799   0.00000  Uiso   1.00
H120   H     0.14852   0.66403   0.69697   0.00000  Uiso   1.00
H121   H     0.43998   0.36871   0.63436   0.00000  Uiso   1.00
H122   H     0.99251   0.23491   0.85496   0.00000  Uiso   1.00
H123   H     0.19976   0.38308   0.92145   0.00000  Uiso   1.00
H124   H     0.17853   0.49642   0.91207   0.00000  Uiso   1.00
H125   H     0.31676   0.35638   0.88237   0.00000  Uiso   1.00
H126   H     0.10456   0.29293   0.98698   0.00000  Uiso   1.00
H127   H     0.15416   0.62761   0.87471   0.00000  Uiso   1.00
H128   H     0.44563   0.33229   0.81210   0.00000  Uiso   1.00
H129   H     0.99815   0.19850   0.03270   0.00000  Uiso   1.00
O130   O     0.13728   0.72116   0.77591   0.00000  Uiso   1.00
O131   O     0.51966   0.33370   0.69378   0.00000  Uiso   1.00
O132   O     0.93259   0.15816   0.98320   0.00000  Uiso   1.00
N133   N     0.15275   0.63990   0.74009   0.00000  Uiso   1.00
N134   N     0.42525   0.36380   0.68155   0.00000  Uiso   1.00
N135   N     0.00691   0.23870   0.88779   0.00000  Uiso   1.00
N136   N     0.15578   0.62030   0.83574   0.00000  Uiso   1.00
N137   N     0.42829   0.34421   0.77720   0.00000  Uiso   1.00
N138   N     0.00995   0.21911   0.98344   0.00000  Uiso   1.00
C139   C     0.41883   0.84331   0.49174   0.00000  Uiso   1.00
C140   C     0.41909   0.91378   0.47531   0.00000  Uiso   1.00
C141   C     0.36780   0.94779   0.47318   0.00000  Uiso   1.00
C142   C     0.37768   0.01185   0.45717   0.00000  Uiso   1.00
C143   C     0.36909   0.11686   0.43373   0.00000  Uiso   1.00
C144   C     0.43761   0.81468   0.55032   0.00000  Uiso   1.00
C145   C     0.40191   0.76537   0.61126   0.00000  Uiso   1.00
C146   C     0.42738   0.74600   0.65839   0.00000  Uiso   1.00
C147   C     0.44758   0.69713   0.75139   0.00000  Uiso   1.00
C148   C     0.47429   0.83797   0.43270   0.00000  Uiso   1.00
C149   C     0.46942   0.80823   0.39475   0.00000  Uiso   1.00
C150   C     0.52577   0.80846   0.34287   0.00000  Uiso   1.00
C151   C     0.60291   0.79575   0.25325   0.00000  Uiso   1.00
C152   C     0.52756   0.89658   0.46710   0.00000  Uiso   1.00
C153   C     0.47815   0.94271   0.46193   0.00000  Uiso   1.00
C154   C     0.48811   0.00673   0.44592   0.00000  Uiso   1.00
C155   C     0.43684   0.04083   0.44376   0.00000  Uiso   1.00
C156   C     0.49667   0.84361   0.53694   0.00000  Uiso   1.00
C157   C     0.52221   0.82430   0.58400   0.00000  Uiso   1.00
C158   C     0.48655   0.77498   0.64499   0.00000  Uiso   1.00
C159   C     0.53335   0.86691   0.41932   0.00000  Uiso   1.00
C160   C     0.58972   0.86717   0.36749   0.00000  Uiso   1.00
C161   C     0.58494   0.83744   0.32946   0.00000  Uiso   1.00
H162   H     0.37285   0.82078   0.50216   0.00000  Uiso   1.00
H163   H     0.32210   0.92538   0.48354   0.00000  Uiso   1.00
H164   H     0.35621   0.74299   0.62159   0.00000  Uiso   1.00
H165   H     0.42371   0.78585   0.40512   0.00000  Uiso   1.00
H166   H     0.29188   0.05411   0.45702   0.00000  Uiso   1.00
H167   H     0.36380   0.66950   0.74811   0.00000  Uiso   1.00
H168   H     0.50614   0.75988   0.29163   0.00000  Uiso   1.00
H169   H     0.57354   0.91910   0.45668   0.00000  Uiso   1.00
H170   H     0.53381   0.02910   0.43556   0.00000  Uiso   1.00
H171   H     0.56792   0.84670   0.57362   0.00000  Uiso   1.00
H172   H     0.63542   0.88956   0.35715   0.00000  Uiso   1.00
H173   H     0.46371   0.13829   0.41809   0.00000  Uiso   1.00
H174   H     0.53564   0.75368   0.70917   0.00000  Uiso   1.00
H175   H     0.67797   0.84406   0.25270   0.00000  Uiso   1.00
O176   O     0.34804   0.16678   0.42450   0.00000  Uiso   1.00
O177   O     0.44240   0.66218   0.80639   0.00000  Uiso   1.00
O178   O     0.62914   0.78076   0.20751   0.00000  Uiso   1.00
N179   N     0.33778   0.05883   0.45074   0.00000  Uiso   1.00
N180   N     0.40502   0.69925   0.72289   0.00000  Uiso   1.00
N181   N     0.53809   0.78373   0.29614   0.00000  Uiso   1.00
N182   N     0.43024   0.10412   0.42979   0.00000  Uiso   1.00
N183   N     0.49748   0.74455   0.70194   0.00000  Uiso   1.00
N184   N     0.63056   0.82902   0.27519   0.00000  Uiso   1.00
C185   C     0.80214   0.81892   0.19906   0.00000  Uiso   1.00
C186   C     0.87207   0.82049   0.18957   0.00000  Uiso   1.00
C187   C     0.92408   0.81874   0.13507   0.00000  Uiso   1.00
C188   C     0.98423   0.82066   0.13579   0.00000  Uiso   1.00
C189   C     0.09164   0.82260   0.11291   0.00000  Uiso   1.00
C190   C     0.77916   0.87788   0.20980   0.00000  Uiso   1.00
C191   C     0.75304   0.92438   0.17231   0.00000  Uiso   1.00
C192   C     0.73497   0.97460   0.19007   0.00000  Uiso   1.00
C193   C     0.69809   0.06562   0.19863   0.00000  Uiso   1.00
C194   C     0.76501   0.76285   0.26512   0.00000  Uiso   1.00
C195   C     0.72698   0.71262   0.27415   0.00000  Uiso   1.00
C196   C     0.69698   0.66600   0.33848   0.00000  Uiso   1.00
C197   C     0.63813   0.57840   0.43294   0.00000  Uiso   1.00
C198   C     0.81648   0.82543   0.29726   0.00000  Uiso   1.00
C199   C     0.87986   0.82403   0.24290   0.00000  Uiso   1.00
C200   C     0.93995   0.82595   0.24371   0.00000  Uiso   1.00
C201   C     0.99203   0.82420   0.18922   0.00000  Uiso   1.00
C202   C     0.78695   0.88142   0.26313   0.00000  Uiso   1.00
C203   C     0.76891   0.93159   0.28095   0.00000  Uiso   1.00
C204   C     0.74277   0.97815   0.24350   0.00000  Uiso   1.00
C205   C     0.77280   0.76638   0.31845   0.00000  Uiso   1.00
C206   C     0.74285   0.71983   0.38279   0.00000  Uiso   1.00
C207   C     0.70478   0.66954   0.39192   0.00000  Uiso   1.00
H208   H     0.79607   0.81617   0.15754   0.00000  Uiso   1.00
H209   H     0.91803   0.81601   0.09380   0.00000  Uiso   1.00
H210   H     0.74702   0.92163   0.13104   0.00000  Uiso   1.00
H211   H     0.72096   0.70990   0.23286   0.00000  Uiso   1.00
H212   H     0.05669   0.81742   0.04664   0.00000  Uiso   1.00
H213   H     0.69607   0.04011   0.12518   0.00000  Uiso   1.00
H214   H     0.64112   0.59364   0.33989   0.00000  Uiso   1.00
H215   H     0.82254   0.82819   0.33879   0.00000  Uiso   1.00
H216   H     0.94596   0.82869   0.28499   0.00000  Uiso   1.00
H217   H     0.77494   0.93431   0.32223   0.00000  Uiso   1.00
H218   H     0.74889   0.72258   0.42405   0.00000  Uiso   1.00
H219   H     0.07935   0.82772   0.20181   0.00000  Uiso   1.00
H220   H     0.71873   0.05040   0.28036   0.00000  Uiso   1.00
H221   H     0.66379   0.60393   0.49507   0.00000  Uiso   1.00
O222   O     0.14873   0.82270   0.08556   0.00000  Uiso   1.00
O223   O     0.67560   0.11485   0.18861   0.00000  Uiso   1.00
O224   O     0.60352   0.52910   0.47030   0.00000  Uiso   1.00
N225   N     0.04508   0.81976   0.09055   0.00000  Uiso   1.00
N226   N     0.70793   0.02797   0.16397   0.00000  Uiso   1.00
N227   N     0.65655   0.61057   0.36471   0.00000  Uiso   1.00
N228   N     0.05728   0.82530   0.17405   0.00000  Uiso   1.00
N229   N     0.72013   0.03350   0.24747   0.00000  Uiso   1.00
N230   N     0.66875   0.61610   0.44821   0.00000  Uiso   1.00
C231   C     0.57202   0.48035   0.69848   0.00000  Uiso   1.00
C232   C     0.56381   0.50136   0.75326   0.00000  Uiso   1.00
C233   C     0.52784   0.46683   0.82097   0.00000  Uiso   1.00
C234   C     0.52638   0.49430   0.86303   0.00000  Uiso   1.00
C235   C     0.50859   0.51781   0.95187   0.00000  Uiso   1.00
C236   C     0.64424   0.48323   0.66046   0.00000  Uiso   1.00
C237   C     0.67589   0.43344   0.65013   0.00000  Uiso   1.00
C238   C     0.74214   0.44565   0.61406   0.00000  Uiso   1.00
C239   C     0.84921   0.44102   0.55879   0.00000  Uiso   1.00
C240   C     0.55010   0.53198   0.65040   0.00000  Uiso   1.00
C241   C     0.50259   0.52319   0.63159   0.00000  Uiso   1.00
C242   C     0.48959   0.57644   0.58704   0.00000  Uiso   1.00
C243   C     0.45048   0.64750   0.51614   0.00000  Uiso   1.00
C244   C     0.63342   0.59055   0.65277   0.00000  Uiso   1.00
C245   C     0.59716   0.56122   0.72843   0.00000  Uiso   1.00
C246   C     0.59576   0.58876   0.77040   0.00000  Uiso   1.00
C247   C     0.55979   0.55427   0.83816   0.00000  Uiso   1.00
C248   C     0.67759   0.54308   0.63563   0.00000  Uiso   1.00
C249   C     0.74381   0.55537   0.59956   0.00000  Uiso   1.00
C250   C     0.77555   0.50562   0.58919   0.00000  Uiso   1.00
C251   C     0.58344   0.59184   0.62557   0.00000  Uiso   1.00
C252   C     0.57052   0.64512   0.58103   0.00000  Uiso   1.00
C253   C     0.52300   0.63641   0.56217   0.00000  Uiso   1.00
H254   H     0.54607   0.43375   0.71780   0.00000  Uiso   1.00
H255   H     0.50204   0.42050   0.84016   0.00000  Uiso   1.00
H256   H     0.65007   0.38713   0.66935   0.00000  Uiso   1.00
H257   H     0.47680   0.47686   0.65082   0.00000  Uiso   1.00
H258   H     0.46796   0.43221   0.96487   0.00000  Uiso   1.00
H259   H     0.78007   0.36184   0.60468   0.00000  Uiso   1.00
H260   H     0.41470   0.55105   0.56560   0.00000  Uiso   1.00
H261   H     0.65938   0.63716   0.63344   0.00000  Uiso   1.00
H262   H     0.62157   0.63508   0.75117   0.00000  Uiso   1.00
H263   H     0.76960   0.60170   0.58036   0.00000  Uiso   1.00
H264   H     0.59633   0.69143   0.56183   0.00000  Uiso   1.00
H265   H     0.56498   0.60636   0.89265   0.00000  Uiso   1.00
H266   H     0.87709   0.53599   0.53245   0.00000  Uiso   1.00
H267   H     0.51172   0.72521   0.49338   0.00000  Uiso   1.00
O268   O     0.48957   0.51424   0.00773   0.00000  Uiso   1.00
O269   O     0.89905   0.42192   0.53516   0.00000  Uiso   1.00
O270   O     0.41969   0.67016   0.48390   0.00000  Uiso   1.00
N271   N     0.49597   0.47349   0.93172   0.00000  Uiso   1.00
N272   N     0.78778   0.40769   0.59497   0.00000  Uiso   1.00
N273   N     0.44620   0.58459   0.55842   0.00000  Uiso   1.00
N274   N     0.54817   0.56720   0.89285   0.00000  Uiso   1.00
N275   N     0.83999   0.50140   0.55610   0.00000  Uiso   1.00
N276   N     0.49841   0.67830   0.51956   0.00000  Uiso   1.00
C277   C     0.19337   0.09131   0.56898   0.00000  Uiso   1.00
C278   C     0.16942   0.09208   0.51812   0.00000  Uiso   1.00
C279   C     0.19965   0.12737   0.44978   0.00000  Uiso   1.00
C280   C     0.17004   0.12152   0.41175   0.00000  Uiso   1.00
C281   C     0.14165   0.12875   0.32831   0.00000  Uiso   1.00
C282   C     0.19897   0.02232   0.60694   0.00000  Uiso   1.00
C283   C     0.25406   0.99896   0.61328   0.00000  Uiso   1.00
C284   C     0.24932   0.93439   0.65004   0.00000  Uiso   1.00
C285   C     0.26680   0.83333   0.70454   0.00000  Uiso   1.00
C286   C     0.13886   0.10939   0.61888   0.00000  Uiso   1.00
C287   C     0.14340   0.15922   0.63529   0.00000  Uiso   1.00
C288   C     0.08806   0.16794   0.68211   0.00000  Uiso   1.00
C289   C     0.01220   0.20205   0.75516   0.00000  Uiso   1.00
C290   C     0.08702   0.01817   0.62299   0.00000  Uiso   1.00
C291   C     0.11165   0.05236   0.54746   0.00000  Uiso   1.00
C292   C     0.08199   0.04646   0.50953   0.00000  Uiso   1.00
C293   C     0.11217   0.08173   0.44114   0.00000  Uiso   1.00
C294   C     0.14121   0.98260   0.63628   0.00000  Uiso   1.00
C295   C     0.13639   0.91805   0.67304   0.00000  Uiso   1.00
C296   C     0.19145   0.89460   0.67943   0.00000  Uiso   1.00
C297   C     0.08109   0.06966   0.64822   0.00000  Uiso   1.00
C298   C     0.02574   0.07831   0.69503   0.00000  Uiso   1.00
C299   C     0.03019   0.12814   0.71150   0.00000  Uiso   1.00
H300   H     0.23835   0.12223   0.54614   0.00000  Uiso   1.00
H301   H     0.24436   0.15810   0.42709   0.00000  Uiso   1.00
H302   H     0.29875   0.02972   0.59058   0.00000  Uiso   1.00
H303   H     0.18811   0.18995   0.61258   0.00000  Uiso   1.00
H304   H     0.22556   0.18034   0.30804   0.00000  Uiso   1.00
H305   H     0.34024   0.90964   0.65278   0.00000  Uiso   1.00
H306   H     0.10694   0.24751   0.69916   0.00000  Uiso   1.00
H307   H     0.04205   0.98724   0.64583   0.00000  Uiso   1.00
H308   H     0.03729   0.01571   0.53224   0.00000  Uiso   1.00
H309   H     0.09168   0.88733   0.69573   0.00000  Uiso   1.00
H310   H     0.98104   0.04756   0.71773   0.00000  Uiso   1.00
H311   H     0.05749   0.06477   0.39338   0.00000  Uiso   1.00
H312   H     0.17218   0.79407   0.73813   0.00000  Uiso   1.00
H313   H     0.93887   0.13194   0.78451   0.00000  Uiso   1.00
O314   O     0.14194   0.14370   0.27419   0.00000  Uiso   1.00
O315   O     0.29240   0.78855   0.72649   0.00000  Uiso   1.00
O316   O     0.98632   0.23184   0.78734   0.00000  Uiso   1.00
N317   N     0.18665   0.14924   0.34371   0.00000  Uiso   1.00
N318   N     0.29388   0.89615   0.66602   0.00000  Uiso   1.00
N319   N     0.07576   0.21203   0.70939   0.00000  Uiso   1.00
N320   N     0.09622   0.08705   0.38963   0.00000  Uiso   1.00
N321   N     0.20344   0.83396   0.71194   0.00000  Uiso   1.00
N322   N     0.98533   0.14984   0.75532   0.00000  Uiso   1.00
C323   C     0.81825   0.21517   0.77778   0.00000  Uiso   1.00
C324   C     0.74730   0.22084   0.79350   0.00000  Uiso   1.00
C325   C     0.71679   0.27284   0.79849   0.00000  Uiso   1.00
C326   C     0.65159   0.26877   0.81325   0.00000  Uiso   1.00
C327   C     0.54651   0.28583   0.83619   0.00000  Uiso   1.00
C328   C     0.84508   0.20037   0.71661   0.00000  Uiso   1.00
C329   C     0.89680   0.23514   0.65696   0.00000  Uiso   1.00
C330   C     0.91392   0.21383   0.60700   0.00000  Uiso   1.00
C331   C     0.96069   0.19907   0.51059   0.00000  Uiso   1.00
C332   C     0.82020   0.15598   0.83512   0.00000  Uiso   1.00
C333   C     0.85101   0.15342   0.87509   0.00000  Uiso   1.00
C334   C     0.84720   0.09473   0.92490   0.00000  Uiso   1.00
C335   C     0.85533   0.01106   0.01248   0.00000  Uiso   1.00
C336   C     0.75671   0.11547   0.79513   0.00000  Uiso   1.00
C337   C     0.71387   0.16669   0.80292   0.00000  Uiso   1.00
C338   C     0.64870   0.16253   0.81768   0.00000  Uiso   1.00
C339   C     0.61810   0.21452   0.82269   0.00000  Uiso   1.00
C340   C     0.81166   0.14622   0.72603   0.00000  Uiso   1.00
C341   C     0.82871   0.12484   0.67615   0.00000  Uiso   1.00
C342   C     0.88044   0.15958   0.61644   0.00000  Uiso   1.00
C343   C     0.78677   0.10182   0.84454   0.00000  Uiso   1.00
C344   C     0.78292   0.04312   0.89429   0.00000  Uiso   1.00
C345   C     0.81371   0.04048   0.93434   0.00000  Uiso   1.00
H346   H     0.84428   0.25733   0.77045   0.00000  Uiso   1.00
H347   H     0.74268   0.31474   0.79119   0.00000  Uiso   1.00
H348   H     0.92266   0.27704   0.64969   0.00000  Uiso   1.00
H349   H     0.87688   0.19534   0.86779   0.00000  Uiso   1.00
H350   H     0.61530   0.35452   0.81832   0.00000  Uiso   1.00
H351   H     0.99482   0.27503   0.51996   0.00000  Uiso   1.00
H352   H     0.89828   0.10274   0.97987   0.00000  Uiso   1.00
H353   H     0.73068   0.07331   0.80246   0.00000  Uiso   1.00
H354   H     0.62284   0.12062   0.82497   0.00000  Uiso   1.00
H355   H     0.80283   0.08293   0.68346   0.00000  Uiso   1.00
H356   H     0.75704   0.00123   0.90156   0.00000  Uiso   1.00
H357   H     0.51804   0.19697   0.84573   0.00000  Uiso   1.00
H358   H     0.89756   0.11748   0.54737   0.00000  Uiso   1.00
H359   H     0.80101   0.94519   0.00728   0.00000  Uiso   1.00
O360   O     0.49778   0.31020   0.84623   0.00000  Uiso   1.00
O361   O     0.99571   0.20590   0.45480   0.00000  Uiso   1.00
O362   O     0.86904   0.97986   0.05819   0.00000  Uiso   1.00
N363   N     0.60721   0.31094   0.82169   0.00000  Uiso   1.00
N364   N     0.96203   0.23663   0.54275   0.00000  Uiso   1.00
N365   N     0.87178   0.07555   0.97271   0.00000  Uiso   1.00
N366   N     0.55487   0.22616   0.83645   0.00000  Uiso   1.00
N367   N     0.90969   0.15185   0.55750   0.00000  Uiso   1.00
N368   N     0.81945   0.99077   0.98746   0.00000  Uiso   1.00
C369   C     0.83832   0.82569   0.98692   0.00000  Uiso   1.00
C370   C     0.84115   0.75460   0.01185   0.00000  Uiso   1.00
C371   C     0.81640   0.71141   0.07807   0.00000  Uiso   1.00
C372   C     0.82386   0.64846   0.09057   0.00000  Uiso   1.00
C373   C     0.82350   0.54097   0.13718   0.00000  Uiso   1.00
C374   C     0.80536   0.84153   0.93969   0.00000  Uiso   1.00
C375   C     0.75052   0.87143   0.94524   0.00000  Uiso   1.00
C376   C     0.72785   0.88165   0.89700   0.00000  Uiso   1.00
C377   C     0.67195   0.90915   0.83155   0.00000  Uiso   1.00
C378   C     0.90768   0.85696   0.94373   0.00000  Uiso   1.00
C379   C     0.93887   0.89984   0.95266   0.00000  Uiso   1.00
C380   C     0.00235   0.92307   0.90780   0.00000  Uiso   1.00
C381   C     0.10532   0.97453   0.84862   0.00000  Uiso   1.00
C382   C     0.89558   0.79069   0.89136   0.00000  Uiso   1.00
C383   C     0.87225   0.73560   0.95994   0.00000  Uiso   1.00
C384   C     0.87975   0.67269   0.97235   0.00000  Uiso   1.00
C385   C     0.85502   0.62941   0.03858   0.00000  Uiso   1.00
C386   C     0.83646   0.82252   0.88779   0.00000  Uiso   1.00
C387   C     0.81387   0.83270   0.83952   0.00000  Uiso   1.00
C388   C     0.75901   0.86261   0.84500   0.00000  Uiso   1.00
C389   C     0.93878   0.83795   0.89183   0.00000  Uiso   1.00
C390   C     0.00222   0.86112   0.84694   0.00000  Uiso   1.00
C391   C     0.03351   0.90403   0.85580   0.00000  Uiso   1.00
H392   H     0.81410   0.84049   0.02732   0.00000  Uiso   1.00
H393   H     0.79233   0.72614   0.11822   0.00000  Uiso   1.00
H394   H     0.72646   0.88614   0.98541   0.00000  Uiso   1.00
H395   H     0.91479   0.91454   0.99283   0.00000  Uiso   1.00
H396   H     0.78189   0.59098   0.19611   0.00000  Uiso   1.00
H397   H     0.64302   0.92835   0.91606   0.00000  Uiso   1.00
H398   H     0.04014   0.98826   0.93170   0.00000  Uiso   1.00
H399   H     0.91979   0.77589   0.85095   0.00000  Uiso   1.00
H400   H     0.90382   0.65800   0.93218   0.00000  Uiso   1.00
H401   H     0.83795   0.81799   0.79936   0.00000  Uiso   1.00
H402   H     0.02628   0.84640   0.80678   0.00000  Uiso   1.00
H403   H     0.87238   0.53567   0.04511   0.00000  Uiso   1.00
H404   H     0.73351   0.87305   0.76506   0.00000  Uiso   1.00
H405   H     0.13063   0.93295   0.78070   0.00000  Uiso   1.00
O406   O     0.81470   0.48693   0.17722   0.00000  Uiso   1.00
O407   O     0.63252   0.92956   0.80980   0.00000  Uiso   1.00
O408   O     0.15353   0.00815   0.83032   0.00000  Uiso   1.00
N409   N     0.80539   0.59414   0.14943   0.00000  Uiso   1.00
N410   N     0.67555   0.90956   0.88760   0.00000  Uiso   1.00
N411   N     0.04681   0.96558   0.90221   0.00000  Uiso   1.00
N412   N     0.85408   0.56438   0.06817   0.00000  Uiso   1.00
N413   N     0.72424   0.87980   0.80635   0.00000  Uiso   1.00
N414   N     0.09551   0.93582   0.82096   0.00000  Uiso   1.00
C415   C     0.63853   0.42447   0.26425   0.00000  Uiso   1.00
C416   C     0.63907   0.35518   0.27545   0.00000  Uiso   1.00
C417   C     0.68976   0.32034   0.27803   0.00000  Uiso   1.00
C418   C     0.68080   0.25762   0.28873   0.00000  Uiso   1.00
C419   C     0.69041   0.15413   0.30490   0.00000  Uiso   1.00
C420   C     0.62334   0.45798   0.20369   0.00000  Uiso   1.00
C421   C     0.66079   0.50958   0.14593   0.00000  Uiso   1.00
C422   C     0.63858   0.53340   0.09622   0.00000  Uiso   1.00
C423   C     0.62375   0.58953   0.00099   0.00000  Uiso   1.00
C424   C     0.58052   0.42636   0.32349   0.00000  Uiso   1.00
C425   C     0.58197   0.45140   0.36645   0.00000  Uiso   1.00
C426   C     0.52370   0.44862   0.41760   0.00000  Uiso   1.00
C427   C     0.44239   0.45567   0.50839   0.00000  Uiso   1.00
C428   C     0.53249   0.37502   0.27868   0.00000  Uiso   1.00
C429   C     0.58147   0.32832   0.28329   0.00000  Uiso   1.00
C430   C     0.57243   0.26564   0.29400   0.00000  Uiso   1.00
C431   C     0.62310   0.23071   0.29659   0.00000  Uiso   1.00
C432   C     0.56574   0.43112   0.21152   0.00000  Uiso   1.00
C433   C     0.54347   0.45487   0.16190   0.00000  Uiso   1.00
C434   C     0.58088   0.50649   0.10407   0.00000  Uiso   1.00
C435   C     0.52292   0.39950   0.33133   0.00000  Uiso   1.00
C436   C     0.46465   0.39669   0.38242   0.00000  Uiso   1.00
C437   C     0.46600   0.42172   0.42546   0.00000  Uiso   1.00
H438   H     0.68337   0.44538   0.25814   0.00000  Uiso   1.00
H439   H     0.73433   0.34115   0.27195   0.00000  Uiso   1.00
H440   H     0.70536   0.53036   0.13988   0.00000  Uiso   1.00
H441   H     0.62655   0.47218   0.36037   0.00000  Uiso   1.00
H442   H     0.76542   0.21375   0.29070   0.00000  Uiso   1.00
H443   H     0.70434   0.61272   0.01222   0.00000  Uiso   1.00
H444   H     0.53815   0.49005   0.47717   0.00000  Uiso   1.00
H445   H     0.48765   0.35411   0.28479   0.00000  Uiso   1.00
H446   H     0.52785   0.24486   0.30006   0.00000  Uiso   1.00
H447   H     0.49889   0.43408   0.16798   0.00000  Uiso   1.00
H448   H     0.42008   0.37590   0.38847   0.00000  Uiso   1.00
H449   H     0.59784   0.13560   0.31351   0.00000  Uiso   1.00
H450   H     0.53676   0.53458   0.03503   0.00000  Uiso   1.00
H451   H     0.37057   0.41191   0.49998   0.00000  Uiso   1.00
O452   O     0.71162   0.10447   0.31165   0.00000  Uiso   1.00
O453   O     0.63148   0.62791   0.94630   0.00000  Uiso   1.00
O454   O     0.41344   0.46697   0.55630   0.00000  Uiso   1.00
N455   N     0.72046   0.21035   0.29398   0.00000  Uiso   1.00
N456   N     0.66336   0.58335   0.03361   0.00000  Uiso   1.00
N457   N     0.50798   0.46869   0.46829   0.00000  Uiso   1.00
N458   N     0.63029   0.16830   0.30626   0.00000  Uiso   1.00
N459   N     0.57318   0.54130   0.04589   0.00000  Uiso   1.00
N460   N     0.41781   0.42664   0.48057   0.00000  Uiso   1.00
C461   C     0.23800   0.42880   0.56491   0.00000  Uiso   1.00
C462   C     0.16836   0.42641   0.57351   0.00000  Uiso   1.00
C463   C     0.11535   0.42581   0.62853   0.00000  Uiso   1.00
C464   C     0.05569   0.42353   0.62681   0.00000  Uiso   1.00
C465   C     0.94852   0.42004   0.64851   0.00000  Uiso   1.00
C466   C     0.26292   0.37139   0.55171   0.00000  Uiso   1.00
C467   C     0.28942   0.32455   0.58840   0.00000  Uiso   1.00
C468   C     0.30937   0.27595   0.56832   0.00000  Uiso   1.00
C469   C     0.34906   0.18707   0.55615   0.00000  Uiso   1.00
C470   C     0.27470   0.48652   0.50038   0.00000  Uiso   1.00
C471   C     0.31111   0.53647   0.49390   0.00000  Uiso   1.00
C472   C     0.34099   0.58481   0.43060   0.00000  Uiso   1.00
C473   C     0.39897   0.67468   0.33873   0.00000  Uiso   1.00
C474   C     0.22632   0.42580   0.46402   0.00000  Uiso   1.00
C475   C     0.16202   0.42478   0.51871   0.00000  Uiso   1.00
C476   C     0.10243   0.42250   0.51690   0.00000  Uiso   1.00
C477   C     0.04933   0.42190   0.57191   0.00000  Uiso   1.00
C478   C     0.25658   0.36976   0.49691   0.00000  Uiso   1.00
C479   C     0.27650   0.32123   0.47677   0.00000  Uiso   1.00
C480   C     0.30301   0.27432   0.51342   0.00000  Uiso   1.00
C481   C     0.26836   0.48490   0.44557   0.00000  Uiso   1.00
C482   C     0.29819   0.53316   0.38227   0.00000  Uiso   1.00
C483   C     0.33464   0.58317   0.37570   0.00000  Uiso   1.00
H484   H     0.24293   0.43006   0.60757   0.00000  Uiso   1.00
H485   H     0.12027   0.42707   0.67093   0.00000  Uiso   1.00
H486   H     0.29432   0.32582   0.63080   0.00000  Uiso   1.00
H487   H     0.31601   0.53772   0.53632   0.00000  Uiso   1.00
H488   H     0.98148   0.42301   0.71702   0.00000  Uiso   1.00
H489   H     0.34850   0.20954   0.63238   0.00000  Uiso   1.00
H490   H     0.39423   0.65636   0.43315   0.00000  Uiso   1.00
H491   H     0.22138   0.42453   0.42135   0.00000  Uiso   1.00
H492   H     0.09754   0.42124   0.47449   0.00000  Uiso   1.00
H493   H     0.27159   0.31999   0.43436   0.00000  Uiso   1.00
H494   H     0.29327   0.53188   0.33988   0.00000  Uiso   1.00
H495   H     0.96303   0.41828   0.55758   0.00000  Uiso   1.00
H496   H     0.33005   0.20480   0.47295   0.00000  Uiso   1.00
H497   H     0.37578   0.65162   0.27371   0.00000  Uiso   1.00
O498   O     0.89117   0.41856   0.67563   0.00000  Uiso   1.00
O499   O     0.37269   0.13849   0.56458   0.00000  Uiso   1.00
O500   O     0.43269   0.72471   0.30319   0.00000  Uiso   1.00
N501   N     0.99413   0.42236   0.67220   0.00000  Uiso   1.00
N502   N     0.33726   0.22277   0.59308   0.00000  Uiso   1.00
N503   N     0.38004   0.64050   0.40680   0.00000  Uiso   1.00
N504   N     0.98420   0.41981   0.58640   0.00000  Uiso   1.00
N505   N     0.32733   0.22022   0.50728   0.00000  Uiso   1.00
N506   N     0.37011   0.63796   0.32101   0.00000  Uiso   1.00
C507   C     0.47129   0.78602   0.06845   0.00000  Uiso   1.00
C508   C     0.48428   0.77149   0.00851   0.00000  Uiso   1.00
C509   C     0.52125   0.81121   0.94245   0.00000  Uiso   1.00
C510   C     0.52728   0.78924   0.89492   0.00000  Uiso   1.00
C511   C     0.55196   0.77574   0.79910   0.00000  Uiso   1.00
C512   C     0.39838   0.77918   0.10508   0.00000  Uiso   1.00
C513   C     0.36313   0.82538   0.12023   0.00000  Uiso   1.00
C514   C     0.29686   0.80988   0.15400   0.00000  Uiso   1.00
C515   C     0.18818   0.80832   0.20816   0.00000  Uiso   1.00
C516   C     0.49351   0.73225   0.11441   0.00000  Uiso   1.00
C517   C     0.53824   0.73899   0.13743   0.00000  Uiso   1.00
C518   C     0.55205   0.68397   0.17908   0.00000  Uiso   1.00
C519   C     0.59109   0.60954   0.24773   0.00000  Uiso   1.00
C520   C     0.41627   0.67636   0.10149   0.00000  Uiso   1.00
C521   C     0.45439   0.71192   0.02645   0.00000  Uiso   1.00
C522   C     0.46037   0.68988   0.97901   0.00000  Uiso   1.00
C523   C     0.49735   0.72956   0.91290   0.00000  Uiso   1.00
C524   C     0.36849   0.71962   0.12303   0.00000  Uiso   1.00
C525   C     0.30226   0.70405   0.15679   0.00000  Uiso   1.00
C526   C     0.26692   0.75021   0.17198   0.00000  Uiso   1.00
C527   C     0.46363   0.67268   0.13236   0.00000  Uiso   1.00
C528   C     0.47737   0.61765   0.17398   0.00000  Uiso   1.00
C529   C     0.52211   0.62430   0.19706   0.00000  Uiso   1.00
H530   H     0.49456   0.83240   0.05448   0.00000  Uiso   1.00
H531   H     0.54436   0.85731   0.92858   0.00000  Uiso   1.00
H532   H     0.38627   0.87147   0.10634   0.00000  Uiso   1.00
H533   H     0.56136   0.78509   0.12353   0.00000  Uiso   1.00
H534   H     0.58638   0.85867   0.79691   0.00000  Uiso   1.00
H535   H     0.25304   0.88852   0.17174   0.00000  Uiso   1.00
H536   H     0.62225   0.70637   0.20800   0.00000  Uiso   1.00
H537   H     0.39300   0.62998   0.11547   0.00000  Uiso   1.00
H538   H     0.43724   0.64378   0.99291   0.00000  Uiso   1.00
H539   H     0.27915   0.65794   0.17067   0.00000  Uiso   1.00
H540   H     0.45423   0.57156   0.18786   0.00000  Uiso   1.00
H541   H     0.49944   0.68536   0.84912   0.00000  Uiso   1.00
H542   H     0.16609   0.71521   0.22396   0.00000  Uiso   1.00
H543   H     0.53530   0.53306   0.26021   0.00000  Uiso   1.00
O544   O     0.57383   0.78475   0.74130   0.00000  Uiso   1.00
O545   O     0.13650   0.82391   0.23307   0.00000  Uiso   1.00
O546   O     0.62088   0.58494   0.28063   0.00000  Uiso   1.00
N547   N     0.55986   0.81598   0.82602   0.00000  Uiso   1.00
N548   N     0.24821   0.84389   0.17646   0.00000  Uiso   1.00
N549   N     0.59337   0.67360   0.21037   0.00000  Uiso   1.00
N550   N     0.51308   0.72272   0.85412   0.00000  Uiso   1.00
N551   N     0.20142   0.75064   0.20455   0.00000  Uiso   1.00
N552   N     0.54658   0.58035   0.23846   0.00000  Uiso   1.00
