data_job_01393
_audit_creation_date              2018-12-19
_audit_creation_method            'Materials Studio'
_symmetry_space_group_name_H-M    'P1'
_symmetry_Int_Tables_number       1
_symmetry_cell_setting            triclinic
loop_
_symmetry_equiv_pos_as_xyz
  x,y,z
_cell_length_a                    12.2319
_cell_length_b                    21.4938
_cell_length_c                    20.8117
_cell_angle_alpha                 90.0000
_cell_angle_beta                  90.0000
_cell_angle_gamma                 90.0000
loop_
_atom_site_label
_atom_site_type_symbol
_atom_site_fract_x
_atom_site_fract_y
_atom_site_fract_z
_atom_site_U_iso_or_equiv
_atom_site_adp_type
_atom_site_occupancy
C1     C     0.17758   0.13268   0.64637   0.00000  Uiso   1.00
C2     C     0.29290   0.11542   0.62500   0.00000  Uiso   1.00
C3     C     0.36120   0.07303   0.65531   0.00000  Uiso   1.00
C4     C     0.46367   0.06373   0.62827   0.00000  Uiso   1.00
C5     C     0.63777   0.03209   0.60353   0.00000  Uiso   1.00
C6     C     0.17772   0.20308   0.65539   0.00000  Uiso   1.00
C7     C     0.14916   0.23440   0.71124   0.00000  Uiso   1.00
C8     C     0.15466   0.29890   0.70978   0.00000  Uiso   1.00
C9     C     0.14986   0.40337   0.73219   0.00000  Uiso   1.00
C10    C     0.10360   0.11988   0.58890   0.00000  Uiso   1.00
C11    C     0.01268   0.08125   0.58885   0.00000  Uiso   1.00
C12    C     0.95576   0.07572   0.53141   0.00000  Uiso   1.00
C13    C     0.83586   0.05100   0.45060   0.00000  Uiso   1.00
C14    C     0.23812   0.19156   0.54447   0.00000  Uiso   1.00
C15    C     0.32579   0.14740   0.56965   0.00000  Uiso   1.00
C16    C     0.42818   0.13817   0.54256   0.00000  Uiso   1.00
C17    C     0.49662   0.09577   0.57282   0.00000  Uiso   1.00
C18    C     0.21061   0.23507   0.60004   0.00000  Uiso   1.00
C19    C     0.21614   0.29954   0.59850   0.00000  Uiso   1.00
C20    C     0.18761   0.33094   0.65433   0.00000  Uiso   1.00
C21    C     0.13648   0.15186   0.53355   0.00000  Uiso   1.00
C22    C     0.07967   0.14639   0.47610   0.00000  Uiso   1.00
C23    C     0.98870   0.10776   0.47596   0.00000  Uiso   1.00
H24    H     0.15197   0.10778   0.68947   0.00000  Uiso   1.00
H25    H     0.33572   0.04829   0.69815   0.00000  Uiso   1.00
H26    H     0.12371   0.20964   0.75406   0.00000  Uiso   1.00
H27    H     0.98726   0.05651   0.63169   0.00000  Uiso   1.00
H28    H     0.55396   0.99645   0.68337   0.00000  Uiso   1.00
H29    H     0.10688   0.33666   0.80127   0.00000  Uiso   1.00
H30    H     0.81915   0.01377   0.54323   0.00000  Uiso   1.00
H31    H     0.26372   0.21646   0.50138   0.00000  Uiso   1.00
H32    H     0.45361   0.16292   0.49973   0.00000  Uiso   1.00
H33    H     0.24159   0.32427   0.55565   0.00000  Uiso   1.00
H34    H     0.10514   0.17115   0.43328   0.00000  Uiso   1.00
H35    H     0.64964   0.08949   0.52233   0.00000  Uiso   1.00
H36    H     0.20255   0.42971   0.64024   0.00000  Uiso   1.00
H37    H     0.91483   0.10681   0.38219   0.00000  Uiso   1.00
O38    O     0.72471   0.00581   0.60518   0.00000  Uiso   1.00
O39    O     0.13814   0.45215   0.75985   0.00000  Uiso   1.00
O40    O     0.76065   0.02852   0.42131   0.00000  Uiso   1.00
N41    N     0.55041   0.02569   0.64569   0.00000  Uiso   1.00
N42    N     0.13243   0.34376   0.75592   0.00000  Uiso   1.00
N43    N     0.86341   0.04189   0.51468   0.00000  Uiso   1.00
N44    N     0.60190   0.07575   0.55903   0.00000  Uiso   1.00
N45    N     0.18392   0.39383   0.66927   0.00000  Uiso   1.00
N46    N     0.91490   0.09196   0.42802   0.00000  Uiso   1.00
C47    C     0.32242   0.36732   0.14637   0.00000  Uiso   1.00
C48    C     0.20710   0.38458   0.12500   0.00000  Uiso   1.00
C49    C     0.13880   0.42697   0.15531   0.00000  Uiso   1.00
C50    C     0.03633   0.43627   0.12827   0.00000  Uiso   1.00
C51    C     0.86223   0.46791   0.10353   0.00000  Uiso   1.00
C52    C     0.32228   0.29692   0.15539   0.00000  Uiso   1.00
C53    C     0.35084   0.26560   0.21124   0.00000  Uiso   1.00
C54    C     0.34534   0.20110   0.20978   0.00000  Uiso   1.00
C55    C     0.35014   0.09663   0.23219   0.00000  Uiso   1.00
C56    C     0.39640   0.38012   0.08890   0.00000  Uiso   1.00
C57    C     0.48732   0.41875   0.08885   0.00000  Uiso   1.00
C58    C     0.54424   0.42428   0.03141   0.00000  Uiso   1.00
C59    C     0.66414   0.44900   0.95060   0.00000  Uiso   1.00
C60    C     0.26188   0.30844   0.04447   0.00000  Uiso   1.00
C61    C     0.17421   0.35260   0.06965   0.00000  Uiso   1.00
C62    C     0.07182   0.36183   0.04256   0.00000  Uiso   1.00
C63    C     0.00338   0.40423   0.07282   0.00000  Uiso   1.00
C64    C     0.28939   0.26493   0.10004   0.00000  Uiso   1.00
C65    C     0.28386   0.20046   0.09850   0.00000  Uiso   1.00
C66    C     0.31239   0.16906   0.15433   0.00000  Uiso   1.00
C67    C     0.36352   0.34814   0.03355   0.00000  Uiso   1.00
C68    C     0.42033   0.35361   0.97610   0.00000  Uiso   1.00
C69    C     0.51130   0.39224   0.97596   0.00000  Uiso   1.00
H70    H     0.34803   0.39222   0.18947   0.00000  Uiso   1.00
H71    H     0.16428   0.45171   0.19815   0.00000  Uiso   1.00
H72    H     0.37629   0.29036   0.25406   0.00000  Uiso   1.00
H73    H     0.51274   0.44349   0.13169   0.00000  Uiso   1.00
H74    H     0.94604   0.50355   0.18337   0.00000  Uiso   1.00
H75    H     0.39312   0.16334   0.30127   0.00000  Uiso   1.00
H76    H     0.68085   0.48623   0.04323   0.00000  Uiso   1.00
H77    H     0.23628   0.28354   0.00138   0.00000  Uiso   1.00
H78    H     0.04639   0.33708   0.99973   0.00000  Uiso   1.00
H79    H     0.25841   0.17573   0.05565   0.00000  Uiso   1.00
H80    H     0.39486   0.32885   0.93328   0.00000  Uiso   1.00
H81    H     0.85036   0.41051   0.02233   0.00000  Uiso   1.00
H82    H     0.29745   0.07029   0.14024   0.00000  Uiso   1.00
H83    H     0.58517   0.39319   0.88219   0.00000  Uiso   1.00
O84    O     0.77529   0.49419   0.10518   0.00000  Uiso   1.00
O85    O     0.36186   0.04785   0.25985   0.00000  Uiso   1.00
O86    O     0.73935   0.47148   0.92131   0.00000  Uiso   1.00
N87    N     0.94959   0.47431   0.14569   0.00000  Uiso   1.00
N88    N     0.36757   0.15624   0.25592   0.00000  Uiso   1.00
N89    N     0.63659   0.45811   0.01468   0.00000  Uiso   1.00
N90    N     0.89810   0.42425   0.05903   0.00000  Uiso   1.00
N91    N     0.31608   0.10617   0.16927   0.00000  Uiso   1.00
N92    N     0.58510   0.40804   0.92802   0.00000  Uiso   1.00
C93    C     0.82242   0.13268   0.85363   0.00000  Uiso   1.00
C94    C     0.70710   0.11542   0.87500   0.00000  Uiso   1.00
C95    C     0.63880   0.07303   0.84469   0.00000  Uiso   1.00
C96    C     0.53633   0.06373   0.87173   0.00000  Uiso   1.00
C97    C     0.36223   0.03209   0.89647   0.00000  Uiso   1.00
C98    C     0.82228   0.20308   0.84461   0.00000  Uiso   1.00
C99    C     0.85084   0.23440   0.78876   0.00000  Uiso   1.00
C100   C     0.84534   0.29890   0.79022   0.00000  Uiso   1.00
C101   C     0.85014   0.40337   0.76781   0.00000  Uiso   1.00
C102   C     0.89640   0.11988   0.91110   0.00000  Uiso   1.00
C103   C     0.98732   0.08125   0.91115   0.00000  Uiso   1.00
C104   C     0.04424   0.07572   0.96859   0.00000  Uiso   1.00
C105   C     0.16414   0.05100   0.04940   0.00000  Uiso   1.00
C106   C     0.76188   0.19156   0.95553   0.00000  Uiso   1.00
C107   C     0.67421   0.14740   0.93035   0.00000  Uiso   1.00
C108   C     0.57182   0.13817   0.95744   0.00000  Uiso   1.00
C109   C     0.50338   0.09577   0.92718   0.00000  Uiso   1.00
C110   C     0.78939   0.23507   0.89996   0.00000  Uiso   1.00
C111   C     0.78386   0.29954   0.90150   0.00000  Uiso   1.00
C112   C     0.81239   0.33094   0.84567   0.00000  Uiso   1.00
C113   C     0.86352   0.15186   0.96645   0.00000  Uiso   1.00
C114   C     0.92033   0.14639   0.02390   0.00000  Uiso   1.00
C115   C     0.01130   0.10776   0.02404   0.00000  Uiso   1.00
H116   H     0.84803   0.10778   0.81053   0.00000  Uiso   1.00
H117   H     0.66428   0.04829   0.80185   0.00000  Uiso   1.00
H118   H     0.87629   0.20964   0.74594   0.00000  Uiso   1.00
H119   H     0.01274   0.05651   0.86831   0.00000  Uiso   1.00
H120   H     0.44604   0.99645   0.81663   0.00000  Uiso   1.00
H121   H     0.89312   0.33666   0.69873   0.00000  Uiso   1.00
H122   H     0.18085   0.01377   0.95677   0.00000  Uiso   1.00
H123   H     0.73628   0.21646   0.99862   0.00000  Uiso   1.00
H124   H     0.54639   0.16292   0.00027   0.00000  Uiso   1.00
H125   H     0.75841   0.32427   0.94435   0.00000  Uiso   1.00
H126   H     0.89486   0.17115   0.06672   0.00000  Uiso   1.00
H127   H     0.35036   0.08949   0.97767   0.00000  Uiso   1.00
H128   H     0.79745   0.42971   0.85976   0.00000  Uiso   1.00
H129   H     0.08517   0.10681   0.11781   0.00000  Uiso   1.00
O130   O     0.27529   0.00581   0.89482   0.00000  Uiso   1.00
O131   O     0.86186   0.45215   0.74015   0.00000  Uiso   1.00
O132   O     0.23935   0.02852   0.07869   0.00000  Uiso   1.00
N133   N     0.44959   0.02569   0.85431   0.00000  Uiso   1.00
N134   N     0.86757   0.34376   0.74408   0.00000  Uiso   1.00
N135   N     0.13659   0.04189   0.98532   0.00000  Uiso   1.00
N136   N     0.39810   0.07575   0.94097   0.00000  Uiso   1.00
N137   N     0.81608   0.39383   0.83073   0.00000  Uiso   1.00
N138   N     0.08510   0.09196   0.07198   0.00000  Uiso   1.00
C139   C     0.67758   0.36732   0.35363   0.00000  Uiso   1.00
C140   C     0.79290   0.38458   0.37500   0.00000  Uiso   1.00
C141   C     0.86120   0.42697   0.34469   0.00000  Uiso   1.00
C142   C     0.96367   0.43627   0.37173   0.00000  Uiso   1.00
C143   C     0.13777   0.46791   0.39647   0.00000  Uiso   1.00
C144   C     0.67772   0.29692   0.34461   0.00000  Uiso   1.00
C145   C     0.64916   0.26560   0.28876   0.00000  Uiso   1.00
C146   C     0.65466   0.20110   0.29022   0.00000  Uiso   1.00
C147   C     0.64986   0.09663   0.26781   0.00000  Uiso   1.00
C148   C     0.60360   0.38012   0.41110   0.00000  Uiso   1.00
C149   C     0.51268   0.41875   0.41115   0.00000  Uiso   1.00
C150   C     0.45576   0.42428   0.46859   0.00000  Uiso   1.00
C151   C     0.33586   0.44900   0.54940   0.00000  Uiso   1.00
C152   C     0.73812   0.30844   0.45553   0.00000  Uiso   1.00
C153   C     0.82579   0.35260   0.43035   0.00000  Uiso   1.00
C154   C     0.92818   0.36183   0.45744   0.00000  Uiso   1.00
C155   C     0.99662   0.40423   0.42718   0.00000  Uiso   1.00
C156   C     0.71061   0.26493   0.39996   0.00000  Uiso   1.00
C157   C     0.71614   0.20046   0.40150   0.00000  Uiso   1.00
C158   C     0.68761   0.16906   0.34567   0.00000  Uiso   1.00
C159   C     0.63648   0.34814   0.46645   0.00000  Uiso   1.00
C160   C     0.57967   0.35361   0.52390   0.00000  Uiso   1.00
C161   C     0.48870   0.39224   0.52404   0.00000  Uiso   1.00
H162   H     0.65197   0.39222   0.31053   0.00000  Uiso   1.00
H163   H     0.83572   0.45171   0.30185   0.00000  Uiso   1.00
H164   H     0.62371   0.29036   0.24594   0.00000  Uiso   1.00
H165   H     0.48726   0.44349   0.36831   0.00000  Uiso   1.00
H166   H     0.05396   0.50355   0.31663   0.00000  Uiso   1.00
H167   H     0.60688   0.16334   0.19873   0.00000  Uiso   1.00
H168   H     0.31915   0.48623   0.45677   0.00000  Uiso   1.00
H169   H     0.76372   0.28354   0.49862   0.00000  Uiso   1.00
H170   H     0.95361   0.33708   0.50027   0.00000  Uiso   1.00
H171   H     0.74159   0.17573   0.44435   0.00000  Uiso   1.00
H172   H     0.60514   0.32885   0.56672   0.00000  Uiso   1.00
H173   H     0.14964   0.41051   0.47767   0.00000  Uiso   1.00
H174   H     0.70255   0.07029   0.35976   0.00000  Uiso   1.00
H175   H     0.41483   0.39319   0.61781   0.00000  Uiso   1.00
O176   O     0.22471   0.49419   0.39482   0.00000  Uiso   1.00
O177   O     0.63814   0.04785   0.24015   0.00000  Uiso   1.00
O178   O     0.26065   0.47148   0.57869   0.00000  Uiso   1.00
N179   N     0.05041   0.47431   0.35431   0.00000  Uiso   1.00
N180   N     0.63243   0.15624   0.24408   0.00000  Uiso   1.00
N181   N     0.36341   0.45811   0.48532   0.00000  Uiso   1.00
N182   N     0.10190   0.42425   0.44097   0.00000  Uiso   1.00
N183   N     0.68392   0.10617   0.33073   0.00000  Uiso   1.00
N184   N     0.41490   0.40804   0.57198   0.00000  Uiso   1.00
C185   C     0.82242   0.86732   0.35363   0.00000  Uiso   1.00
C186   C     0.70710   0.88458   0.37500   0.00000  Uiso   1.00
C187   C     0.63880   0.92697   0.34469   0.00000  Uiso   1.00
C188   C     0.53633   0.93627   0.37173   0.00000  Uiso   1.00
C189   C     0.36223   0.96791   0.39647   0.00000  Uiso   1.00
C190   C     0.82228   0.79692   0.34461   0.00000  Uiso   1.00
C191   C     0.85084   0.76560   0.28876   0.00000  Uiso   1.00
C192   C     0.84534   0.70110   0.29022   0.00000  Uiso   1.00
C193   C     0.85014   0.59663   0.26781   0.00000  Uiso   1.00
C194   C     0.89640   0.88012   0.41110   0.00000  Uiso   1.00
C195   C     0.98732   0.91875   0.41115   0.00000  Uiso   1.00
C196   C     0.04424   0.92428   0.46859   0.00000  Uiso   1.00
C197   C     0.16414   0.94900   0.54940   0.00000  Uiso   1.00
C198   C     0.76188   0.80844   0.45553   0.00000  Uiso   1.00
C199   C     0.67421   0.85260   0.43035   0.00000  Uiso   1.00
C200   C     0.57182   0.86183   0.45744   0.00000  Uiso   1.00
C201   C     0.50338   0.90423   0.42718   0.00000  Uiso   1.00
C202   C     0.78939   0.76493   0.39996   0.00000  Uiso   1.00
C203   C     0.78386   0.70046   0.40150   0.00000  Uiso   1.00
C204   C     0.81239   0.66906   0.34567   0.00000  Uiso   1.00
C205   C     0.86352   0.84814   0.46645   0.00000  Uiso   1.00
C206   C     0.92033   0.85361   0.52390   0.00000  Uiso   1.00
C207   C     0.01130   0.89224   0.52404   0.00000  Uiso   1.00
H208   H     0.84803   0.89222   0.31053   0.00000  Uiso   1.00
H209   H     0.66428   0.95171   0.30185   0.00000  Uiso   1.00
H210   H     0.87629   0.79036   0.24594   0.00000  Uiso   1.00
H211   H     0.01274   0.94349   0.36831   0.00000  Uiso   1.00
H212   H     0.44604   0.00355   0.31663   0.00000  Uiso   1.00
H213   H     0.89312   0.66334   0.19873   0.00000  Uiso   1.00
H214   H     0.18085   0.98623   0.45677   0.00000  Uiso   1.00
H215   H     0.73628   0.78354   0.49862   0.00000  Uiso   1.00
H216   H     0.54639   0.83708   0.50027   0.00000  Uiso   1.00
H217   H     0.75841   0.67573   0.44435   0.00000  Uiso   1.00
H218   H     0.89486   0.82885   0.56672   0.00000  Uiso   1.00
H219   H     0.35036   0.91051   0.47767   0.00000  Uiso   1.00
H220   H     0.79745   0.57029   0.35976   0.00000  Uiso   1.00
H221   H     0.08517   0.89319   0.61781   0.00000  Uiso   1.00
O222   O     0.27529   0.99419   0.39482   0.00000  Uiso   1.00
O223   O     0.86186   0.54785   0.24015   0.00000  Uiso   1.00
O224   O     0.23935   0.97148   0.57869   0.00000  Uiso   1.00
N225   N     0.44959   0.97431   0.35431   0.00000  Uiso   1.00
N226   N     0.86757   0.65624   0.24408   0.00000  Uiso   1.00
N227   N     0.13659   0.95811   0.48532   0.00000  Uiso   1.00
N228   N     0.39810   0.92425   0.44097   0.00000  Uiso   1.00
N229   N     0.81608   0.60617   0.33073   0.00000  Uiso   1.00
N230   N     0.08510   0.90804   0.57198   0.00000  Uiso   1.00
C231   C     0.67758   0.63268   0.85363   0.00000  Uiso   1.00
C232   C     0.79290   0.61542   0.87500   0.00000  Uiso   1.00
C233   C     0.86120   0.57303   0.84469   0.00000  Uiso   1.00
C234   C     0.96367   0.56373   0.87173   0.00000  Uiso   1.00
C235   C     0.13777   0.53209   0.89647   0.00000  Uiso   1.00
C236   C     0.67772   0.70308   0.84461   0.00000  Uiso   1.00
C237   C     0.64916   0.73440   0.78876   0.00000  Uiso   1.00
C238   C     0.65466   0.79890   0.79022   0.00000  Uiso   1.00
C239   C     0.64986   0.90337   0.76781   0.00000  Uiso   1.00
C240   C     0.60360   0.61988   0.91110   0.00000  Uiso   1.00
C241   C     0.51268   0.58125   0.91115   0.00000  Uiso   1.00
C242   C     0.45576   0.57572   0.96859   0.00000  Uiso   1.00
C243   C     0.33586   0.55100   0.04940   0.00000  Uiso   1.00
C244   C     0.73812   0.69156   0.95553   0.00000  Uiso   1.00
C245   C     0.82579   0.64740   0.93035   0.00000  Uiso   1.00
C246   C     0.92818   0.63817   0.95744   0.00000  Uiso   1.00
C247   C     0.99662   0.59577   0.92718   0.00000  Uiso   1.00
C248   C     0.71061   0.73507   0.89996   0.00000  Uiso   1.00
C249   C     0.71614   0.79954   0.90150   0.00000  Uiso   1.00
C250   C     0.68761   0.83094   0.84567   0.00000  Uiso   1.00
C251   C     0.63648   0.65186   0.96645   0.00000  Uiso   1.00
C252   C     0.57967   0.64639   0.02390   0.00000  Uiso   1.00
C253   C     0.48870   0.60776   0.02404   0.00000  Uiso   1.00
H254   H     0.65197   0.60778   0.81053   0.00000  Uiso   1.00
H255   H     0.83572   0.54829   0.80185   0.00000  Uiso   1.00
H256   H     0.62371   0.70964   0.74594   0.00000  Uiso   1.00
H257   H     0.48726   0.55651   0.86831   0.00000  Uiso   1.00
H258   H     0.05396   0.49645   0.81663   0.00000  Uiso   1.00
H259   H     0.60688   0.83666   0.69873   0.00000  Uiso   1.00
H260   H     0.31915   0.51377   0.95677   0.00000  Uiso   1.00
H261   H     0.76372   0.71646   0.99862   0.00000  Uiso   1.00
H262   H     0.95361   0.66292   0.00027   0.00000  Uiso   1.00
H263   H     0.74159   0.82427   0.94435   0.00000  Uiso   1.00
H264   H     0.60514   0.67115   0.06672   0.00000  Uiso   1.00
H265   H     0.14964   0.58949   0.97767   0.00000  Uiso   1.00
H266   H     0.70255   0.92971   0.85976   0.00000  Uiso   1.00
H267   H     0.41483   0.60681   0.11781   0.00000  Uiso   1.00
O268   O     0.22471   0.50581   0.89482   0.00000  Uiso   1.00
O269   O     0.63814   0.95215   0.74015   0.00000  Uiso   1.00
O270   O     0.26065   0.52852   0.07869   0.00000  Uiso   1.00
N271   N     0.05041   0.52569   0.85431   0.00000  Uiso   1.00
N272   N     0.63243   0.84376   0.74408   0.00000  Uiso   1.00
N273   N     0.36341   0.54189   0.98532   0.00000  Uiso   1.00
N274   N     0.10190   0.57575   0.94097   0.00000  Uiso   1.00
N275   N     0.68392   0.89383   0.83073   0.00000  Uiso   1.00
N276   N     0.41490   0.59196   0.07198   0.00000  Uiso   1.00
C277   C     0.17758   0.86732   0.14637   0.00000  Uiso   1.00
C278   C     0.29290   0.88458   0.12500   0.00000  Uiso   1.00
C279   C     0.36120   0.92697   0.15531   0.00000  Uiso   1.00
C280   C     0.46367   0.93627   0.12827   0.00000  Uiso   1.00
C281   C     0.63777   0.96791   0.10353   0.00000  Uiso   1.00
C282   C     0.17772   0.79692   0.15539   0.00000  Uiso   1.00
C283   C     0.14916   0.76560   0.21124   0.00000  Uiso   1.00
C284   C     0.15466   0.70110   0.20978   0.00000  Uiso   1.00
C285   C     0.14986   0.59663   0.23219   0.00000  Uiso   1.00
C286   C     0.10360   0.88012   0.08890   0.00000  Uiso   1.00
C287   C     0.01268   0.91875   0.08885   0.00000  Uiso   1.00
C288   C     0.95576   0.92428   0.03141   0.00000  Uiso   1.00
C289   C     0.83586   0.94900   0.95060   0.00000  Uiso   1.00
C290   C     0.23812   0.80844   0.04447   0.00000  Uiso   1.00
C291   C     0.32579   0.85260   0.06965   0.00000  Uiso   1.00
C292   C     0.42818   0.86183   0.04256   0.00000  Uiso   1.00
C293   C     0.49662   0.90423   0.07282   0.00000  Uiso   1.00
C294   C     0.21061   0.76493   0.10004   0.00000  Uiso   1.00
C295   C     0.21614   0.70046   0.09850   0.00000  Uiso   1.00
C296   C     0.18761   0.66906   0.15433   0.00000  Uiso   1.00
C297   C     0.13648   0.84814   0.03355   0.00000  Uiso   1.00
C298   C     0.07967   0.85361   0.97610   0.00000  Uiso   1.00
C299   C     0.98870   0.89224   0.97596   0.00000  Uiso   1.00
H300   H     0.15197   0.89222   0.18947   0.00000  Uiso   1.00
H301   H     0.33572   0.95171   0.19815   0.00000  Uiso   1.00
H302   H     0.12371   0.79036   0.25406   0.00000  Uiso   1.00
H303   H     0.98726   0.94349   0.13169   0.00000  Uiso   1.00
H304   H     0.55396   0.00355   0.18337   0.00000  Uiso   1.00
H305   H     0.10688   0.66334   0.30127   0.00000  Uiso   1.00
H306   H     0.81915   0.98623   0.04323   0.00000  Uiso   1.00
H307   H     0.26372   0.78354   0.00138   0.00000  Uiso   1.00
H308   H     0.45361   0.83708   0.99973   0.00000  Uiso   1.00
H309   H     0.24159   0.67573   0.05565   0.00000  Uiso   1.00
H310   H     0.10514   0.82885   0.93328   0.00000  Uiso   1.00
H311   H     0.64964   0.91051   0.02233   0.00000  Uiso   1.00
H312   H     0.20255   0.57029   0.14024   0.00000  Uiso   1.00
H313   H     0.91483   0.89319   0.88219   0.00000  Uiso   1.00
O314   O     0.72471   0.99419   0.10518   0.00000  Uiso   1.00
O315   O     0.13814   0.54785   0.25985   0.00000  Uiso   1.00
O316   O     0.76065   0.97148   0.92131   0.00000  Uiso   1.00
N317   N     0.55041   0.97431   0.14569   0.00000  Uiso   1.00
N318   N     0.13243   0.65624   0.25592   0.00000  Uiso   1.00
N319   N     0.86341   0.95811   0.01468   0.00000  Uiso   1.00
N320   N     0.60190   0.92425   0.05903   0.00000  Uiso   1.00
N321   N     0.18392   0.60617   0.16927   0.00000  Uiso   1.00
N322   N     0.91490   0.90804   0.92802   0.00000  Uiso   1.00
C323   C     0.32242   0.63268   0.64637   0.00000  Uiso   1.00
C324   C     0.20710   0.61542   0.62500   0.00000  Uiso   1.00
C325   C     0.13880   0.57303   0.65531   0.00000  Uiso   1.00
C326   C     0.03633   0.56373   0.62827   0.00000  Uiso   1.00
C327   C     0.86223   0.53209   0.60353   0.00000  Uiso   1.00
C328   C     0.32228   0.70308   0.65539   0.00000  Uiso   1.00
C329   C     0.35084   0.73440   0.71124   0.00000  Uiso   1.00
C330   C     0.34534   0.79890   0.70978   0.00000  Uiso   1.00
C331   C     0.35014   0.90337   0.73219   0.00000  Uiso   1.00
C332   C     0.39640   0.61988   0.58890   0.00000  Uiso   1.00
C333   C     0.48732   0.58125   0.58885   0.00000  Uiso   1.00
C334   C     0.54424   0.57572   0.53141   0.00000  Uiso   1.00
C335   C     0.66414   0.55100   0.45060   0.00000  Uiso   1.00
C336   C     0.26188   0.69156   0.54447   0.00000  Uiso   1.00
C337   C     0.17421   0.64740   0.56965   0.00000  Uiso   1.00
C338   C     0.07182   0.63817   0.54256   0.00000  Uiso   1.00
C339   C     0.00338   0.59577   0.57282   0.00000  Uiso   1.00
C340   C     0.28939   0.73507   0.60004   0.00000  Uiso   1.00
C341   C     0.28386   0.79954   0.59850   0.00000  Uiso   1.00
C342   C     0.31239   0.83094   0.65433   0.00000  Uiso   1.00
C343   C     0.36352   0.65186   0.53355   0.00000  Uiso   1.00
C344   C     0.42033   0.64639   0.47610   0.00000  Uiso   1.00
C345   C     0.51130   0.60776   0.47596   0.00000  Uiso   1.00
H346   H     0.34803   0.60778   0.68947   0.00000  Uiso   1.00
H347   H     0.16428   0.54829   0.69815   0.00000  Uiso   1.00
H348   H     0.37629   0.70964   0.75406   0.00000  Uiso   1.00
H349   H     0.51274   0.55651   0.63169   0.00000  Uiso   1.00
H350   H     0.94604   0.49645   0.68337   0.00000  Uiso   1.00
H351   H     0.39312   0.83666   0.80127   0.00000  Uiso   1.00
H352   H     0.68085   0.51377   0.54323   0.00000  Uiso   1.00
H353   H     0.23628   0.71646   0.50138   0.00000  Uiso   1.00
H354   H     0.04639   0.66292   0.49973   0.00000  Uiso   1.00
H355   H     0.25841   0.82427   0.55565   0.00000  Uiso   1.00
H356   H     0.39486   0.67115   0.43328   0.00000  Uiso   1.00
H357   H     0.85036   0.58949   0.52233   0.00000  Uiso   1.00
H358   H     0.29745   0.92971   0.64024   0.00000  Uiso   1.00
H359   H     0.58517   0.60681   0.38219   0.00000  Uiso   1.00
O360   O     0.77529   0.50581   0.60518   0.00000  Uiso   1.00
O361   O     0.36186   0.95215   0.75985   0.00000  Uiso   1.00
O362   O     0.73935   0.52852   0.42131   0.00000  Uiso   1.00
N363   N     0.94959   0.52569   0.64569   0.00000  Uiso   1.00
N364   N     0.36757   0.84376   0.75592   0.00000  Uiso   1.00
N365   N     0.63659   0.54189   0.51468   0.00000  Uiso   1.00
N366   N     0.89810   0.57575   0.55903   0.00000  Uiso   1.00
N367   N     0.31608   0.89383   0.66927   0.00000  Uiso   1.00
N368   N     0.58510   0.59196   0.42802   0.00000  Uiso   1.00
