data_job_00566
_audit_creation_date              2018-12-19
_audit_creation_method            'Materials Studio'
_symmetry_space_group_name_H-M    'P1'
_symmetry_Int_Tables_number       1
_symmetry_cell_setting            triclinic
loop_
_symmetry_equiv_pos_as_xyz
  x,y,z
_cell_length_a                    20.1773
_cell_length_b                    8.5454
_cell_length_c                    28.8936
_cell_angle_alpha                 90.0000
_cell_angle_beta                  90.0000
_cell_angle_gamma                 90.0000
loop_
_atom_site_label
_atom_site_type_symbol
_atom_site_fract_x
_atom_site_fract_y
_atom_site_fract_z
_atom_site_U_iso_or_equiv
_atom_site_adp_type
_atom_site_occupancy
C1     C     0.45248   0.97722   0.09651   0.00000  Uiso   1.00
C2     C     0.51465   0.89286   0.11317   0.00000  Uiso   1.00
C3     C     0.57911   0.92690   0.09980   0.00000  Uiso   1.00
C4     C     0.62917   0.83618   0.11896   0.00000  Uiso   1.00
C5     C     0.72784   0.72345   0.14004   0.00000  Uiso   1.00
C6     C     0.40771   0.85125   0.07600   0.00000  Uiso   1.00
C7     C     0.38226   0.85034   0.03138   0.00000  Uiso   1.00
C8     C     0.34229   0.72459   0.01925   0.00000  Uiso   1.00
C9     C     0.27490   0.54733   0.98265   0.00000  Uiso   1.00
C10    C     0.41742   0.03563   0.13995   0.00000  Uiso   1.00
C11    C     0.40012   0.18975   0.14910   0.00000  Uiso   1.00
C12    C     0.36831   0.21924   0.19081   0.00000  Uiso   1.00
C13    C     0.31600   0.32826   0.25349   0.00000  Uiso   1.00
C14    C     0.42674   0.75555   0.15432   0.00000  Uiso   1.00
C15    C     0.50067   0.77245   0.14457   0.00000  Uiso   1.00
C16    C     0.55064   0.68166   0.16376   0.00000  Uiso   1.00
C17    C     0.61517   0.71557   0.15042   0.00000  Uiso   1.00
C18    C     0.39373   0.73085   0.10740   0.00000  Uiso   1.00
C19    C     0.35379   0.60509   0.09534   0.00000  Uiso   1.00
C20    C     0.32828   0.60398   0.05071   0.00000  Uiso   1.00
C21    C     0.40345   0.91524   0.17135   0.00000  Uiso   1.00
C22    C     0.37165   0.94450   0.21306   0.00000  Uiso   1.00
C23    C     0.35431   0.09863   0.22226   0.00000  Uiso   1.00
H24    H     0.46336   0.07095   0.07206   0.00000  Uiso   1.00
H25    H     0.58991   0.02008   0.07550   0.00000  Uiso   1.00
H26    H     0.39308   0.94353   0.00709   0.00000  Uiso   1.00
H27    H     0.41095   0.28289   0.12479   0.00000  Uiso   1.00
H28    H     0.72406   0.91055   0.09314   0.00000  Uiso   1.00
H29    H     0.30902   0.74917   0.94891   0.00000  Uiso   1.00
H30    H     0.34668   0.46477   0.19710   0.00000  Uiso   1.00
H31    H     0.41585   0.66181   0.17876   0.00000  Uiso   1.00
H32    H     0.53981   0.58849   0.18806   0.00000  Uiso   1.00
H33    H     0.34298   0.51194   0.11965   0.00000  Uiso   1.00
H34    H     0.36084   0.85130   0.23735   0.00000  Uiso   1.00
H35    H     0.68339   0.56025   0.18450   0.00000  Uiso   1.00
H36    H     0.26834   0.39887   0.04027   0.00000  Uiso   1.00
H37    H     0.30601   0.11447   0.28845   0.00000  Uiso   1.00
O38    O     0.78612   0.69451   0.14300   0.00000  Uiso   1.00
O39    O     0.24159   0.48281   0.95377   0.00000  Uiso   1.00
O40    O     0.29101   0.42166   0.27939   0.00000  Uiso   1.00
N41    N     0.69748   0.83819   0.11337   0.00000  Uiso   1.00
N42    N     0.30944   0.68729   0.97852   0.00000  Uiso   1.00
N43    N     0.34464   0.35632   0.21055   0.00000  Uiso   1.00
N44    N     0.67559   0.64970   0.16253   0.00000  Uiso   1.00
N45    N     0.28756   0.49880   0.02768   0.00000  Uiso   1.00
N46    N     0.32276   0.16783   0.25971   0.00000  Uiso   1.00
C47    C     0.04752   0.52278   0.59651   0.00000  Uiso   1.00
C48    C     0.98535   0.60714   0.61317   0.00000  Uiso   1.00
C49    C     0.92089   0.57310   0.59980   0.00000  Uiso   1.00
C50    C     0.87083   0.66382   0.61896   0.00000  Uiso   1.00
C51    C     0.77216   0.77655   0.64004   0.00000  Uiso   1.00
C52    C     0.09229   0.64875   0.57600   0.00000  Uiso   1.00
C53    C     0.11774   0.64966   0.53138   0.00000  Uiso   1.00
C54    C     0.15771   0.77541   0.51925   0.00000  Uiso   1.00
C55    C     0.22510   0.95267   0.48265   0.00000  Uiso   1.00
C56    C     0.08258   0.46437   0.63995   0.00000  Uiso   1.00
C57    C     0.09988   0.31025   0.64910   0.00000  Uiso   1.00
C58    C     0.13169   0.28076   0.69081   0.00000  Uiso   1.00
C59    C     0.18400   0.17174   0.75349   0.00000  Uiso   1.00
C60    C     0.07326   0.74445   0.65432   0.00000  Uiso   1.00
C61    C     0.99933   0.72755   0.64457   0.00000  Uiso   1.00
C62    C     0.94936   0.81834   0.66376   0.00000  Uiso   1.00
C63    C     0.88483   0.78443   0.65042   0.00000  Uiso   1.00
C64    C     0.10627   0.76915   0.60740   0.00000  Uiso   1.00
C65    C     0.14621   0.89491   0.59534   0.00000  Uiso   1.00
C66    C     0.17172   0.89602   0.55071   0.00000  Uiso   1.00
C67    C     0.09655   0.58476   0.67135   0.00000  Uiso   1.00
C68    C     0.12835   0.55550   0.71306   0.00000  Uiso   1.00
C69    C     0.14569   0.40137   0.72226   0.00000  Uiso   1.00
H70    H     0.03664   0.42905   0.57206   0.00000  Uiso   1.00
H71    H     0.91009   0.47992   0.57550   0.00000  Uiso   1.00
H72    H     0.10692   0.55647   0.50709   0.00000  Uiso   1.00
H73    H     0.08905   0.21711   0.62479   0.00000  Uiso   1.00
H74    H     0.77594   0.58945   0.59314   0.00000  Uiso   1.00
H75    H     0.19098   0.75083   0.44891   0.00000  Uiso   1.00
H76    H     0.15332   0.03523   0.69710   0.00000  Uiso   1.00
H77    H     0.08415   0.83819   0.67876   0.00000  Uiso   1.00
H78    H     0.96019   0.91151   0.68806   0.00000  Uiso   1.00
H79    H     0.15702   0.98806   0.61965   0.00000  Uiso   1.00
H80    H     0.13916   0.64870   0.73735   0.00000  Uiso   1.00
H81    H     0.81661   0.93975   0.68450   0.00000  Uiso   1.00
H82    H     0.23166   0.10113   0.54027   0.00000  Uiso   1.00
H83    H     0.19399   0.38553   0.78845   0.00000  Uiso   1.00
O84    O     0.71388   0.80549   0.64300   0.00000  Uiso   1.00
O85    O     0.25841   0.01719   0.45377   0.00000  Uiso   1.00
O86    O     0.20899   0.07834   0.77939   0.00000  Uiso   1.00
N87    N     0.80252   0.66181   0.61337   0.00000  Uiso   1.00
N88    N     0.19056   0.81271   0.47852   0.00000  Uiso   1.00
N89    N     0.15536   0.14368   0.71055   0.00000  Uiso   1.00
N90    N     0.82441   0.85030   0.66253   0.00000  Uiso   1.00
N91    N     0.21244   0.00120   0.52768   0.00000  Uiso   1.00
N92    N     0.17724   0.33217   0.75971   0.00000  Uiso   1.00
C93    C     0.54752   0.97722   0.40349   0.00000  Uiso   1.00
C94    C     0.48535   0.89286   0.38683   0.00000  Uiso   1.00
C95    C     0.42089   0.92690   0.40020   0.00000  Uiso   1.00
C96    C     0.37083   0.83618   0.38104   0.00000  Uiso   1.00
C97    C     0.27216   0.72345   0.35996   0.00000  Uiso   1.00
C98    C     0.59229   0.85125   0.42400   0.00000  Uiso   1.00
C99    C     0.61774   0.85034   0.46862   0.00000  Uiso   1.00
C100   C     0.65771   0.72459   0.48075   0.00000  Uiso   1.00
C101   C     0.72510   0.54733   0.51735   0.00000  Uiso   1.00
C102   C     0.58258   0.03563   0.36005   0.00000  Uiso   1.00
C103   C     0.59988   0.18975   0.35090   0.00000  Uiso   1.00
C104   C     0.63169   0.21924   0.30919   0.00000  Uiso   1.00
C105   C     0.68400   0.32826   0.24651   0.00000  Uiso   1.00
C106   C     0.57326   0.75555   0.34568   0.00000  Uiso   1.00
C107   C     0.49933   0.77245   0.35543   0.00000  Uiso   1.00
C108   C     0.44936   0.68166   0.33624   0.00000  Uiso   1.00
C109   C     0.38483   0.71557   0.34958   0.00000  Uiso   1.00
C110   C     0.60627   0.73085   0.39260   0.00000  Uiso   1.00
C111   C     0.64621   0.60509   0.40466   0.00000  Uiso   1.00
C112   C     0.67172   0.60398   0.44929   0.00000  Uiso   1.00
C113   C     0.59655   0.91524   0.32865   0.00000  Uiso   1.00
C114   C     0.62835   0.94450   0.28694   0.00000  Uiso   1.00
C115   C     0.64569   0.09863   0.27774   0.00000  Uiso   1.00
H116   H     0.53664   0.07095   0.42794   0.00000  Uiso   1.00
H117   H     0.41009   0.02008   0.42450   0.00000  Uiso   1.00
H118   H     0.60692   0.94353   0.49291   0.00000  Uiso   1.00
H119   H     0.58905   0.28289   0.37521   0.00000  Uiso   1.00
H120   H     0.27594   0.91055   0.40686   0.00000  Uiso   1.00
H121   H     0.69098   0.74917   0.55109   0.00000  Uiso   1.00
H122   H     0.65332   0.46477   0.30290   0.00000  Uiso   1.00
H123   H     0.58415   0.66181   0.32124   0.00000  Uiso   1.00
H124   H     0.46019   0.58849   0.31194   0.00000  Uiso   1.00
H125   H     0.65702   0.51194   0.38035   0.00000  Uiso   1.00
H126   H     0.63916   0.85130   0.26265   0.00000  Uiso   1.00
H127   H     0.31661   0.56025   0.31550   0.00000  Uiso   1.00
H128   H     0.73166   0.39887   0.45973   0.00000  Uiso   1.00
H129   H     0.69399   0.11447   0.21155   0.00000  Uiso   1.00
O130   O     0.21388   0.69451   0.35700   0.00000  Uiso   1.00
O131   O     0.75841   0.48281   0.54623   0.00000  Uiso   1.00
O132   O     0.70899   0.42166   0.22061   0.00000  Uiso   1.00
N133   N     0.30252   0.83819   0.38663   0.00000  Uiso   1.00
N134   N     0.69056   0.68729   0.52148   0.00000  Uiso   1.00
N135   N     0.65536   0.35632   0.28945   0.00000  Uiso   1.00
N136   N     0.32441   0.64970   0.33747   0.00000  Uiso   1.00
N137   N     0.71244   0.49880   0.47232   0.00000  Uiso   1.00
N138   N     0.67724   0.16783   0.24029   0.00000  Uiso   1.00
C139   C     0.95248   0.52278   0.90349   0.00000  Uiso   1.00
C140   C     0.01465   0.60714   0.88683   0.00000  Uiso   1.00
C141   C     0.07911   0.57310   0.90020   0.00000  Uiso   1.00
C142   C     0.12917   0.66382   0.88104   0.00000  Uiso   1.00
C143   C     0.22784   0.77655   0.85996   0.00000  Uiso   1.00
C144   C     0.90771   0.64875   0.92400   0.00000  Uiso   1.00
C145   C     0.88226   0.64966   0.96862   0.00000  Uiso   1.00
C146   C     0.84229   0.77541   0.98075   0.00000  Uiso   1.00
C147   C     0.77490   0.95267   0.01735   0.00000  Uiso   1.00
C148   C     0.91742   0.46437   0.86005   0.00000  Uiso   1.00
C149   C     0.90012   0.31025   0.85090   0.00000  Uiso   1.00
C150   C     0.86831   0.28076   0.80919   0.00000  Uiso   1.00
C151   C     0.81600   0.17174   0.74651   0.00000  Uiso   1.00
C152   C     0.92674   0.74445   0.84568   0.00000  Uiso   1.00
C153   C     0.00067   0.72755   0.85543   0.00000  Uiso   1.00
C154   C     0.05064   0.81834   0.83624   0.00000  Uiso   1.00
C155   C     0.11517   0.78443   0.84958   0.00000  Uiso   1.00
C156   C     0.89373   0.76915   0.89260   0.00000  Uiso   1.00
C157   C     0.85379   0.89491   0.90466   0.00000  Uiso   1.00
C158   C     0.82828   0.89602   0.94929   0.00000  Uiso   1.00
C159   C     0.90345   0.58476   0.82865   0.00000  Uiso   1.00
C160   C     0.87165   0.55550   0.78694   0.00000  Uiso   1.00
C161   C     0.85431   0.40137   0.77774   0.00000  Uiso   1.00
H162   H     0.96336   0.42905   0.92794   0.00000  Uiso   1.00
H163   H     0.08991   0.47992   0.92450   0.00000  Uiso   1.00
H164   H     0.89308   0.55647   0.99291   0.00000  Uiso   1.00
H165   H     0.91095   0.21711   0.87521   0.00000  Uiso   1.00
H166   H     0.22406   0.58945   0.90686   0.00000  Uiso   1.00
H167   H     0.80902   0.75083   0.05109   0.00000  Uiso   1.00
H168   H     0.84668   0.03523   0.80290   0.00000  Uiso   1.00
H169   H     0.91585   0.83819   0.82124   0.00000  Uiso   1.00
H170   H     0.03981   0.91151   0.81194   0.00000  Uiso   1.00
H171   H     0.84298   0.98806   0.88035   0.00000  Uiso   1.00
H172   H     0.86084   0.64870   0.76265   0.00000  Uiso   1.00
H173   H     0.18339   0.93975   0.81550   0.00000  Uiso   1.00
H174   H     0.76834   0.10113   0.95973   0.00000  Uiso   1.00
H175   H     0.80601   0.38553   0.71155   0.00000  Uiso   1.00
O176   O     0.28612   0.80549   0.85700   0.00000  Uiso   1.00
O177   O     0.74159   0.01719   0.04623   0.00000  Uiso   1.00
O178   O     0.79101   0.07834   0.72061   0.00000  Uiso   1.00
N179   N     0.19748   0.66181   0.88663   0.00000  Uiso   1.00
N180   N     0.80944   0.81271   0.02148   0.00000  Uiso   1.00
N181   N     0.84464   0.14368   0.78945   0.00000  Uiso   1.00
N182   N     0.17559   0.85030   0.83747   0.00000  Uiso   1.00
N183   N     0.78756   0.00120   0.97232   0.00000  Uiso   1.00
N184   N     0.82276   0.33217   0.74029   0.00000  Uiso   1.00
C185   C     0.54752   0.02278   0.90349   0.00000  Uiso   1.00
C186   C     0.48535   0.10714   0.88683   0.00000  Uiso   1.00
C187   C     0.42089   0.07310   0.90020   0.00000  Uiso   1.00
C188   C     0.37083   0.16382   0.88104   0.00000  Uiso   1.00
C189   C     0.27216   0.27655   0.85996   0.00000  Uiso   1.00
C190   C     0.59229   0.14875   0.92400   0.00000  Uiso   1.00
C191   C     0.61774   0.14966   0.96862   0.00000  Uiso   1.00
C192   C     0.65771   0.27541   0.98075   0.00000  Uiso   1.00
C193   C     0.72510   0.45267   0.01735   0.00000  Uiso   1.00
C194   C     0.58258   0.96437   0.86005   0.00000  Uiso   1.00
C195   C     0.59988   0.81025   0.85090   0.00000  Uiso   1.00
C196   C     0.63169   0.78076   0.80919   0.00000  Uiso   1.00
C197   C     0.68400   0.67174   0.74651   0.00000  Uiso   1.00
C198   C     0.57326   0.24445   0.84568   0.00000  Uiso   1.00
C199   C     0.49933   0.22755   0.85543   0.00000  Uiso   1.00
C200   C     0.44936   0.31834   0.83624   0.00000  Uiso   1.00
C201   C     0.38483   0.28443   0.84958   0.00000  Uiso   1.00
C202   C     0.60627   0.26915   0.89260   0.00000  Uiso   1.00
C203   C     0.64621   0.39491   0.90466   0.00000  Uiso   1.00
C204   C     0.67172   0.39602   0.94929   0.00000  Uiso   1.00
C205   C     0.59655   0.08476   0.82865   0.00000  Uiso   1.00
C206   C     0.62835   0.05550   0.78694   0.00000  Uiso   1.00
C207   C     0.64569   0.90137   0.77774   0.00000  Uiso   1.00
H208   H     0.53664   0.92905   0.92794   0.00000  Uiso   1.00
H209   H     0.41009   0.97992   0.92450   0.00000  Uiso   1.00
H210   H     0.60692   0.05647   0.99291   0.00000  Uiso   1.00
H211   H     0.58905   0.71711   0.87521   0.00000  Uiso   1.00
H212   H     0.27594   0.08945   0.90686   0.00000  Uiso   1.00
H213   H     0.69098   0.25083   0.05109   0.00000  Uiso   1.00
H214   H     0.65332   0.53523   0.80290   0.00000  Uiso   1.00
H215   H     0.58415   0.33819   0.82124   0.00000  Uiso   1.00
H216   H     0.46019   0.41151   0.81194   0.00000  Uiso   1.00
H217   H     0.65702   0.48806   0.88035   0.00000  Uiso   1.00
H218   H     0.63916   0.14870   0.76265   0.00000  Uiso   1.00
H219   H     0.31661   0.43975   0.81550   0.00000  Uiso   1.00
H220   H     0.73166   0.60113   0.95973   0.00000  Uiso   1.00
H221   H     0.69399   0.88553   0.71155   0.00000  Uiso   1.00
O222   O     0.21388   0.30549   0.85700   0.00000  Uiso   1.00
O223   O     0.75841   0.51719   0.04623   0.00000  Uiso   1.00
O224   O     0.70899   0.57834   0.72061   0.00000  Uiso   1.00
N225   N     0.30252   0.16181   0.88663   0.00000  Uiso   1.00
N226   N     0.69056   0.31271   0.02148   0.00000  Uiso   1.00
N227   N     0.65536   0.64368   0.78945   0.00000  Uiso   1.00
N228   N     0.32441   0.35030   0.83747   0.00000  Uiso   1.00
N229   N     0.71244   0.50120   0.97232   0.00000  Uiso   1.00
N230   N     0.67724   0.83217   0.74029   0.00000  Uiso   1.00
C231   C     0.95248   0.47722   0.40349   0.00000  Uiso   1.00
C232   C     0.01465   0.39286   0.38683   0.00000  Uiso   1.00
C233   C     0.07911   0.42690   0.40020   0.00000  Uiso   1.00
C234   C     0.12917   0.33618   0.38104   0.00000  Uiso   1.00
C235   C     0.22784   0.22345   0.35996   0.00000  Uiso   1.00
C236   C     0.90771   0.35125   0.42400   0.00000  Uiso   1.00
C237   C     0.88226   0.35034   0.46862   0.00000  Uiso   1.00
C238   C     0.84229   0.22459   0.48075   0.00000  Uiso   1.00
C239   C     0.77490   0.04733   0.51735   0.00000  Uiso   1.00
C240   C     0.91742   0.53563   0.36005   0.00000  Uiso   1.00
C241   C     0.90012   0.68975   0.35090   0.00000  Uiso   1.00
C242   C     0.86831   0.71924   0.30919   0.00000  Uiso   1.00
C243   C     0.81600   0.82826   0.24651   0.00000  Uiso   1.00
C244   C     0.92674   0.25555   0.34568   0.00000  Uiso   1.00
C245   C     0.00067   0.27245   0.35543   0.00000  Uiso   1.00
C246   C     0.05064   0.18166   0.33624   0.00000  Uiso   1.00
C247   C     0.11517   0.21557   0.34958   0.00000  Uiso   1.00
C248   C     0.89373   0.23085   0.39260   0.00000  Uiso   1.00
C249   C     0.85379   0.10509   0.40466   0.00000  Uiso   1.00
C250   C     0.82828   0.10398   0.44929   0.00000  Uiso   1.00
C251   C     0.90345   0.41524   0.32865   0.00000  Uiso   1.00
C252   C     0.87165   0.44450   0.28694   0.00000  Uiso   1.00
C253   C     0.85431   0.59863   0.27774   0.00000  Uiso   1.00
H254   H     0.96336   0.57095   0.42794   0.00000  Uiso   1.00
H255   H     0.08991   0.52008   0.42450   0.00000  Uiso   1.00
H256   H     0.89308   0.44353   0.49291   0.00000  Uiso   1.00
H257   H     0.91095   0.78289   0.37521   0.00000  Uiso   1.00
H258   H     0.22406   0.41055   0.40686   0.00000  Uiso   1.00
H259   H     0.80902   0.24917   0.55109   0.00000  Uiso   1.00
H260   H     0.84668   0.96477   0.30290   0.00000  Uiso   1.00
H261   H     0.91585   0.16181   0.32124   0.00000  Uiso   1.00
H262   H     0.03981   0.08849   0.31194   0.00000  Uiso   1.00
H263   H     0.84298   0.01194   0.38035   0.00000  Uiso   1.00
H264   H     0.86084   0.35130   0.26265   0.00000  Uiso   1.00
H265   H     0.18339   0.06025   0.31550   0.00000  Uiso   1.00
H266   H     0.76834   0.89887   0.45973   0.00000  Uiso   1.00
H267   H     0.80601   0.61447   0.21155   0.00000  Uiso   1.00
O268   O     0.28612   0.19451   0.35700   0.00000  Uiso   1.00
O269   O     0.74159   0.98281   0.54623   0.00000  Uiso   1.00
O270   O     0.79101   0.92166   0.22061   0.00000  Uiso   1.00
N271   N     0.19748   0.33819   0.38663   0.00000  Uiso   1.00
N272   N     0.80944   0.18729   0.52148   0.00000  Uiso   1.00
N273   N     0.84464   0.85632   0.28945   0.00000  Uiso   1.00
N274   N     0.17559   0.14970   0.33747   0.00000  Uiso   1.00
N275   N     0.78756   0.99880   0.47232   0.00000  Uiso   1.00
N276   N     0.82276   0.66783   0.24029   0.00000  Uiso   1.00
C277   C     0.45248   0.02278   0.59651   0.00000  Uiso   1.00
C278   C     0.51465   0.10714   0.61317   0.00000  Uiso   1.00
C279   C     0.57911   0.07310   0.59980   0.00000  Uiso   1.00
C280   C     0.62917   0.16382   0.61896   0.00000  Uiso   1.00
C281   C     0.72784   0.27655   0.64004   0.00000  Uiso   1.00
C282   C     0.40771   0.14875   0.57600   0.00000  Uiso   1.00
C283   C     0.38226   0.14966   0.53138   0.00000  Uiso   1.00
C284   C     0.34229   0.27541   0.51925   0.00000  Uiso   1.00
C285   C     0.27490   0.45267   0.48265   0.00000  Uiso   1.00
C286   C     0.41742   0.96437   0.63995   0.00000  Uiso   1.00
C287   C     0.40012   0.81025   0.64910   0.00000  Uiso   1.00
C288   C     0.36831   0.78076   0.69081   0.00000  Uiso   1.00
C289   C     0.31600   0.67174   0.75349   0.00000  Uiso   1.00
C290   C     0.42674   0.24445   0.65432   0.00000  Uiso   1.00
C291   C     0.50067   0.22755   0.64457   0.00000  Uiso   1.00
C292   C     0.55064   0.31834   0.66376   0.00000  Uiso   1.00
C293   C     0.61517   0.28443   0.65042   0.00000  Uiso   1.00
C294   C     0.39373   0.26915   0.60740   0.00000  Uiso   1.00
C295   C     0.35379   0.39491   0.59534   0.00000  Uiso   1.00
C296   C     0.32828   0.39602   0.55071   0.00000  Uiso   1.00
C297   C     0.40345   0.08476   0.67135   0.00000  Uiso   1.00
C298   C     0.37165   0.05550   0.71306   0.00000  Uiso   1.00
C299   C     0.35431   0.90137   0.72226   0.00000  Uiso   1.00
H300   H     0.46336   0.92905   0.57206   0.00000  Uiso   1.00
H301   H     0.58991   0.97992   0.57550   0.00000  Uiso   1.00
H302   H     0.39308   0.05647   0.50709   0.00000  Uiso   1.00
H303   H     0.41095   0.71711   0.62479   0.00000  Uiso   1.00
H304   H     0.72406   0.08945   0.59314   0.00000  Uiso   1.00
H305   H     0.30902   0.25083   0.44891   0.00000  Uiso   1.00
H306   H     0.34668   0.53523   0.69710   0.00000  Uiso   1.00
H307   H     0.41585   0.33819   0.67876   0.00000  Uiso   1.00
H308   H     0.53981   0.41151   0.68806   0.00000  Uiso   1.00
H309   H     0.34298   0.48806   0.61965   0.00000  Uiso   1.00
H310   H     0.36084   0.14870   0.73735   0.00000  Uiso   1.00
H311   H     0.68339   0.43975   0.68450   0.00000  Uiso   1.00
H312   H     0.26834   0.60113   0.54027   0.00000  Uiso   1.00
H313   H     0.30601   0.88553   0.78845   0.00000  Uiso   1.00
O314   O     0.78612   0.30549   0.64300   0.00000  Uiso   1.00
O315   O     0.24159   0.51719   0.45377   0.00000  Uiso   1.00
O316   O     0.29101   0.57834   0.77939   0.00000  Uiso   1.00
N317   N     0.69748   0.16181   0.61337   0.00000  Uiso   1.00
N318   N     0.30944   0.31271   0.47852   0.00000  Uiso   1.00
N319   N     0.34464   0.64368   0.71055   0.00000  Uiso   1.00
N320   N     0.67559   0.35030   0.66253   0.00000  Uiso   1.00
N321   N     0.28756   0.50120   0.52768   0.00000  Uiso   1.00
N322   N     0.32276   0.83217   0.75971   0.00000  Uiso   1.00
C323   C     0.04752   0.47722   0.09651   0.00000  Uiso   1.00
C324   C     0.98535   0.39286   0.11317   0.00000  Uiso   1.00
C325   C     0.92089   0.42690   0.09980   0.00000  Uiso   1.00
C326   C     0.87083   0.33618   0.11896   0.00000  Uiso   1.00
C327   C     0.77216   0.22345   0.14004   0.00000  Uiso   1.00
C328   C     0.09229   0.35125   0.07600   0.00000  Uiso   1.00
C329   C     0.11774   0.35034   0.03138   0.00000  Uiso   1.00
C330   C     0.15771   0.22459   0.01925   0.00000  Uiso   1.00
C331   C     0.22510   0.04733   0.98265   0.00000  Uiso   1.00
C332   C     0.08258   0.53563   0.13995   0.00000  Uiso   1.00
C333   C     0.09988   0.68975   0.14910   0.00000  Uiso   1.00
C334   C     0.13169   0.71924   0.19081   0.00000  Uiso   1.00
C335   C     0.18400   0.82826   0.25349   0.00000  Uiso   1.00
C336   C     0.07326   0.25555   0.15432   0.00000  Uiso   1.00
C337   C     0.99933   0.27245   0.14457   0.00000  Uiso   1.00
C338   C     0.94936   0.18166   0.16376   0.00000  Uiso   1.00
C339   C     0.88483   0.21557   0.15042   0.00000  Uiso   1.00
C340   C     0.10627   0.23085   0.10740   0.00000  Uiso   1.00
C341   C     0.14621   0.10509   0.09534   0.00000  Uiso   1.00
C342   C     0.17172   0.10398   0.05071   0.00000  Uiso   1.00
C343   C     0.09655   0.41524   0.17135   0.00000  Uiso   1.00
C344   C     0.12835   0.44450   0.21306   0.00000  Uiso   1.00
C345   C     0.14569   0.59863   0.22226   0.00000  Uiso   1.00
H346   H     0.03664   0.57095   0.07206   0.00000  Uiso   1.00
H347   H     0.91009   0.52008   0.07550   0.00000  Uiso   1.00
H348   H     0.10692   0.44353   0.00709   0.00000  Uiso   1.00
H349   H     0.08905   0.78289   0.12479   0.00000  Uiso   1.00
H350   H     0.77594   0.41055   0.09314   0.00000  Uiso   1.00
H351   H     0.19098   0.24917   0.94891   0.00000  Uiso   1.00
H352   H     0.15332   0.96477   0.19710   0.00000  Uiso   1.00
H353   H     0.08415   0.16181   0.17876   0.00000  Uiso   1.00
H354   H     0.96019   0.08849   0.18806   0.00000  Uiso   1.00
H355   H     0.15702   0.01194   0.11965   0.00000  Uiso   1.00
H356   H     0.13916   0.35130   0.23735   0.00000  Uiso   1.00
H357   H     0.81661   0.06025   0.18450   0.00000  Uiso   1.00
H358   H     0.23166   0.89887   0.04027   0.00000  Uiso   1.00
H359   H     0.19399   0.61447   0.28845   0.00000  Uiso   1.00
O360   O     0.71388   0.19451   0.14300   0.00000  Uiso   1.00
O361   O     0.25841   0.98281   0.95377   0.00000  Uiso   1.00
O362   O     0.20899   0.92166   0.27939   0.00000  Uiso   1.00
N363   N     0.80252   0.33819   0.11337   0.00000  Uiso   1.00
N364   N     0.19056   0.18729   0.97852   0.00000  Uiso   1.00
N365   N     0.15536   0.85632   0.21055   0.00000  Uiso   1.00
N366   N     0.82441   0.14970   0.16253   0.00000  Uiso   1.00
N367   N     0.21244   0.99880   0.02768   0.00000  Uiso   1.00
N368   N     0.17724   0.66783   0.25971   0.00000  Uiso   1.00
