data_job_05962
_audit_creation_date              2018-12-19
_audit_creation_method            'Materials Studio'
_symmetry_space_group_name_H-M    'P1'
_symmetry_Int_Tables_number       1
_symmetry_cell_setting            triclinic
loop_
_symmetry_equiv_pos_as_xyz
  x,y,z
_cell_length_a                    7.5523
_cell_length_b                    23.4137
_cell_length_c                    23.9938
_cell_angle_alpha                 118.2170
_cell_angle_beta                  83.7003
_cell_angle_gamma                 88.5130
loop_
_atom_site_label
_atom_site_type_symbol
_atom_site_fract_x
_atom_site_fract_y
_atom_site_fract_z
_atom_site_U_iso_or_equiv
_atom_site_adp_type
_atom_site_occupancy
C1     C     0.63631   0.72254   0.66630   0.00000  Uiso   1.00
C2     C     0.55401   0.74754   0.62579   0.00000  Uiso   1.00
C3     C     0.64349   0.77679   0.59372   0.00000  Uiso   1.00
C4     C     0.54445   0.79631   0.55926   0.00000  Uiso   1.00
C5     C     0.44431   0.83659   0.49673   0.00000  Uiso   1.00
C6     C     0.52443   0.75718   0.73210   0.00000  Uiso   1.00
C7     C     0.58906   0.79452   0.78941   0.00000  Uiso   1.00
C8     C     0.46511   0.82214   0.84444   0.00000  Uiso   1.00
C9     C     0.31907   0.87735   0.94697   0.00000  Uiso   1.00
C10    C     0.60091   0.65102   0.63814   0.00000  Uiso   1.00
C11    C     0.72982   0.59909   0.61647   0.00000  Uiso   1.00
C12    C     0.67026   0.53734   0.59241   0.00000  Uiso   1.00
C13    C     0.64296   0.42771   0.54905   0.00000  Uiso   1.00
C14    C     0.30129   0.70520   0.66212   0.00000  Uiso   1.00
C15    C     0.37204   0.73812   0.62352   0.00000  Uiso   1.00
C16    C     0.27283   0.75760   0.58910   0.00000  Uiso   1.00
C17    C     0.36215   0.78687   0.55698   0.00000  Uiso   1.00
C18    C     0.34247   0.74776   0.72983   0.00000  Uiso   1.00
C19    C     0.21839   0.77533   0.78479   0.00000  Uiso   1.00
C20    C     0.28281   0.81271   0.84217   0.00000  Uiso   1.00
C21    C     0.41894   0.64160   0.63587   0.00000  Uiso   1.00
C22    C     0.35916   0.57991   0.61184   0.00000  Uiso   1.00
C23    C     0.48796   0.52790   0.59014   0.00000  Uiso   1.00
H24    H     0.77798   0.72987   0.66807   0.00000  Uiso   1.00
H25    H     0.78431   0.78408   0.59550   0.00000  Uiso   1.00
H26    H     0.72988   0.80180   0.79116   0.00000  Uiso   1.00
H27    H     0.87063   0.60640   0.61824   0.00000  Uiso   1.00
H28    H     0.71107   0.84003   0.51405   0.00000  Uiso   1.00
H29    H     0.59631   0.87738   0.92662   0.00000  Uiso   1.00
H30    H     0.89310   0.46535   0.56198   0.00000  Uiso   1.00
H31    H     0.15961   0.69786   0.66035   0.00000  Uiso   1.00
H32    H     0.13201   0.75031   0.58735   0.00000  Uiso   1.00
H33    H     0.07759   0.76803   0.78302   0.00000  Uiso   1.00
H34    H     0.21833   0.57264   0.61009   0.00000  Uiso   1.00
H35    H     0.18164   0.81263   0.50744   0.00000  Uiso   1.00
H36    H     0.06689   0.84997   0.92001   0.00000  Uiso   1.00
H37    H     0.36367   0.43795   0.55537   0.00000  Uiso   1.00
O38    O     0.43934   0.86143   0.46288   0.00000  Uiso   1.00
O39    O     0.28880   0.91041   0.00415   0.00000  Uiso   1.00
O40    O     0.67817   0.36985   0.52576   0.00000  Uiso   1.00
N41    N     0.59026   0.82637   0.52250   0.00000  Uiso   1.00
N42    N     0.48297   0.86130   0.90823   0.00000  Uiso   1.00
N43    N     0.76044   0.47609   0.56734   0.00000  Uiso   1.00
N44    N     0.30538   0.81163   0.51894   0.00000  Uiso   1.00
N45    N     0.19809   0.84655   0.90467   0.00000  Uiso   1.00
N46    N     0.47556   0.46134   0.56378   0.00000  Uiso   1.00
C47    C     0.30425   0.33192   0.05010   0.00000  Uiso   1.00
C48    C     0.18352   0.36815   0.11401   0.00000  Uiso   1.00
C49    C     0.24065   0.40304   0.17320   0.00000  Uiso   1.00
C50    C     0.10928   0.43269   0.22598   0.00000  Uiso   1.00
C51    C     0.94949   0.48968   0.32617   0.00000  Uiso   1.00
C52    C     0.25571   0.26171   0.02009   0.00000  Uiso   1.00
C53    C     0.37355   0.20711   0.00030   0.00000  Uiso   1.00
C54    C     0.30294   0.14716   0.97402   0.00000  Uiso   1.00
C55    C     0.25525   0.03890   0.92835   0.00000  Uiso   1.00
C56    C     0.24400   0.35949   0.00832   0.00000  Uiso   1.00
C57    C     0.35200   0.38708   0.97861   0.00000  Uiso   1.00
C58    C     0.27153   0.40944   0.94240   0.00000  Uiso   1.00
C59    C     0.20567   0.45299   0.87845   0.00000  Uiso   1.00
C60    C     0.96932   0.32255   0.03860   0.00000  Uiso   1.00
C61    C     0.00160   0.36305   0.10776   0.00000  Uiso   1.00
C62    C     0.87010   0.39266   0.16047   0.00000  Uiso   1.00
C63    C     0.92703   0.42759   0.21972   0.00000  Uiso   1.00
C64    C     0.07380   0.25661   0.01384   0.00000  Uiso   1.00
C65    C     0.00299   0.19673   0.98757   0.00000  Uiso   1.00
C66    C     0.12069   0.14206   0.96776   0.00000  Uiso   1.00
C67    C     0.06208   0.35439   0.00207   0.00000  Uiso   1.00
C68    C     0.98144   0.37671   0.96589   0.00000  Uiso   1.00
C69    C     0.08929   0.40434   0.93614   0.00000  Uiso   1.00
H70    H     0.44588   0.33588   0.05496   0.00000  Uiso   1.00
H71    H     0.38145   0.40696   0.17801   0.00000  Uiso   1.00
H72    H     0.51432   0.21106   0.00514   0.00000  Uiso   1.00
H73    H     0.49277   0.39101   0.98346   0.00000  Uiso   1.00
H74    H     0.22980   0.48350   0.31168   0.00000  Uiso   1.00
H75    H     0.50998   0.07043   0.94715   0.00000  Uiso   1.00
H76    H     0.46453   0.44989   0.90142   0.00000  Uiso   1.00
H77    H     0.82769   0.31858   0.03373   0.00000  Uiso   1.00
H78    H     0.72933   0.38871   0.15562   0.00000  Uiso   1.00
H79    H     0.86221   0.19281   0.98274   0.00000  Uiso   1.00
H80    H     0.84066   0.37276   0.96106   0.00000  Uiso   1.00
H81    H     0.70051   0.46868   0.29351   0.00000  Uiso   1.00
H82    H     0.98070   0.05562   0.92897   0.00000  Uiso   1.00
H83    H     0.93525   0.43507   0.88325   0.00000  Uiso   1.00
O84    O     0.91161   0.52252   0.38316   0.00000  Uiso   1.00
O85    O     0.27921   0.98059   0.90490   0.00000  Uiso   1.00
O86    O     0.21958   0.47843   0.84491   0.00000  Uiso   1.00
N87    N     0.11873   0.47040   0.29068   0.00000  Uiso   1.00
N88    N     0.38068   0.08421   0.94987   0.00000  Uiso   1.00
N89    N     0.33820   0.43895   0.90711   0.00000  Uiso   1.00
N90    N     0.83392   0.46243   0.28090   0.00000  Uiso   1.00
N91    N     0.09587   0.07624   0.94009   0.00000  Uiso   1.00
N92    N     0.05340   0.43098   0.89733   0.00000  Uiso   1.00
C93    C     0.34452   0.94801   0.28465   0.00000  Uiso   1.00
C94    C     0.28539   0.87928   0.25805   0.00000  Uiso   1.00
C95    C     0.39767   0.82256   0.23409   0.00000  Uiso   1.00
C96    C     0.31752   0.76449   0.21198   0.00000  Uiso   1.00
C97    C     0.25396   0.65794   0.17037   0.00000  Uiso   1.00
C98    C     0.26948   0.97685   0.24598   0.00000  Uiso   1.00
C99    C     0.36839   0.00217   0.21189   0.00000  Uiso   1.00
C100   C     0.27484   0.02624   0.17963   0.00000  Uiso   1.00
C101   C     0.18657   0.07121   0.11933   0.00000  Uiso   1.00
C102   C     0.24432   0.98637   0.35220   0.00000  Uiso   1.00
C103   C     0.32207   0.01971   0.40742   0.00000  Uiso   1.00
C104   C     0.20733   0.05181   0.46458   0.00000  Uiso   1.00
C105   C     0.08000   0.11156   0.56920   0.00000  Uiso   1.00
C106   C     0.00250   0.94575   0.28798   0.00000  Uiso   1.00
C107   C     0.09961   0.87805   0.25986   0.00000  Uiso   1.00
C108   C     0.01926   0.82005   0.23778   0.00000  Uiso   1.00
C109   C     0.13141   0.76326   0.21380   0.00000  Uiso   1.00
C110   C     0.08371   0.97561   0.24779   0.00000  Uiso   1.00
C111   C     0.98999   0.99966   0.21558   0.00000  Uiso   1.00
C112   C     0.08873   0.02500   0.18145   0.00000  Uiso   1.00
C113   C     0.05855   0.98513   0.35401   0.00000  Uiso   1.00
C114   C     0.94366   0.01720   0.41110   0.00000  Uiso   1.00
C115   C     0.02122   0.05058   0.46640   0.00000  Uiso   1.00
H116   H     0.48915   0.94897   0.28323   0.00000  Uiso   1.00
H117   H     0.54143   0.82353   0.23269   0.00000  Uiso   1.00
H118   H     0.51215   0.00312   0.21050   0.00000  Uiso   1.00
H119   H     0.46584   0.02065   0.40599   0.00000  Uiso   1.00
H120   H     0.51747   0.68391   0.17743   0.00000  Uiso   1.00
H121   H     0.45573   0.06260   0.13066   0.00000  Uiso   1.00
H122   H     0.35807   0.09957   0.54290   0.00000  Uiso   1.00
H123   H     0.85786   0.94479   0.28939   0.00000  Uiso   1.00
H124   H     0.87550   0.81911   0.23919   0.00000  Uiso   1.00
H125   H     0.84622   0.99870   0.21700   0.00000  Uiso   1.00
H126   H     0.79991   0.01623   0.41249   0.00000  Uiso   1.00
H127   H     0.97697   0.68032   0.18270   0.00000  Uiso   1.00
H128   H     0.91523   0.05901   0.13593   0.00000  Uiso   1.00
H129   H     0.81757   0.09598   0.54817   0.00000  Uiso   1.00
O130   O     0.27022   0.59952   0.14691   0.00000  Uiso   1.00
O131   O     0.18921   0.09635   0.08556   0.00000  Uiso   1.00
O132   O     0.06109   0.14486   0.62640   0.00000  Uiso   1.00
N133   N     0.38784   0.70031   0.18557   0.00000  Uiso   1.00
N134   N     0.33012   0.05435   0.14184   0.00000  Uiso   1.00
N135   N     0.23882   0.08894   0.52724   0.00000  Uiso   1.00
N136   N     0.09700   0.69838   0.18841   0.00000  Uiso   1.00
N137   N     0.03928   0.05242   0.14467   0.00000  Uiso   1.00
N138   N     0.94798   0.08701   0.53008   0.00000  Uiso   1.00
C139   C     0.36369   0.27746   0.33370   0.00000  Uiso   1.00
C140   C     0.44599   0.25246   0.37421   0.00000  Uiso   1.00
C141   C     0.35651   0.22321   0.40628   0.00000  Uiso   1.00
C142   C     0.45555   0.20369   0.44074   0.00000  Uiso   1.00
C143   C     0.55569   0.16340   0.50327   0.00000  Uiso   1.00
C144   C     0.47557   0.24282   0.26790   0.00000  Uiso   1.00
C145   C     0.41094   0.20548   0.21058   0.00000  Uiso   1.00
C146   C     0.53489   0.17786   0.15556   0.00000  Uiso   1.00
C147   C     0.68093   0.12265   0.05303   0.00000  Uiso   1.00
C148   C     0.39909   0.34898   0.36186   0.00000  Uiso   1.00
C149   C     0.27018   0.40091   0.38353   0.00000  Uiso   1.00
C150   C     0.32974   0.46266   0.40759   0.00000  Uiso   1.00
C151   C     0.35704   0.57229   0.45095   0.00000  Uiso   1.00
C152   C     0.69871   0.29480   0.33788   0.00000  Uiso   1.00
C153   C     0.62796   0.26188   0.37648   0.00000  Uiso   1.00
C154   C     0.72717   0.24240   0.41090   0.00000  Uiso   1.00
C155   C     0.63785   0.21313   0.44302   0.00000  Uiso   1.00
C156   C     0.65753   0.25224   0.27016   0.00000  Uiso   1.00
C157   C     0.78160   0.22467   0.21521   0.00000  Uiso   1.00
C158   C     0.71719   0.18729   0.15783   0.00000  Uiso   1.00
C159   C     0.58106   0.35840   0.36413   0.00000  Uiso   1.00
C160   C     0.64084   0.42009   0.38816   0.00000  Uiso   1.00
C161   C     0.51204   0.47210   0.40986   0.00000  Uiso   1.00
H162   H     0.22202   0.27013   0.33193   0.00000  Uiso   1.00
H163   H     0.21569   0.21592   0.40450   0.00000  Uiso   1.00
H164   H     0.27012   0.19820   0.20884   0.00000  Uiso   1.00
H165   H     0.12937   0.39360   0.38176   0.00000  Uiso   1.00
H166   H     0.28893   0.15997   0.48595   0.00000  Uiso   1.00
H167   H     0.40369   0.12262   0.07338   0.00000  Uiso   1.00
H168   H     0.10690   0.53465   0.43802   0.00000  Uiso   1.00
H169   H     0.84039   0.30214   0.33965   0.00000  Uiso   1.00
H170   H     0.86799   0.24969   0.41265   0.00000  Uiso   1.00
H171   H     0.92241   0.23197   0.21698   0.00000  Uiso   1.00
H172   H     0.78167   0.42736   0.38991   0.00000  Uiso   1.00
H173   H     0.81836   0.18737   0.49256   0.00000  Uiso   1.00
H174   H     0.93311   0.15003   0.07999   0.00000  Uiso   1.00
H175   H     0.63633   0.56205   0.44463   0.00000  Uiso   1.00
O176   O     0.56066   0.13857   0.53712   0.00000  Uiso   1.00
O177   O     0.71120   0.08959   0.99585   0.00000  Uiso   1.00
O178   O     0.32183   0.63015   0.47424   0.00000  Uiso   1.00
N179   N     0.40974   0.17363   0.47750   0.00000  Uiso   1.00
N180   N     0.51703   0.13870   0.09177   0.00000  Uiso   1.00
N181   N     0.23956   0.52391   0.43266   0.00000  Uiso   1.00
N182   N     0.69462   0.18837   0.48106   0.00000  Uiso   1.00
N183   N     0.80191   0.15345   0.09533   0.00000  Uiso   1.00
N184   N     0.52444   0.53865   0.43622   0.00000  Uiso   1.00
C185   C     0.69575   0.66808   0.94990   0.00000  Uiso   1.00
C186   C     0.81648   0.63185   0.88599   0.00000  Uiso   1.00
C187   C     0.75935   0.59696   0.82680   0.00000  Uiso   1.00
C188   C     0.89072   0.56731   0.77402   0.00000  Uiso   1.00
C189   C     0.05051   0.51032   0.67383   0.00000  Uiso   1.00
C190   C     0.74429   0.73829   0.97991   0.00000  Uiso   1.00
C191   C     0.62645   0.79289   0.99970   0.00000  Uiso   1.00
C192   C     0.69706   0.85284   0.02598   0.00000  Uiso   1.00
C193   C     0.74475   0.96110   0.07165   0.00000  Uiso   1.00
C194   C     0.75600   0.64051   0.99168   0.00000  Uiso   1.00
C195   C     0.64800   0.61292   0.02139   0.00000  Uiso   1.00
C196   C     0.72847   0.59056   0.05760   0.00000  Uiso   1.00
C197   C     0.79433   0.54701   0.12155   0.00000  Uiso   1.00
C198   C     0.03068   0.67745   0.96140   0.00000  Uiso   1.00
C199   C     0.99840   0.63695   0.89224   0.00000  Uiso   1.00
C200   C     0.12990   0.60734   0.83953   0.00000  Uiso   1.00
C201   C     0.07297   0.57241   0.78028   0.00000  Uiso   1.00
C202   C     0.92620   0.74339   0.98616   0.00000  Uiso   1.00
C203   C     0.99700   0.80327   0.01243   0.00000  Uiso   1.00
C204   C     0.87931   0.85794   0.03224   0.00000  Uiso   1.00
C205   C     0.93792   0.64561   0.99793   0.00000  Uiso   1.00
C206   C     0.01856   0.62329   0.03411   0.00000  Uiso   1.00
C207   C     0.91071   0.59566   0.06386   0.00000  Uiso   1.00
H208   H     0.55412   0.66412   0.94504   0.00000  Uiso   1.00
H209   H     0.61855   0.59304   0.82199   0.00000  Uiso   1.00
H210   H     0.48568   0.78894   0.99486   0.00000  Uiso   1.00
H211   H     0.50723   0.60899   0.01654   0.00000  Uiso   1.00
H212   H     0.77020   0.51650   0.68832   0.00000  Uiso   1.00
H213   H     0.49002   0.92957   0.05285   0.00000  Uiso   1.00
H214   H     0.53546   0.55011   0.09858   0.00000  Uiso   1.00
H215   H     0.17231   0.68142   0.96627   0.00000  Uiso   1.00
H216   H     0.27067   0.61129   0.84438   0.00000  Uiso   1.00
H217   H     0.13779   0.80719   0.01726   0.00000  Uiso   1.00
H218   H     0.15934   0.62724   0.03894   0.00000  Uiso   1.00
H219   H     0.29949   0.53131   0.70649   0.00000  Uiso   1.00
H220   H     0.01930   0.94438   0.07103   0.00000  Uiso   1.00
H221   H     0.06475   0.56493   0.11675   0.00000  Uiso   1.00
O222   O     0.08839   0.47748   0.61684   0.00000  Uiso   1.00
O223   O     0.72079   0.01941   0.09510   0.00000  Uiso   1.00
O224   O     0.78042   0.52157   0.15509   0.00000  Uiso   1.00
N225   N     0.88127   0.52960   0.70932   0.00000  Uiso   1.00
N226   N     0.61932   0.91579   0.05013   0.00000  Uiso   1.00
N227   N     0.66180   0.56105   0.09289   0.00000  Uiso   1.00
N228   N     0.16608   0.53757   0.71910   0.00000  Uiso   1.00
N229   N     0.90412   0.92376   0.05991   0.00000  Uiso   1.00
N230   N     0.94660   0.56902   0.10267   0.00000  Uiso   1.00
C231   C     0.65548   0.05199   0.71535   0.00000  Uiso   1.00
C232   C     0.71461   0.12072   0.74195   0.00000  Uiso   1.00
C233   C     0.60233   0.17744   0.76591   0.00000  Uiso   1.00
C234   C     0.68248   0.23551   0.78802   0.00000  Uiso   1.00
C235   C     0.74604   0.34206   0.82963   0.00000  Uiso   1.00
C236   C     0.73052   0.02315   0.75402   0.00000  Uiso   1.00
C237   C     0.63161   0.99783   0.78811   0.00000  Uiso   1.00
C238   C     0.72516   0.97376   0.82037   0.00000  Uiso   1.00
C239   C     0.81343   0.92879   0.88067   0.00000  Uiso   1.00
C240   C     0.75568   0.01363   0.64780   0.00000  Uiso   1.00
C241   C     0.67792   0.98029   0.59258   0.00000  Uiso   1.00
C242   C     0.79267   0.94819   0.53542   0.00000  Uiso   1.00
C243   C     0.91999   0.88844   0.43080   0.00000  Uiso   1.00
C244   C     0.99750   0.05425   0.71202   0.00000  Uiso   1.00
C245   C     0.90039   0.12195   0.74014   0.00000  Uiso   1.00
C246   C     0.98074   0.17995   0.76222   0.00000  Uiso   1.00
C247   C     0.86859   0.23675   0.78620   0.00000  Uiso   1.00
C248   C     0.91629   0.02438   0.75221   0.00000  Uiso   1.00
C249   C     0.01001   0.00034   0.78442   0.00000  Uiso   1.00
C250   C     0.91127   0.97500   0.81855   0.00000  Uiso   1.00
C251   C     0.94145   0.01487   0.64599   0.00000  Uiso   1.00
C252   C     0.05634   0.98280   0.58890   0.00000  Uiso   1.00
C253   C     0.97877   0.94942   0.53360   0.00000  Uiso   1.00
H254   H     0.51085   0.05103   0.71677   0.00000  Uiso   1.00
H255   H     0.45857   0.17647   0.76731   0.00000  Uiso   1.00
H256   H     0.48785   0.99688   0.78950   0.00000  Uiso   1.00
H257   H     0.53416   0.97935   0.59401   0.00000  Uiso   1.00
H258   H     0.48253   0.31609   0.82257   0.00000  Uiso   1.00
H259   H     0.54427   0.93740   0.86934   0.00000  Uiso   1.00
H260   H     0.64193   0.90043   0.45710   0.00000  Uiso   1.00
H261   H     0.14214   0.05521   0.71061   0.00000  Uiso   1.00
H262   H     0.12450   0.18089   0.76081   0.00000  Uiso   1.00
H263   H     0.15378   0.00130   0.78300   0.00000  Uiso   1.00
H264   H     0.20009   0.98377   0.58751   0.00000  Uiso   1.00
H265   H     0.02302   0.31968   0.81730   0.00000  Uiso   1.00
H266   H     0.08477   0.94099   0.86407   0.00000  Uiso   1.00
H267   H     0.18243   0.90402   0.45183   0.00000  Uiso   1.00
O268   O     0.72978   0.40048   0.85309   0.00000  Uiso   1.00
O269   O     0.81079   0.90365   0.91444   0.00000  Uiso   1.00
O270   O     0.93891   0.85515   0.37360   0.00000  Uiso   1.00
N271   N     0.61216   0.29969   0.81443   0.00000  Uiso   1.00
N272   N     0.66988   0.94565   0.85816   0.00000  Uiso   1.00
N273   N     0.76118   0.91106   0.47276   0.00000  Uiso   1.00
N274   N     0.90299   0.30162   0.81159   0.00000  Uiso   1.00
N275   N     0.96072   0.94758   0.85533   0.00000  Uiso   1.00
N276   N     0.05202   0.91299   0.46992   0.00000  Uiso   1.00
