data_job_00254
_audit_creation_date              2018-12-19
_audit_creation_method            'Materials Studio'
_symmetry_space_group_name_H-M    'P1'
_symmetry_Int_Tables_number       1
_symmetry_cell_setting            triclinic
loop_
_symmetry_equiv_pos_as_xyz
  x,y,z
_cell_length_a                    16.9646
_cell_length_b                    22.5806
_cell_length_c                    11.8183
_cell_angle_alpha                 90.0000
_cell_angle_beta                  145.3990
_cell_angle_gamma                 90.0000
loop_
_atom_site_label
_atom_site_type_symbol
_atom_site_fract_x
_atom_site_fract_y
_atom_site_fract_z
_atom_site_U_iso_or_equiv
_atom_site_adp_type
_atom_site_occupancy
C1     C     0.07540   0.14164   0.94734   0.00000  Uiso   1.00
C2     C     0.94881   0.12711   0.72545   0.00000  Uiso   1.00
C3     C     0.81133   0.13282   0.59635   0.00000  Uiso   1.00
C4     C     0.71058   0.11721   0.39878   0.00000  Uiso   1.00
C5     C     0.50861   0.09774   0.06428   0.00000  Uiso   1.00
C6     C     0.16253   0.08529   0.05389   0.00000  Uiso   1.00
C7     C     0.20477   0.05586   0.20096   0.00000  Uiso   1.00
C8     C     0.28395   0.00505   0.27988   0.00000  Uiso   1.00
C9     C     0.41387   0.92069   0.45540   0.00000  Uiso   1.00
C10    C     0.15976   0.18656   0.97956   0.00000  Uiso   1.00
C11    C     0.19970   0.24227   0.06418   0.00000  Uiso   1.00
C12    C     0.27658   0.27673   0.08057   0.00000  Uiso   1.00
C13    C     0.40220   0.34961   0.14068   0.00000  Uiso   1.00
C14    C     0.14094   0.10377   0.82603   0.00000  Uiso   1.00
C15    C     0.98442   0.10653   0.65957   0.00000  Uiso   1.00
C16    C     0.88385   0.09091   0.46213   0.00000  Uiso   1.00
C17    C     0.74624   0.09660   0.33276   0.00000  Uiso   1.00
C18    C     0.19814   0.06472   0.98801   0.00000  Uiso   1.00
C19    C     0.27728   0.01395   0.06674   0.00000  Uiso   1.00
C20    C     0.31962   0.98444   0.21388   0.00000  Uiso   1.00
C21    C     0.19537   0.16599   0.91367   0.00000  Uiso   1.00
C22    C     0.27221   0.20036   0.92995   0.00000  Uiso   1.00
C23    C     0.31225   0.25611   0.01457   0.00000  Uiso   1.00
H24    H     0.04769   0.15766   0.99865   0.00000  Uiso   1.00
H25    H     0.78382   0.14873   0.64740   0.00000  Uiso   1.00
H26    H     0.17721   0.07179   0.25193   0.00000  Uiso   1.00
H27    H     0.17213   0.25818   0.11515   0.00000  Uiso   1.00
H28    H     0.50698   0.12975   0.22894   0.00000  Uiso   1.00
H29    H     0.33650   0.96752   0.50366   0.00000  Uiso   1.00
H30    H     0.32581   0.36055   0.21526   0.00000  Uiso   1.00
H31    H     0.16866   0.08775   0.77474   0.00000  Uiso   1.00
H32    H     0.91143   0.07499   0.41119   0.00000  Uiso   1.00
H33    H     0.30482   0.99804   0.01573   0.00000  Uiso   1.00
H34    H     0.29974   0.18443   0.87895   0.00000  Uiso   1.00
H35    H     0.61055   0.06989   0.03722   0.00000  Uiso   1.00
H36    H     0.44008   0.90766   0.31196   0.00000  Uiso   1.00
H37    H     0.42938   0.30070   0.02354   0.00000  Uiso   1.00
O38    O     0.38737   0.09267   0.89799   0.00000  Uiso   1.00
O39    O     0.47569   0.87984   0.57040   0.00000  Uiso   1.00
O40    O     0.46164   0.39549   0.19201   0.00000  Uiso   1.00
N41    N     0.56666   0.11742   0.23370   0.00000  Uiso   1.00
N42    N     0.34219   0.96574   0.42547   0.00000  Uiso   1.00
N43    N     0.33222   0.33319   0.15589   0.00000  Uiso   1.00
N44    N     0.62239   0.08522   0.13054   0.00000  Uiso   1.00
N45    N     0.39792   0.93354   0.32231   0.00000  Uiso   1.00
N46    N     0.38795   0.30098   0.05272   0.00000  Uiso   1.00
C47    C     0.92460   0.64164   0.55266   0.00000  Uiso   1.00
C48    C     0.05119   0.62711   0.77455   0.00000  Uiso   1.00
C49    C     0.18867   0.63282   0.90365   0.00000  Uiso   1.00
C50    C     0.28942   0.61721   0.10122   0.00000  Uiso   1.00
C51    C     0.49139   0.59774   0.43572   0.00000  Uiso   1.00
C52    C     0.83747   0.58529   0.44611   0.00000  Uiso   1.00
C53    C     0.79523   0.55586   0.29904   0.00000  Uiso   1.00
C54    C     0.71605   0.50505   0.22012   0.00000  Uiso   1.00
C55    C     0.58613   0.42069   0.04460   0.00000  Uiso   1.00
C56    C     0.84024   0.68656   0.52044   0.00000  Uiso   1.00
C57    C     0.80030   0.74227   0.43582   0.00000  Uiso   1.00
C58    C     0.72342   0.77673   0.41943   0.00000  Uiso   1.00
C59    C     0.59780   0.84961   0.35932   0.00000  Uiso   1.00
C60    C     0.85906   0.60377   0.67397   0.00000  Uiso   1.00
C61    C     0.01558   0.60653   0.84043   0.00000  Uiso   1.00
C62    C     0.11615   0.59091   0.03787   0.00000  Uiso   1.00
C63    C     0.25376   0.59660   0.16724   0.00000  Uiso   1.00
C64    C     0.80186   0.56472   0.51199   0.00000  Uiso   1.00
C65    C     0.72272   0.51395   0.43326   0.00000  Uiso   1.00
C66    C     0.68038   0.48444   0.28612   0.00000  Uiso   1.00
C67    C     0.80463   0.66599   0.58633   0.00000  Uiso   1.00
C68    C     0.72779   0.70036   0.57005   0.00000  Uiso   1.00
C69    C     0.68775   0.75611   0.48543   0.00000  Uiso   1.00
H70    H     0.95231   0.65766   0.50135   0.00000  Uiso   1.00
H71    H     0.21618   0.64873   0.85260   0.00000  Uiso   1.00
H72    H     0.82279   0.57179   0.24807   0.00000  Uiso   1.00
H73    H     0.82787   0.75818   0.38485   0.00000  Uiso   1.00
H74    H     0.49302   0.62975   0.27106   0.00000  Uiso   1.00
H75    H     0.66350   0.46752   0.99634   0.00000  Uiso   1.00
H76    H     0.67419   0.86055   0.28474   0.00000  Uiso   1.00
H77    H     0.83134   0.58775   0.72526   0.00000  Uiso   1.00
H78    H     0.08857   0.57499   0.08881   0.00000  Uiso   1.00
H79    H     0.69518   0.49804   0.48427   0.00000  Uiso   1.00
H80    H     0.70026   0.68443   0.62105   0.00000  Uiso   1.00
H81    H     0.38945   0.56989   0.46278   0.00000  Uiso   1.00
H82    H     0.55992   0.40766   0.18804   0.00000  Uiso   1.00
H83    H     0.57062   0.80070   0.47646   0.00000  Uiso   1.00
O84    O     0.61263   0.59267   0.60201   0.00000  Uiso   1.00
O85    O     0.52431   0.37984   0.92960   0.00000  Uiso   1.00
O86    O     0.53836   0.89549   0.30799   0.00000  Uiso   1.00
N87    N     0.43334   0.61742   0.26630   0.00000  Uiso   1.00
N88    N     0.65781   0.46574   0.07453   0.00000  Uiso   1.00
N89    N     0.66778   0.83319   0.34411   0.00000  Uiso   1.00
N90    N     0.37761   0.58522   0.36946   0.00000  Uiso   1.00
N91    N     0.60208   0.43354   0.17769   0.00000  Uiso   1.00
N92    N     0.61205   0.80098   0.44728   0.00000  Uiso   1.00
C93    C     0.92460   0.85836   0.05266   0.00000  Uiso   1.00
C94    C     0.05119   0.87289   0.27455   0.00000  Uiso   1.00
C95    C     0.18867   0.86718   0.40365   0.00000  Uiso   1.00
C96    C     0.28942   0.88279   0.60122   0.00000  Uiso   1.00
C97    C     0.49139   0.90226   0.93572   0.00000  Uiso   1.00
C98    C     0.83747   0.91471   0.94611   0.00000  Uiso   1.00
C99    C     0.79523   0.94414   0.79904   0.00000  Uiso   1.00
C100   C     0.71605   0.99495   0.72012   0.00000  Uiso   1.00
C101   C     0.58613   0.07931   0.54460   0.00000  Uiso   1.00
C102   C     0.84024   0.81344   0.02044   0.00000  Uiso   1.00
C103   C     0.80030   0.75773   0.93582   0.00000  Uiso   1.00
C104   C     0.72342   0.72327   0.91943   0.00000  Uiso   1.00
C105   C     0.59780   0.65039   0.85932   0.00000  Uiso   1.00
C106   C     0.85906   0.89623   0.17397   0.00000  Uiso   1.00
C107   C     0.01558   0.89347   0.34043   0.00000  Uiso   1.00
C108   C     0.11615   0.90909   0.53787   0.00000  Uiso   1.00
C109   C     0.25376   0.90340   0.66724   0.00000  Uiso   1.00
C110   C     0.80186   0.93528   0.01199   0.00000  Uiso   1.00
C111   C     0.72272   0.98605   0.93326   0.00000  Uiso   1.00
C112   C     0.68038   0.01556   0.78612   0.00000  Uiso   1.00
C113   C     0.80463   0.83401   0.08633   0.00000  Uiso   1.00
C114   C     0.72779   0.79964   0.07005   0.00000  Uiso   1.00
C115   C     0.68775   0.74389   0.98543   0.00000  Uiso   1.00
H116   H     0.95231   0.84234   0.00135   0.00000  Uiso   1.00
H117   H     0.21618   0.85127   0.35260   0.00000  Uiso   1.00
H118   H     0.82279   0.92821   0.74807   0.00000  Uiso   1.00
H119   H     0.82787   0.74182   0.88485   0.00000  Uiso   1.00
H120   H     0.49302   0.87025   0.77106   0.00000  Uiso   1.00
H121   H     0.66350   0.03248   0.49634   0.00000  Uiso   1.00
H122   H     0.67419   0.63945   0.78474   0.00000  Uiso   1.00
H123   H     0.83134   0.91225   0.22526   0.00000  Uiso   1.00
H124   H     0.08857   0.92501   0.58881   0.00000  Uiso   1.00
H125   H     0.69518   0.00196   0.98427   0.00000  Uiso   1.00
H126   H     0.70026   0.81557   0.12105   0.00000  Uiso   1.00
H127   H     0.38945   0.93011   0.96278   0.00000  Uiso   1.00
H128   H     0.55992   0.09234   0.68804   0.00000  Uiso   1.00
H129   H     0.57062   0.69930   0.97646   0.00000  Uiso   1.00
O130   O     0.61263   0.90733   0.10201   0.00000  Uiso   1.00
O131   O     0.52431   0.12016   0.42960   0.00000  Uiso   1.00
O132   O     0.53836   0.60451   0.80799   0.00000  Uiso   1.00
N133   N     0.43334   0.88258   0.76630   0.00000  Uiso   1.00
N134   N     0.65781   0.03426   0.57453   0.00000  Uiso   1.00
N135   N     0.66778   0.66681   0.84411   0.00000  Uiso   1.00
N136   N     0.37761   0.91478   0.86946   0.00000  Uiso   1.00
N137   N     0.60208   0.06646   0.67769   0.00000  Uiso   1.00
N138   N     0.61205   0.69902   0.94728   0.00000  Uiso   1.00
C139   C     0.07540   0.35836   0.44734   0.00000  Uiso   1.00
C140   C     0.94881   0.37289   0.22545   0.00000  Uiso   1.00
C141   C     0.81133   0.36718   0.09635   0.00000  Uiso   1.00
C142   C     0.71058   0.38279   0.89878   0.00000  Uiso   1.00
C143   C     0.50861   0.40226   0.56428   0.00000  Uiso   1.00
C144   C     0.16253   0.41471   0.55389   0.00000  Uiso   1.00
C145   C     0.20477   0.44414   0.70096   0.00000  Uiso   1.00
C146   C     0.28395   0.49495   0.77988   0.00000  Uiso   1.00
C147   C     0.41387   0.57931   0.95540   0.00000  Uiso   1.00
C148   C     0.15976   0.31344   0.47956   0.00000  Uiso   1.00
C149   C     0.19970   0.25773   0.56418   0.00000  Uiso   1.00
C150   C     0.27658   0.22327   0.58057   0.00000  Uiso   1.00
C151   C     0.40220   0.15039   0.64068   0.00000  Uiso   1.00
C152   C     0.14094   0.39623   0.32603   0.00000  Uiso   1.00
C153   C     0.98442   0.39347   0.15957   0.00000  Uiso   1.00
C154   C     0.88385   0.40909   0.96213   0.00000  Uiso   1.00
C155   C     0.74624   0.40340   0.83276   0.00000  Uiso   1.00
C156   C     0.19814   0.43528   0.48801   0.00000  Uiso   1.00
C157   C     0.27728   0.48605   0.56674   0.00000  Uiso   1.00
C158   C     0.31962   0.51556   0.71388   0.00000  Uiso   1.00
C159   C     0.19537   0.33401   0.41367   0.00000  Uiso   1.00
C160   C     0.27221   0.29964   0.42995   0.00000  Uiso   1.00
C161   C     0.31225   0.24389   0.51457   0.00000  Uiso   1.00
H162   H     0.04769   0.34234   0.49865   0.00000  Uiso   1.00
H163   H     0.78382   0.35127   0.14740   0.00000  Uiso   1.00
H164   H     0.17721   0.42821   0.75193   0.00000  Uiso   1.00
H165   H     0.17213   0.24182   0.61515   0.00000  Uiso   1.00
H166   H     0.50698   0.37025   0.72894   0.00000  Uiso   1.00
H167   H     0.33650   0.53248   0.00366   0.00000  Uiso   1.00
H168   H     0.32581   0.13945   0.71526   0.00000  Uiso   1.00
H169   H     0.16866   0.41225   0.27474   0.00000  Uiso   1.00
H170   H     0.91143   0.42501   0.91119   0.00000  Uiso   1.00
H171   H     0.30482   0.50196   0.51573   0.00000  Uiso   1.00
H172   H     0.29974   0.31557   0.37895   0.00000  Uiso   1.00
H173   H     0.61055   0.43011   0.53722   0.00000  Uiso   1.00
H174   H     0.44008   0.59234   0.81196   0.00000  Uiso   1.00
H175   H     0.42938   0.19930   0.52354   0.00000  Uiso   1.00
O176   O     0.38737   0.40733   0.39799   0.00000  Uiso   1.00
O177   O     0.47569   0.62016   0.07040   0.00000  Uiso   1.00
O178   O     0.46164   0.10451   0.69201   0.00000  Uiso   1.00
N179   N     0.56666   0.38258   0.73370   0.00000  Uiso   1.00
N180   N     0.34219   0.53426   0.92547   0.00000  Uiso   1.00
N181   N     0.33222   0.16681   0.65589   0.00000  Uiso   1.00
N182   N     0.62239   0.41478   0.63054   0.00000  Uiso   1.00
N183   N     0.39792   0.56646   0.82231   0.00000  Uiso   1.00
N184   N     0.38795   0.19902   0.55272   0.00000  Uiso   1.00
