data_job_06374
_audit_creation_date              2018-12-19
_audit_creation_method            'Materials Studio'
_symmetry_space_group_name_H-M    'P1'
_symmetry_Int_Tables_number       1
_symmetry_cell_setting            triclinic
loop_
_symmetry_equiv_pos_as_xyz
  x,y,z
_cell_length_a                    16.7063
_cell_length_b                    16.3556
_cell_length_c                    15.7488
_cell_angle_alpha                 100.0490
_cell_angle_beta                  100.2270
_cell_angle_gamma                 99.6512
loop_
_atom_site_label
_atom_site_type_symbol
_atom_site_fract_x
_atom_site_fract_y
_atom_site_fract_z
_atom_site_U_iso_or_equiv
_atom_site_adp_type
_atom_site_occupancy
C1     C     0.45354   0.01751   0.58650   0.00000  Uiso   1.00
C2     C     0.42381   0.04341   0.67147   0.00000  Uiso   1.00
C3     C     0.34670   0.01187   0.68741   0.00000  Uiso   1.00
C4     C     0.33144   0.04367   0.76934   0.00000  Uiso   1.00
C5     C     0.27617   0.07461   0.89158   0.00000  Uiso   1.00
C6     C     0.47833   0.09921   0.55486   0.00000  Uiso   1.00
C7     C     0.44706   0.11460   0.47275   0.00000  Uiso   1.00
C8     C     0.47770   0.19337   0.45652   0.00000  Uiso   1.00
C9     C     0.50711   0.31093   0.39769   0.00000  Uiso   1.00
C10    C     0.53388   0.98706   0.61346   0.00000  Uiso   1.00
C11    C     0.54933   0.90815   0.58061   0.00000  Uiso   1.00
C12    C     0.62674   0.89251   0.61370   0.00000  Uiso   1.00
C13    C     0.74240   0.83593   0.64586   0.00000  Uiso   1.00
C14    C     0.56356   0.13006   0.70367   0.00000  Uiso   1.00
C15    C     0.48357   0.10454   0.73511   0.00000  Uiso   1.00
C16    C     0.46843   0.13639   0.81704   0.00000  Uiso   1.00
C17    C     0.39130   0.10491   0.83310   0.00000  Uiso   1.00
C18    C     0.53809   0.16035   0.61850   0.00000  Uiso   1.00
C19    C     0.56879   0.23912   0.60238   0.00000  Uiso   1.00
C20    C     0.53757   0.25462   0.52027   0.00000  Uiso   1.00
C21    C     0.59364   0.04819   0.67710   0.00000  Uiso   1.00
C22    C     0.67105   0.03267   0.71025   0.00000  Uiso   1.00
C23    C     0.68661   0.95376   0.67745   0.00000  Uiso   1.00
H24    H     0.40702   0.96993   0.53695   0.00000  Uiso   1.00
H25    H     0.30047   0.96457   0.63813   0.00000  Uiso   1.00
H26    H     0.40082   0.06727   0.42351   0.00000  Uiso   1.00
H27    H     0.50307   0.86086   0.53136   0.00000  Uiso   1.00
H28    H     0.20868   0.98561   0.77837   0.00000  Uiso   1.00
H29    H     0.42030   0.20216   0.32581   0.00000  Uiso   1.00
H30    H     0.63591   0.76690   0.55323   0.00000  Uiso   1.00
H31    H     0.61009   0.17766   0.75321   0.00000  Uiso   1.00
H32    H     0.51468   0.18370   0.86628   0.00000  Uiso   1.00
H33    H     0.61503   0.28641   0.65165   0.00000  Uiso   1.00
H34    H     0.71728   0.08000   0.75949   0.00000  Uiso   1.00
H35    H     0.38254   0.16347   0.96354   0.00000  Uiso   1.00
H36    H     0.59416   0.38002   0.51097   0.00000  Uiso   1.00
H37    H     0.80977   0.94476   0.73839   0.00000  Uiso   1.00
O38    O     0.22917   0.07479   0.94141   0.00000  Uiso   1.00
O39    O     0.50682   0.35888   0.34767   0.00000  Uiso   1.00
O40    O     0.78969   0.78783   0.64603   0.00000  Uiso   1.00
N41    N     0.26269   0.02663   0.80644   0.00000  Uiso   1.00
N42    N     0.46054   0.22909   0.38333   0.00000  Uiso   1.00
N43    N     0.66212   0.82217   0.59593   0.00000  Uiso   1.00
N44    N     0.35625   0.12234   0.90608   0.00000  Uiso   1.00
N45    N     0.55409   0.32480   0.48297   0.00000  Uiso   1.00
N46    N     0.75568   0.91787   0.69556   0.00000  Uiso   1.00
C47    C     0.58531   0.44962   0.01627   0.00000  Uiso   1.00
C48    C     0.66554   0.41897   0.04320   0.00000  Uiso   1.00
C49    C     0.68087   0.34005   0.01019   0.00000  Uiso   1.00
C50    C     0.75818   0.32421   0.04331   0.00000  Uiso   1.00
C51    C     0.87365   0.26733   0.07546   0.00000  Uiso   1.00
C52    C     0.55549   0.47534   0.10122   0.00000  Uiso   1.00
C53    C     0.47829   0.44382   0.11698   0.00000  Uiso   1.00
C54    C     0.46297   0.47543   0.19894   0.00000  Uiso   1.00
C55    C     0.40757   0.50610   0.32113   0.00000  Uiso   1.00
C56    C     0.61030   0.53144   0.98492   0.00000  Uiso   1.00
C57    C     0.57916   0.54711   0.90291   0.00000  Uiso   1.00
C58    C     0.60996   0.62597   0.88696   0.00000  Uiso   1.00
C59    C     0.63965   0.74376   0.82859   0.00000  Uiso   1.00
C60    C     0.69534   0.56182   0.13379   0.00000  Uiso   1.00
C61    C     0.72530   0.47992   0.10704   0.00000  Uiso   1.00
C62    C     0.80261   0.46419   0.14021   0.00000  Uiso   1.00
C63    C     0.81806   0.38526   0.10726   0.00000  Uiso   1.00
C64    C     0.61526   0.53628   0.16505   0.00000  Uiso   1.00
C65    C     0.60004   0.56795   0.24700   0.00000  Uiso   1.00
C66    C     0.52284   0.53648   0.26289   0.00000  Uiso   1.00
C67    C     0.67006   0.59239   0.04875   0.00000  Uiso   1.00
C68    C     0.70091   0.67124   0.03293   0.00000  Uiso   1.00
C69    C     0.66983   0.68702   0.95091   0.00000  Uiso   1.00
H70    H     0.53877   0.40218   0.96658   0.00000  Uiso   1.00
H71    H     0.63460   0.29291   0.96080   0.00000  Uiso   1.00
H72    H     0.43205   0.39666   0.06757   0.00000  Uiso   1.00
H73    H     0.53291   0.49994   0.85353   0.00000  Uiso   1.00
H74    H     0.76718   0.19862   0.98257   0.00000  Uiso   1.00
H75    H     0.34010   0.41741   0.20769   0.00000  Uiso   1.00
H76    H     0.55277   0.63519   0.75635   0.00000  Uiso   1.00
H77    H     0.74188   0.60927   0.18349   0.00000  Uiso   1.00
H78    H     0.84885   0.51136   0.18961   0.00000  Uiso   1.00
H79    H     0.64630   0.61511   0.29638   0.00000  Uiso   1.00
H80    H     0.74716   0.71839   0.08234   0.00000  Uiso   1.00
H81    H     0.94108   0.37592   0.16828   0.00000  Uiso   1.00
H82    H     0.51399   0.59472   0.39340   0.00000  Uiso   1.00
H83    H     0.72666   0.81250   0.94206   0.00000  Uiso   1.00
O84    O     0.92083   0.21912   0.07556   0.00000  Uiso   1.00
O85    O     0.36050   0.50617   0.37090   0.00000  Uiso   1.00
O86    O     0.63952   0.79189   0.77876   0.00000  Uiso   1.00
N87    N     0.79344   0.25379   0.02542   0.00000  Uiso   1.00
N88    N     0.39414   0.45834   0.23590   0.00000  Uiso   1.00
N89    N     0.59295   0.66195   0.81394   0.00000  Uiso   1.00
N90    N     0.88701   0.34920   0.12535   0.00000  Uiso   1.00
N91    N     0.48771   0.55374   0.33583   0.00000  Uiso   1.00
N92    N     0.68652   0.75736   0.91387   0.00000  Uiso   1.00
C93    C     0.01725   0.58570   0.44262   0.00000  Uiso   1.00
C94    C     0.04221   0.66741   0.41107   0.00000  Uiso   1.00
C95    C     0.01093   0.68296   0.32905   0.00000  Uiso   1.00
C96    C     0.04175   0.76171   0.31289   0.00000  Uiso   1.00
C97    C     0.07143   0.87931   0.25421   0.00000  Uiso   1.00
C98    C     0.09746   0.55496   0.46937   0.00000  Uiso   1.00
C99    C     0.11263   0.47595   0.43637   0.00000  Uiso   1.00
C100   C     0.18997   0.46004   0.46930   0.00000  Uiso   1.00
C101   C     0.30540   0.40303   0.50117   0.00000  Uiso   1.00
C102   C     0.98771   0.61161   0.52770   0.00000  Uiso   1.00
C103   C     0.91061   0.58023   0.54376   0.00000  Uiso   1.00
C104   C     0.89555   0.61200   0.62581   0.00000  Uiso   1.00
C105   C     0.84057   0.64295   0.74825   0.00000  Uiso   1.00
C106   C     0.12762   0.69790   0.55978   0.00000  Uiso   1.00
C107   C     0.10216   0.72836   0.47471   0.00000  Uiso   1.00
C108   C     0.13304   0.80711   0.45867   0.00000  Uiso   1.00
C109   C     0.10181   0.82277   0.37664   0.00000  Uiso   1.00
C110   C     0.15741   0.61590   0.53300   0.00000  Uiso   1.00
C111   C     0.23474   0.60010   0.56599   0.00000  Uiso   1.00
C112   C     0.25002   0.52110   0.53305   0.00000  Uiso   1.00
C113   C     0.04766   0.67256   0.59134   0.00000  Uiso   1.00
C114   C     0.03272   0.70438   0.67338   0.00000  Uiso   1.00
C115   C     0.95560   0.67306   0.68956   0.00000  Uiso   1.00
H116   H     0.97058   0.53824   0.39308   0.00000  Uiso   1.00
H117   H     0.96454   0.63577   0.27982   0.00000  Uiso   1.00
H118   H     0.06623   0.42880   0.38714   0.00000  Uiso   1.00
H119   H     0.86423   0.53306   0.49451   0.00000  Uiso   1.00
H120   H     0.98431   0.77077   0.18230   0.00000  Uiso   1.00
H121   H     0.19870   0.33435   0.40860   0.00000  Uiso   1.00
H122   H     0.77276   0.55420   0.63501   0.00000  Uiso   1.00
H123   H     0.17429   0.74536   0.60932   0.00000  Uiso   1.00
H124   H     0.17943   0.85426   0.50792   0.00000  Uiso   1.00
H125   H     0.28111   0.64728   0.61524   0.00000  Uiso   1.00
H126   H     0.07912   0.75155   0.72260   0.00000  Uiso   1.00
H127   H     0.15872   0.94810   0.36744   0.00000  Uiso   1.00
H128   H     0.37311   0.51167   0.59374   0.00000  Uiso   1.00
H129   H     0.94717   0.73153   0.82015   0.00000  Uiso   1.00
O130   O     0.07124   0.92733   0.20425   0.00000  Uiso   1.00
O131   O     0.35250   0.35475   0.50116   0.00000  Uiso   1.00
O132   O     0.79368   0.64320   0.79820   0.00000  Uiso   1.00
N133   N     0.02464   0.79757   0.23979   0.00000  Uiso   1.00
N134   N     0.22509   0.38954   0.45136   0.00000  Uiso   1.00
N135   N     0.82688   0.59507   0.66304   0.00000  Uiso   1.00
N136   N     0.11849   0.89299   0.33941   0.00000  Uiso   1.00
N137   N     0.31894   0.48496   0.55098   0.00000  Uiso   1.00
N138   N     0.92073   0.69049   0.76266   0.00000  Uiso   1.00
C139   C     0.95332   0.08600   0.51586   0.00000  Uiso   1.00
C140   C     0.92334   0.16789   0.54263   0.00000  Uiso   1.00
C141   C     0.84601   0.18358   0.50949   0.00000  Uiso   1.00
C142   C     0.83053   0.26248   0.54247   0.00000  Uiso   1.00
C143   C     0.77486   0.38035   0.57436   0.00000  Uiso   1.00
C144   C     0.97862   0.05544   0.60090   0.00000  Uiso   1.00
C145   C     0.94778   0.97658   0.61673   0.00000  Uiso   1.00
C146   C     0.97886   0.96081   0.69876   0.00000  Uiso   1.00
C147   C     0.00907   0.90407   0.82108   0.00000  Uiso   1.00
C148   C     0.03340   0.11157   0.48460   0.00000  Uiso   1.00
C149   C     0.04863   0.07989   0.40266   0.00000  Uiso   1.00
C150   C     0.12583   0.11137   0.38678   0.00000  Uiso   1.00
C151   C     0.24110   0.14178   0.32853   0.00000  Uiso   1.00
C152   C     0.06335   0.19821   0.63338   0.00000  Uiso   1.00
C153   C     0.98310   0.22883   0.60647   0.00000  Uiso   1.00
C154   C     0.96774   0.30773   0.63951   0.00000  Uiso   1.00
C155   C     0.89040   0.32354   0.60641   0.00000  Uiso   1.00
C156   C     0.03838   0.11638   0.66473   0.00000  Uiso   1.00
C157   C     0.06951   0.10073   0.74675   0.00000  Uiso   1.00
C158   C     0.03872   0.02187   0.76270   0.00000  Uiso   1.00
C159   C     0.09316   0.17252   0.54843   0.00000  Uiso   1.00
C160   C     0.17036   0.20404   0.53268   0.00000  Uiso   1.00
C161   C     0.18570   0.17243   0.45073   0.00000  Uiso   1.00
H162   H     0.90680   0.03854   0.46617   0.00000  Uiso   1.00
H163   H     0.79977   0.13640   0.46009   0.00000  Uiso   1.00
H164   H     0.90154   0.92942   0.56732   0.00000  Uiso   1.00
H165   H     0.00237   0.03273   0.35328   0.00000  Uiso   1.00
H166   H     0.70746   0.27175   0.48153   0.00000  Uiso   1.00
H167   H     0.92207   0.83532   0.70760   0.00000  Uiso   1.00
H168   H     0.13469   0.05315   0.25626   0.00000  Uiso   1.00
H169   H     0.10987   0.24566   0.68308   0.00000  Uiso   1.00
H170   H     0.01399   0.35489   0.68890   0.00000  Uiso   1.00
H171   H     0.11576   0.14791   0.79613   0.00000  Uiso   1.00
H172   H     0.21659   0.25121   0.58209   0.00000  Uiso   1.00
H173   H     0.88133   0.44908   0.66724   0.00000  Uiso   1.00
H174   H     0.09594   0.01265   0.89332   0.00000  Uiso   1.00
H175   H     0.30856   0.23048   0.44198   0.00000  Uiso   1.00
O176   O     0.72765   0.42852   0.57432   0.00000  Uiso   1.00
O177   O     0.00921   0.85594   0.87091   0.00000  Uiso   1.00
O178   O     0.28816   0.14173   0.27877   0.00000  Uiso   1.00
N179   N     0.76155   0.29850   0.52442   0.00000  Uiso   1.00
N180   N     0.96218   0.89047   0.73580   0.00000  Uiso   1.00
N181   N     0.16097   0.09411   0.31384   0.00000  Uiso   1.00
N182   N     0.85510   0.39392   0.62435   0.00000  Uiso   1.00
N183   N     0.05574   0.98589   0.83573   0.00000  Uiso   1.00
N184   N     0.25453   0.18953   0.41377   0.00000  Uiso   1.00
C185   C     0.08470   0.51709   0.94273   0.00000  Uiso   1.00
C186   C     0.16468   0.54264   0.91126   0.00000  Uiso   1.00
C187   C     0.17979   0.51081   0.82931   0.00000  Uiso   1.00
C188   C     0.25689   0.54232   0.81321   0.00000  Uiso   1.00
C189   C     0.37196   0.57271   0.75466   0.00000  Uiso   1.00
C190   C     0.05463   0.59897   0.96931   0.00000  Uiso   1.00
C191   C     0.97722   0.61449   0.93617   0.00000  Uiso   1.00
C192   C     0.96168   0.69342   0.96896   0.00000  Uiso   1.00
C193   C     0.90588   0.81124   0.00058   0.00000  Uiso   1.00
C194   C     0.11020   0.48681   0.02789   0.00000  Uiso   1.00
C195   C     0.07950   0.40805   0.04402   0.00000  Uiso   1.00
C196   C     0.11073   0.39256   0.12613   0.00000  Uiso   1.00
C197   C     0.14121   0.33625   0.24870   0.00000  Uiso   1.00
C198   C     0.19474   0.62964   0.05988   0.00000  Uiso   1.00
C199   C     0.22444   0.60377   0.97489   0.00000  Uiso   1.00
C200   C     0.30154   0.63533   0.95892   0.00000  Uiso   1.00
C201   C     0.31677   0.60356   0.87696   0.00000  Uiso   1.00
C202   C     0.11440   0.66010   0.03294   0.00000  Uiso   1.00
C203   C     0.09896   0.73902   0.06579   0.00000  Uiso   1.00
C204   C     0.02155   0.75466   0.03271   0.00000  Uiso   1.00
C205   C     0.16997   0.54794   0.09152   0.00000  Uiso   1.00
C206   C     0.20125   0.53257   0.17363   0.00000  Uiso   1.00
C207   C     0.17060   0.45380   0.18988   0.00000  Uiso   1.00
H208   H     0.03817   0.46950   0.89319   0.00000  Uiso   1.00
H209   H     0.13352   0.46351   0.78008   0.00000  Uiso   1.00
H210   H     0.93098   0.56717   0.88694   0.00000  Uiso   1.00
H211   H     0.03325   0.36076   0.99476   0.00000  Uiso   1.00
H212   H     0.26558   0.48384   0.68272   0.00000  Uiso   1.00
H213   H     0.83850   0.70241   0.90807   0.00000  Uiso   1.00
H214   H     0.05415   0.26715   0.13543   0.00000  Uiso   1.00
H215   H     0.24127   0.67724   0.10942   0.00000  Uiso   1.00
H216   H     0.34777   0.68264   0.00818   0.00000  Uiso   1.00
H217   H     0.14523   0.78631   0.11504   0.00000  Uiso   1.00
H218   H     0.24750   0.57989   0.22286   0.00000  Uiso   1.00
H219   H     0.43948   0.66170   0.86786   0.00000  Uiso   1.00
H220   H     0.01239   0.88027   0.09320   0.00000  Uiso   1.00
H221   H     0.22804   0.44501   0.32057   0.00000  Uiso   1.00
O222   O     0.41892   0.57260   0.70477   0.00000  Uiso   1.00
O223   O     0.85859   0.85935   0.00043   0.00000  Uiso   1.00
O224   O     0.14153   0.28830   0.29872   0.00000  Uiso   1.00
N225   N     0.29190   0.52495   0.74019   0.00000  Uiso   1.00
N226   N     0.89261   0.72930   0.95087   0.00000  Uiso   1.00
N227   N     0.09421   0.32238   0.16344   0.00000  Uiso   1.00
N228   N     0.38547   0.62065   0.83981   0.00000  Uiso   1.00
N229   N     0.98618   0.82501   0.05049   0.00000  Uiso   1.00
N230   N     0.18778   0.41808   0.26306   0.00000  Uiso   1.00
C231   C     0.51807   0.94974   0.08680   0.00000  Uiso   1.00
C232   C     0.54355   0.91927   0.17185   0.00000  Uiso   1.00
C233   C     0.51270   0.84049   0.18786   0.00000  Uiso   1.00
C234   C     0.54395   0.82479   0.26986   0.00000  Uiso   1.00
C235   C     0.57442   0.76818   0.39223   0.00000  Uiso   1.00
C236   C     0.59803   0.97511   0.05524   0.00000  Uiso   1.00
C237   C     0.61298   0.94329   0.97320   0.00000  Uiso   1.00
C238   C     0.69010   0.97461   0.95704   0.00000  Uiso   1.00
C239   C     0.80513   0.00474   0.89834   0.00000  Uiso   1.00
C240   C     0.48828   0.03174   0.11360   0.00000  Uiso   1.00
C241   C     0.41096   0.04755   0.08061   0.00000  Uiso   1.00
C242   C     0.39568   0.12656   0.11356   0.00000  Uiso   1.00
C243   C     0.34031   0.24462   0.14547   0.00000  Uiso   1.00
C244   C     0.62844   0.06194   0.20397   0.00000  Uiso   1.00
C245   C     0.60350   0.98021   0.23549   0.00000  Uiso   1.00
C246   C     0.63481   0.96462   0.31749   0.00000  Uiso   1.00
C247   C     0.60401   0.88584   0.33362   0.00000  Uiso   1.00
C248   C     0.65798   0.03604   0.11888   0.00000  Uiso   1.00
C249   C     0.73509   0.06742   0.10284   0.00000  Uiso   1.00
C250   C     0.75016   0.03566   0.02079   0.00000  Uiso   1.00
C251   C     0.54823   0.09268   0.17724   0.00000  Uiso   1.00
C252   C     0.53307   0.17168   0.21025   0.00000  Uiso   1.00
C253   C     0.45574   0.18761   0.17732   0.00000  Uiso   1.00
H254   H     0.47141   0.90230   0.03725   0.00000  Uiso   1.00
H255   H     0.46631   0.79335   0.13859   0.00000  Uiso   1.00
H256   H     0.56658   0.89614   0.92396   0.00000  Uiso   1.00
H257   H     0.36459   0.00038   0.03136   0.00000  Uiso   1.00
H258   H     0.48712   0.69942   0.27899   0.00000  Uiso   1.00
H259   H     0.69853   0.91618   0.82643   0.00000  Uiso   1.00
H260   H     0.27259   0.13599   0.05289   0.00000  Uiso   1.00
H261   H     0.67512   0.10938   0.25352   0.00000  Uiso   1.00
H262   H     0.68120   0.01180   0.36673   0.00000  Uiso   1.00
H263   H     0.78146   0.11458   0.15210   0.00000  Uiso   1.00
H264   H     0.57947   0.21882   0.25949   0.00000  Uiso   1.00
H265   H     0.66153   0.87671   0.46416   0.00000  Uiso   1.00
H266   H     0.87294   0.09348   0.01159   0.00000  Uiso   1.00
H267   H     0.44700   0.31329   0.23806   0.00000  Uiso   1.00
O268   O     0.57467   0.72012   0.44213   0.00000  Uiso   1.00
O269   O     0.85202   0.00452   0.84839   0.00000  Uiso   1.00
O270   O     0.29320   0.29290   0.14550   0.00000  Uiso   1.00
N271   N     0.52732   0.75454   0.30704   0.00000  Uiso   1.00
N272   N     0.72498   0.95719   0.88393   0.00000  Uiso   1.00
N273   N     0.32677   0.16270   0.09563   0.00000  Uiso   1.00
N274   N     0.62117   0.84995   0.40668   0.00000  Uiso   1.00
N275   N     0.81883   0.05260   0.98356   0.00000  Uiso   1.00
N276   N     0.42062   0.25811   0.19527   0.00000  Uiso   1.00
